data_image0
_chemical_formula_structural       Mn4H64C80N8O24
_chemical_formula_sum              "Mn4 H64 C80 N8 O24"
_cell_length_a       9.7317
_cell_length_b       11.31328
_cell_length_c       23.60435
_cell_angle_alpha    89.99951
_cell_angle_beta     90.00045
_cell_angle_gamma    95.96926999999998

_space_group_name_H-M_alt    "P 1"
_space_group_IT_number       1

loop_
  _space_group_symop_operation_xyz
  'x, y, z'

loop_
  _atom_site_type_symbol
  _atom_site_label
  _atom_site_symmetry_multiplicity
  _atom_site_fract_x
  _atom_site_fract_y
  _atom_site_fract_z
  _atom_site_occupancy
  Mn  Mn1       1.0  0.7474599999999999  0.50191  0.23328  1.0000
  Mn  Mn2       1.0  0.75255  0.49808000000000013  0.7333  1.0000
  Mn  Mn3       1.0  0.25258  0.49812  0.76674  1.0000
  Mn  Mn4       1.0  0.24747  0.50191  0.26672  1.0000
  H   H1        1.0  0.8512  0.35316  0.33719999999999994  1.0000
  H   H2        1.0  0.84993  0.34088  0.44222  1.0000
  H   H3        1.0  0.6463  0.66319  0.4434  1.0000
  H   H4        1.0  0.64221  0.65253  0.33832  1.0000
  H   H5        1.0  0.92129  0.39340000000000014  0.52457  1.0000
  H   H6        1.0  0.9109299999999999  0.39143000000000006  0.6298599999999999  1.0000
  H   H7        1.0  0.59256  0.60557  0.63219  1.0000
  H   H8        1.0  0.57882  0.60898  0.52691  1.0000
  H   H9        1.0  0.24924999999999997  0.00151  0.35646  1.0000
  H   H10       1.0  0.07023  0.8727000000000003  0.19778  1.0000
  H   H11       1.0  0.25103  0.9992800000000001  0.14676999999999998  1.0000
  H   H12       1.0  0.43084  0.12748  0.1978  1.0000
  H   H13       1.0  0.61292  0.26143  0.31805999999999995  1.0000
  H   H14       1.0  0.60256  0.18032  0.25432  1.0000
  H   H15       1.0  0.88283  0.74345  0.3171  1.0000
  H   H16       1.0  0.8991699999999999  0.82362  0.25331  1.0000
  H   H17       1.0  0.64882  0.64685  0.8371999999999998  1.0000
  H   H18       1.0  0.6501  0.65913  0.9422199999999997  1.0000
  H   H19       1.0  0.85373  0.33682  0.9434099999999997  1.0000
  H   H20       1.0  0.8578  0.34748  0.83832  1.0000
  H   H21       1.0  0.57873  0.6066  0.024569999999999995  1.0000
  H   H22       1.0  0.58909  0.60857  0.12985  1.0000
  H   H23       1.0  0.90746  0.39444  0.13219  1.0000
  H   H24       1.0  0.9212  0.39103  0.026909999999999993  1.0000
  H   H25       1.0  0.25078  0.9985100000000001  0.8564599999999999  1.0000
  H   H26       1.0  0.42978999999999995  0.12731  0.69777  1.0000
  H   H27       1.0  0.24898  0.00072  0.64677  1.0000
  H   H28       1.0  0.06916999999999997  0.87253  0.6977999999999999  1.0000
  H   H29       1.0  0.8870999999999999  0.73862  0.8180899999999999  1.0000
  H   H30       1.0  0.8974899999999999  0.81967  0.75433  1.0000
  H   H31       1.0  0.61719  0.25657  0.8171  1.0000
  H   H32       1.0  0.60085  0.17639000000000002  0.75331  1.0000
  H   H33       1.0  0.14882000000000004  0.6468600000000001  0.66281  1.0000
  H   H34       1.0  0.15006999999999998  0.6591200000000002  0.55778  1.0000
  H   H35       1.0  0.35370999999999997  0.33682  0.5566099999999999  1.0000
  H   H36       1.0  0.35782  0.3474900000000001  0.66169  1.0000
  H   H37       1.0  0.07873  0.60661  0.4754299999999999  1.0000
  H   H38       1.0  0.08909  0.60857  0.37014999999999987  1.0000
  H   H39       1.0  0.40746000000000004  0.39444  0.36782  1.0000
  H   H40       1.0  0.4212000000000001  0.39103  0.4731  1.0000
  H   H41       1.0  0.75075  0.9984800000000001  0.6435399999999999  1.0000
  H   H42       1.0  0.9297799999999999  0.12731  0.80222  1.0000
  H   H43       1.0  0.74899  0.00073  0.8532299999999999  1.0000
  H   H44       1.0  0.56917  0.87253  0.8022099999999998  1.0000
  H   H45       1.0  0.38712  0.73848  0.6819799999999999  1.0000
  H   H46       1.0  0.39742  0.81967  0.7457  1.0000
  H   H47       1.0  0.11717999999999999  0.25655  0.6829  1.0000
  H   H48       1.0  0.10084  0.17638  0.74669  1.0000
  H   H49       1.0  0.3512  0.35316  0.16280999999999998  1.0000
  H   H50       1.0  0.34992  0.34088  0.05777999999999999  1.0000
  H   H51       1.0  0.14629  0.6631800000000001  0.056599999999999984  1.0000
  H   H52       1.0  0.14221  0.65252  0.16168  1.0000
  H   H53       1.0  0.42129  0.39341  0.97543  1.0000
  H   H54       1.0  0.41093  0.3914400000000001  0.8701499999999998  1.0000
  H   H55       1.0  0.09254000000000001  0.6055600000000001  0.8678199999999998  1.0000
  H   H56       1.0  0.07882  0.60898  0.9730899999999998  1.0000
  H   H57       1.0  0.7492499999999999  0.00151  0.14354  1.0000
  H   H58       1.0  0.57023  0.8727000000000003  0.30223  1.0000
  H   H59       1.0  0.75103  0.9992800000000001  0.3532299999999999  1.0000
  H   H60       1.0  0.93085  0.12748  0.3022  1.0000
  H   H61       1.0  0.11291999999999999  0.26144  0.18194  1.0000
  H   H62       1.0  0.10256  0.18032  0.24567999999999995  1.0000
  H   H63       1.0  0.38283  0.74345  0.18289999999999995  1.0000
  H   H64       1.0  0.39917  0.82362  0.24668999999999996  1.0000
  C   C1        1.0  0.80391  0.41818  0.3625399999999999  1.0000
  C   C2        1.0  0.80516  0.41364000000000006  0.42144  1.0000
  C   C3        1.0  0.74845  0.50202  0.45301  1.0000
  C   C4        1.0  0.69055  0.59077  0.4221  1.0000
  C   C5        1.0  0.69002  0.58698  0.36315  1.0000
  C   C6        1.0  0.74973  0.50123  0.51569  1.0000
  C   C7        1.0  0.84414  0.43987  0.5461999999999999  1.0000
  C   C8        1.0  0.8407599999999998  0.43986  0.6051499999999999  1.0000
  C   C9        1.0  0.66168  0.55835  0.6063799999999999  1.0000
  C   C10       1.0  0.65661  0.5614200000000001  0.5474699999999999  1.0000
  C   C11       1.0  0.34989999999999993  0.07452  0.28087  1.0000
  C   C12       1.0  0.24971  0.001  0.31045  1.0000
  C   C13       1.0  0.14983999999999997  0.9270000000000003  0.28096999999999994  1.0000
  C   C14       1.0  0.14852999999999994  0.9272800000000001  0.22148999999999994  1.0000
  C   C15       1.0  0.2504  6e-05  0.19283999999999996  1.0000
  C   C16       1.0  0.35195  0.07338  0.22142  1.0000
  C   C17       1.0  0.54092  0.22524000000000002  0.28505  1.0000
  C   C18       1.0  0.47939999999999994  0.3292  0.25618  1.0000
  C   C19       1.0  0.9578299999999998  0.77808  0.28488  1.0000
  C   C20       1.0  0.019100000000000016  0.6733400000000002  0.25701  1.0000
  C   C21       1.0  0.69611  0.58183  0.8625399999999998  1.0000
  C   C22       1.0  0.69487  0.58637  0.9214399999999999  1.0000
  C   C23       1.0  0.7515799999999999  0.49799000000000004  0.95302  1.0000
  C   C24       1.0  0.80947  0.40924  0.9221  1.0000
  C   C25       1.0  0.80999  0.41303000000000006  0.86315  1.0000
  C   C26       1.0  0.75028  0.49877  0.01569  1.0000
  C   C27       1.0  0.65588  0.5601300000000001  0.0462  1.0000
  C   C28       1.0  0.65926  0.56015  0.10515  1.0000
  C   C29       1.0  0.83834  0.4416600000000001  0.10639  1.0000
  C   C30       1.0  0.8434  0.43859000000000004  0.04746999999999999  1.0000
  C   C31       1.0  0.15012  0.92549  0.78087  1.0000
  C   C32       1.0  0.25031  0.9990200000000001  0.8104499999999998  1.0000
  C   C33       1.0  0.35018  0.07301000000000002  0.78097  1.0000
  C   C34       1.0  0.35149  0.07272  0.7214899999999997  1.0000
  C   C35       1.0  0.24961  0.99994  0.69284  1.0000
  C   C36       1.0  0.14806  0.9266300000000001  0.72143  1.0000
  C   C37       1.0  0.9590999999999998  0.77476  0.7850699999999999  1.0000
  C   C38       1.0  0.020649999999999998  0.6708  0.7562099999999999  1.0000
  C   C39       1.0  0.5422  0.22193  0.7848799999999999  1.0000
  C   C40       1.0  0.48088999999999993  0.32666  0.7570099999999998  1.0000
  C   C41       1.0  0.19611  0.58183  0.6374699999999999  1.0000
  C   C42       1.0  0.19483999999999999  0.58637  0.57857  1.0000
  C   C43       1.0  0.25156  0.49799000000000004  0.5469899999999999  1.0000
  C   C44       1.0  0.30946  0.40924  0.57791  1.0000
  C   C45       1.0  0.31001  0.4130400000000001  0.63686  1.0000
  C   C46       1.0  0.25027999999999995  0.49877  0.48431999999999986  1.0000
  C   C47       1.0  0.15588  0.56014  0.4538099999999999  1.0000
  C   C48       1.0  0.15926  0.56015  0.39485  1.0000
  C   C49       1.0  0.33835  0.44167  0.39361999999999997  1.0000
  C   C50       1.0  0.34341  0.43859000000000004  0.4525399999999999  1.0000
  C   C51       1.0  0.6501099999999999  0.92547  0.71914  1.0000
  C   C52       1.0  0.75029  0.9990000000000001  0.6895599999999997  1.0000
  C   C53       1.0  0.8501599999999999  0.07299000000000001  0.71903  1.0000
  C   C54       1.0  0.85148  0.07272  0.7785099999999999  1.0000
  C   C55       1.0  0.74961  0.9999500000000001  0.80716  1.0000
  C   C56       1.0  0.64807  0.9266200000000002  0.7785799999999999  1.0000
  C   C57       1.0  0.45909999999999995  0.7747500000000002  0.71498  1.0000
  C   C58       1.0  0.52067  0.67082  0.7438499999999999  1.0000
  C   C59       1.0  0.04218  0.22192000000000003  0.7151099999999998  1.0000
  C   C60       1.0  0.98092  0.32667  0.7429999999999998  1.0000
  C   C61       1.0  0.30391  0.41818  0.13746  1.0000
  C   C62       1.0  0.30516  0.41364000000000006  0.07856  1.0000
  C   C63       1.0  0.24843999999999997  0.5020100000000001  0.04698999999999999  1.0000
  C   C64       1.0  0.19055  0.59077  0.0779  1.0000
  C   C65       1.0  0.19002  0.58698  0.13684999999999997  1.0000
  C   C66       1.0  0.24972999999999998  0.50124  0.98431  1.0000
  C   C67       1.0  0.34414  0.43987  0.9538099999999999  1.0000
  C   C68       1.0  0.34075  0.43986  0.89485  1.0000
  C   C69       1.0  0.16166  0.55834  0.89362  1.0000
  C   C70       1.0  0.15661000000000003  0.5614200000000001  0.9525399999999999  1.0000
  C   C71       1.0  0.84991  0.07453  0.21912999999999994  1.0000
  C   C72       1.0  0.74971  0.001  0.18954999999999997  1.0000
  C   C73       1.0  0.64985  0.9270100000000001  0.21903  1.0000
  C   C74       1.0  0.64853  0.9272800000000001  0.27851  1.0000
  C   C75       1.0  0.75041  6e-05  0.30716  1.0000
  C   C76       1.0  0.8519499999999999  0.07338  0.27857  1.0000
  C   C77       1.0  0.04092  0.22525  0.21494999999999995  1.0000
  C   C78       1.0  0.9793799999999999  0.32919  0.24382  1.0000
  C   C79       1.0  0.45782999999999996  0.77808  0.21511999999999995  1.0000
  C   C80       1.0  0.51914  0.67335  0.24298999999999996  1.0000
  N   N1        1.0  0.7465300000000001  0.50276  0.33315  1.0000
  N   N2        1.0  0.75141  0.4981400000000001  0.63519  1.0000
  N   N3        1.0  0.75348  0.49724000000000007  0.83315  1.0000
  N   N4        1.0  0.7486199999999998  0.50188  0.13519  1.0000
  N   N5        1.0  0.25352  0.4972800000000001  0.66686  1.0000
  N   N6        1.0  0.24862  0.50187  0.36482  1.0000
  N   N7        1.0  0.24652  0.50275  0.16686  1.0000
  N   N8        1.0  0.25139  0.49813  0.8648199999999998  1.0000
  O   O1        1.0  0.44302  0.14336  0.31403  1.0000
  O   O2        1.0  0.55942  0.3925300000000001  0.22293  1.0000
  O   O3        1.0  0.35439  0.34458000000000005  0.26642999999999994  1.0000
  O   O4        1.0  0.056339999999999994  0.85857  0.31416999999999995  1.0000
  O   O5        1.0  0.14524  0.66026  0.26639999999999997  1.0000
  O   O6        1.0  0.93856  0.60736  0.22518999999999995  1.0000
  O   O7        1.0  0.05701000000000001  0.85666  0.81403  1.0000
  O   O8        1.0  0.94061  0.60746  0.72293  1.0000
  O   O9        1.0  0.1456  0.6554200000000001  0.76646  1.0000
  O   O10       1.0  0.44369  0.14145  0.8141699999999997  1.0000
  O   O11       1.0  0.35479  0.33975  0.7664  1.0000
  O   O12       1.0  0.56148  0.39266  0.7251899999999999  1.0000
  O   O13       1.0  0.55698  0.85663  0.6859899999999999  1.0000
  O   O14       1.0  0.44064999999999993  0.60746  0.77708  1.0000
  O   O15       1.0  0.6456799999999999  0.65544  0.7336  1.0000
  O   O16       1.0  0.9436699999999999  0.14142  0.68583  1.0000
  O   O17       1.0  0.8547699999999999  0.33974  0.7336  1.0000
  O   O18       1.0  0.06145  0.39265  0.7748099999999998  1.0000
  O   O19       1.0  0.94302  0.14336  0.18597999999999998  1.0000
  O   O20       1.0  0.05943999999999999  0.39254  0.27708  1.0000
  O   O21       1.0  0.85441  0.34458000000000005  0.23357  1.0000
  O   O22       1.0  0.55634  0.85857  0.18583  1.0000
  O   O23       1.0  0.6452199999999999  0.66026  0.2336  1.0000
  O   O24       1.0  0.43853999999999993  0.60735  0.27482  1.0000
