data_image0
_chemical_formula_structural       Cu4H72C100N8O16
_chemical_formula_sum              "Cu4 H72 C100 N8 O16"
_cell_length_a       9.8596
_cell_length_b       13.178870000000002
_cell_length_c       18.17216
_cell_angle_alpha    89.73911
_cell_angle_beta     89.82565999999998
_cell_angle_gamma    81.36709

_space_group_name_H-M_alt    "P 1"
_space_group_IT_number       1

loop_
  _space_group_symop_operation_xyz
  'x, y, z'

loop_
  _atom_site_type_symbol
  _atom_site_label
  _atom_site_symmetry_multiplicity
  _atom_site_fract_x
  _atom_site_fract_y
  _atom_site_fract_z
  _atom_site_occupancy
  Cu  Cu1       1.0  0.48842  0.74746  0.24898000000000003  1.0000
  Cu  Cu2       1.0  0.51155  0.25255  0.75102  1.0000
  Cu  Cu3       1.0  0.010469999999999991  0.253  0.7491500000000002  1.0000
  Cu  Cu4       1.0  0.9895099999999999  0.7470100000000001  0.25084  1.0000
  H   H1        1.0  0.84128  0.28411  0.8856600000000001  1.0000
  H   H2        1.0  0.66445  0.22348  0.8949  1.0000
  H   H3        1.0  0.90345  0.03535  0.0714  1.0000
  H   H4        1.0  0.73766  0.013799999999999998  0.7918200000000002  1.0000
  H   H5        1.0  0.40181000000000006  0.03448  0.43077  1.0000
  H   H6        1.0  0.34553  0.71831  0.49139000000000005  1.0000
  H   H7        1.0  0.78084  0.4988  0.78679  1.0000
  H   H8        1.0  0.49327000000000004  0.17807000000000003  0.49387000000000003  1.0000
  H   H9        1.0  0.18453999999999998  0.79284  0.49238  1.0000
  H   H10       1.0  0.84622  0.71547  0.00728  1.0000
  H   H11       1.0  0.21915999999999997  0.50118  0.21321  1.0000
  H   H12       1.0  0.16810000000000005  0.89177  0.30871000000000004  1.0000
  H   H13       1.0  0.84764  0.13175  0.35197  1.0000
  H   H14       1.0  0.6944  0.50218  0.57866  1.0000
  H   H15       1.0  0.5328  0.67711  0.9995200000000001  1.0000
  H   H16       1.0  0.67007  0.11121  0.00511  1.0000
  H   H17       1.0  0.6571299999999999  0.7191000000000001  0.38591  1.0000
  H   H18       1.0  0.16287  0.2245  0.60321  1.0000
  H   H19       1.0  0.06681  0.45908  0.4351  1.0000
  H   H20       1.0  0.67851  0.00794  0.0877  1.0000
  H   H21       1.0  0.3055999999999999  0.49781  0.42134  1.0000
  H   H22       1.0  0.16958  0.11171  0.49371000000000004  1.0000
  H   H23       1.0  0.83183  0.10824000000000003  0.69127  1.0000
  H   H24       1.0  0.46721000000000007  0.32287  0.00047  1.0000
  H   H25       1.0  0.87049  0.64337  0.8465  1.0000
  H   H26       1.0  0.82345  0.3962300000000001  0.99655  1.0000
  H   H27       1.0  0.69466  0.38644  0.68377  1.0000
  H   H28       1.0  0.6511300000000001  0.86776  0.85257  1.0000
  H   H29       1.0  0.68472  0.7890500000000001  0.00789  1.0000
  H   H30       1.0  0.96843  0.31957  0.49954  1.0000
  H   H31       1.0  0.24168  0.01427  0.70731  1.0000
  H   H32       1.0  0.93318  0.54094  0.56487  1.0000
  H   H33       1.0  0.30528  0.61356  0.31623  1.0000
  H   H34       1.0  0.80395  0.4985600000000001  0.07776  1.0000
  H   H35       1.0  0.32545  0.39411  0.50318  1.0000
  H   H36       1.0  0.3214799999999999  0.9920500000000002  0.9123  1.0000
  H   H37       1.0  0.8155  0.20718  0.50765  1.0000
  H   H38       1.0  0.33552  0.77652  0.10507  1.0000
  H   H39       1.0  0.17655  0.60377  0.0034500000000000004  1.0000
  H   H40       1.0  0.36946999999999997  0.64216  0.65209  1.0000
  H   H41       1.0  0.15232  0.86816  0.64804  1.0000
  H   H42       1.0  0.33051  0.10971  0.80937  1.0000
  H   H43       1.0  0.26233  0.9862000000000001  0.20818  1.0000
  H   H44       1.0  0.15377000000000002  0.28452  0.9927100000000001  1.0000
  H   H45       1.0  0.5638299999999999  0.46252000000000004  0.06531  1.0000
  H   H46       1.0  0.63053  0.35784  0.34793  1.0000
  H   H47       1.0  0.6545  0.2817  0.50861  1.0000
  H   H48       1.0  0.34279  0.28095  0.61408  1.0000
  H   H49       1.0  0.8240900000000001  0.98996  0.58968  1.0000
  H   H50       1.0  0.31527  0.21094  0.9921000000000001  1.0000
  H   H51       1.0  0.72158  0.50231  0.28821  1.0000
  H   H52       1.0  0.67456  0.60589  0.49679  1.0000
  H   H53       1.0  0.75808  0.9857700000000003  0.29266  1.0000
  H   H54       1.0  0.5979699999999999  0.96567  0.56926  1.0000
  H   H55       1.0  0.27843  0.49768000000000007  0.71179  1.0000
  H   H56       1.0  0.005710000000000013  0.82127  0.99248  1.0000
  H   H57       1.0  0.8371100000000001  0.77548  0.3968  1.0000
  H   H58       1.0  0.0316  0.68047  0.50046  1.0000
  H   H59       1.0  0.43617000000000006  0.53746  0.93468  1.0000
  H   H60       1.0  0.8304000000000001  0.8882800000000001  0.5063  1.0000
  H   H61       1.0  0.32992000000000005  0.8888  0.99487  1.0000
  H   H62       1.0  0.17589  0.01003  0.41032  1.0000
  H   H63       1.0  0.19604000000000002  0.50144  0.9222400000000001  1.0000
  H   H64       1.0  0.15872000000000003  0.71588  0.11434  1.0000
  H   H65       1.0  0.34887  0.13224  0.14743  1.0000
  H   H66       1.0  0.9942799999999999  0.17872000000000002  0.00752  1.0000
  H   H67       1.0  0.50675  0.822  0.50619  1.0000
  H   H68       1.0  0.09655000000000002  0.96464  0.9286000000000001  1.0000
  H   H69       1.0  0.19650999999999996  0.38697000000000004  0.81662  1.0000
  H   H70       1.0  0.80349  0.61303  0.18337  1.0000
  H   H71       1.0  0.6694600000000002  0.89027  0.19062  1.0000
  H   H72       1.0  0.12950999999999996  0.35662  0.1535  1.0000
  C   C1        1.0  0.26519000000000004  0.7544  0.52894  1.0000
  C   C2        1.0  0.77598  0.62022  0.86686  1.0000
  C   C3        1.0  0.40552000000000005  0.10647000000000002  0.85304  1.0000
  C   C4        1.0  0.59794  0.96016  0.08776000000000002  1.0000
  C   C5        1.0  0.58553  0.63909  0.95208  1.0000
  C   C6        1.0  0.02949  0.56301  0.58292  1.0000
  C   C7        1.0  0.46797000000000005  0.43929  0.08338  1.0000
  C   C8        1.0  0.40870000000000006  0.82963  0.09804  1.0000
  C   C9        1.0  0.02143000000000001  0.91161  0.17491  1.0000
  C   C10       1.0  0.57476  0.0006800000000000003  0.35919  1.0000
  C   C11       1.0  0.53204  0.5607  0.9166100000000001  1.0000
  C   C12       1.0  0.5833899999999999  0.6673400000000002  0.39655  1.0000
  C   C13       1.0  0.40205  0.039819999999999994  0.91223  1.0000
  C   C14       1.0  0.60265  0.50852  0.85749  1.0000
  C   C15       1.0  0.40695000000000003  0.89347  0.03685  1.0000
  C   C16       1.0  0.17807  0.16559  0.07289000000000001  1.0000
  C   C17       1.0  0.50064  0.94305  0.58527  1.0000
  C   C18       1.0  0.54421  0.4212000000000001  0.82349  1.0000
  C   C19       1.0  0.38928999999999997  0.54235  0.41656000000000004  1.0000
  C   C20       1.0  0.50102  0.96352  0.03118  1.0000
  C   C21       1.0  0.6107  0.4576600000000001  0.58343  1.0000
  C   C22       1.0  0.73484  0.24557  0.47107  1.0000
  C   C23       1.0  0.051719999999999995  0.13785  0.05242  1.0000
  C   C24       1.0  0.7651199999999999  0.75219  0.97049  1.0000
  C   C25       1.0  0.9953499999999998  0.5358  0.031490000000000004  1.0000
  C   C26       1.0  0.9705000000000001  0.43701  0.41707000000000005  1.0000
  C   C27       1.0  0.77717  0.46146  0.33386  1.0000
  C   C28       1.0  0.09631  0.96146  0.4114  1.0000
  C   C29       1.0  0.20695000000000002  0.67196  0.57156  1.0000
  C   C30       1.0  0.79759  0.97131  0.8353  1.0000
  C   C31       1.0  0.09977999999999997  0.50908  0.64141  1.0000
  C   C32       1.0  0.1117  0.45773  0.91685  1.0000
  C   C33       1.0  0.27407  0.6204100000000001  0.63223  1.0000
  C   C34       1.0  0.08375  0.64198  0.54789  1.0000
  C   C35       1.0  0.08396999999999998  0.6653100000000001  0.10331  1.0000
  C   C36       1.0  0.7488699999999999  0.8886900000000002  0.8693900000000001  1.0000
  C   C37       1.0  0.91627  0.35803  0.45211000000000007  1.0000
  C   C38       1.0  0.90759  0.3978700000000001  0.95803  1.0000
  C   C39       1.0  0.48067  0.08878  0.6738  1.0000
  C   C40       1.0  0.41447000000000006  0.3609  0.04791  1.0000
  C   C41       1.0  0.9067099999999999  0.10531  0.64733  1.0000
  C   C42       1.0  0.40863  0.3962800000000001  0.54192  1.0000
  C   C43       1.0  0.29954  0.97116  0.6634500000000001  1.0000
  C   C44       1.0  0.20239999999999997  0.02869  0.1647  1.0000
  C   C45       1.0  0.39736  0.49147  0.14251000000000003  1.0000
  C   C46       1.0  0.49916999999999995  0.05703  0.4147200000000001  1.0000
  C   C47       1.0  0.29183999999999993  0.32996  0.07215  1.0000
  C   C48       1.0  0.90022  0.49092  0.35858  1.0000
  C   C49       1.0  0.07712  0.00063  0.14253  1.0000
  C   C50       1.0  0.44948  0.86265  0.5511  1.0000
  C   C51       1.0  0.92287  0.99936  0.85747  1.0000
  C   C52       1.0  0.09241000000000002  0.60213  0.04197000000000001  1.0000
  C   C53       1.0  0.6767799999999999  0.16501000000000002  0.4276  1.0000
  C   C54       1.0  0.22402  0.37977  0.13314  1.0000
  C   C55       1.0  0.59304  0.10653  0.96314  1.0000
  C   C56       1.0  0.96016  0.57794  0.32478  1.0000
  C   C57       1.0  0.8858300000000001  0.60762  0.14317  1.0000
  C   C58       1.0  0.09324  0.8947  0.35266  1.0000
  C   C59       1.0  0.74981  0.11119  0.36976  1.0000
  C   C60       1.0  0.03983000000000001  0.42207  0.6752000000000001  1.0000
  C   C61       1.0  0.99907  0.94257  0.91269  1.0000
  C   C62       1.0  0.4558000000000001  0.57879  0.17651  1.0000
  C   C63       1.0  0.59136  0.60373  0.4580600000000001  1.0000
  C   C64       1.0  0.51941  0.91119  0.32633  1.0000
  C   C65       1.0  0.27464  0.46104  0.16735  1.0000
  C   C66       1.0  0.59128  0.17036  0.90194  1.0000
  C   C67       1.0  0.55041  0.1374  0.44892  1.0000
  C   C68       1.0  0.11416999999999998  0.3923800000000001  0.85683  1.0000
  C   C69       1.0  0.70029  0.02889  0.33653  1.0000
  C   C70       1.0  0.32317  0.83496  0.5724200000000002  1.0000
  C   C71       1.0  0.09285  0.1067  0.5361200000000002  1.0000
  C   C72       1.0  0.0009299999999999993  0.05742  0.08731  1.0000
  C   C73       1.0  0.4953600000000001  0.53622  0.46846000000000004  1.0000
  C   C74       1.0  0.9036500000000001  0.03854  0.58859  1.0000
  C   C75       1.0  0.4989700000000001  0.03648  0.96881  1.0000
  C   C76       1.0  0.7930800000000001  0.32802  0.42844  1.0000
  C   C77       1.0  0.72536  0.53895  0.83264  1.0000
  C   C78       1.0  0.99942  0.03615  0.53118  1.0000
  C   C79       1.0  0.7259399999999999  0.37958  0.36778  1.0000
  C   C80       1.0  0.22282000000000005  0.53854  0.6661400000000002  1.0000
  C   C81       1.0  0.9785600000000001  0.08838000000000001  0.8250900000000002  1.0000
  C   C82       1.0  0.91602  0.33468  0.8966900000000001  1.0000
  C   C83       1.0  0.59446  0.89351  0.14695  1.0000
  C   C84       1.0  0.004640000000000006  0.4642  0.9685  1.0000
  C   C85       1.0  0.38702  0.60821  0.3565  1.0000
  C   C86       1.0  0.94827  0.86214  0.9475799999999999  1.0000
  C   C87       1.0  0.41656  0.33269000000000004  0.60344  1.0000
  C   C88       1.0  0.25010000000000004  0.8888  0.63023  1.0000
  C   C89       1.0  0.23488000000000003  0.24780000000000002  0.02951  1.0000
  C   C90       1.0  0.82192  0.8344  0.9270999999999999  1.0000
  C   C91       1.0  0.000559999999999991  0.96385  0.46882000000000007  1.0000
  C   C92       1.0  0.9092000000000001  0.82947  0.40299  1.0000
  C   C93       1.0  0.61295  0.39179000000000014  0.64349  1.0000
  C   C94       1.0  0.25113  0.11131000000000002  0.13061  1.0000
  C   C95       1.0  0.50463  0.4637900000000001  0.53153  1.0000
  C   C96       1.0  0.09076000000000001  0.17052  0.59701  1.0000
  C   C97       1.0  0.90712  0.8933  0.46388999999999997  1.0000
  C   C98       1.0  0.8883000000000001  0.54227  0.08315  1.0000
  C   C99       1.0  0.4251  0.99939  0.64082  1.0000
  C   C100      1.0  0.70816  0.67003  0.92784  1.0000
  N   N1        1.0  0.48482000000000003  0.668  0.34517  1.0000
  N   N2        1.0  0.0006599999999999974  0.16943  0.65298  1.0000
  N   N3        1.0  0.49929999999999997  0.83031  0.15345  1.0000
  N   N4        1.0  0.50066  0.16968  0.8465400000000001  1.0000
  N   N5        1.0  0.9992900000000001  0.83058  0.34701000000000004  1.0000
  N   N6        1.0  0.51513  0.33202  0.65482  1.0000
  N   N7        1.0  0.98414  0.66687  0.1544  1.0000
  N   N8        1.0  0.015860000000000006  0.33311999999999997  0.8456000000000002  1.0000
  O   O1        1.0  0.39325  0.90661  0.32646  1.0000
  O   O2        1.0  0.5827300000000001  0.57961  0.17759  1.0000
  O   O3        1.0  0.89463  0.9099400000000001  0.17491  1.0000
  O   O4        1.0  0.11061999999999998  0.83796  0.20192  1.0000
  O   O5        1.0  0.39094  0.16079  0.70226  1.0000
  O   O6        1.0  0.60908  0.83927  0.2977  1.0000
  O   O7        1.0  0.60686  0.09316  0.67389  1.0000
  O   O8        1.0  0.08746000000000001  0.57683  0.32337  1.0000
  O   O9        1.0  0.12749999999999997  0.34652  0.7010800000000001  1.0000
  O   O10       1.0  0.63161  0.34566  0.79736  1.0000
  O   O11       1.0  0.36839999999999995  0.6543300000000001  0.20264  1.0000
  O   O12       1.0  0.10537000000000002  0.09003  0.8250800000000001  1.0000
  O   O13       1.0  0.41728  0.42037  0.82241  1.0000
  O   O14       1.0  0.8893899999999999  0.16204  0.79808  1.0000
  O   O15       1.0  0.91253  0.42322  0.6766  1.0000
  O   O16       1.0  0.8724699999999997  0.6534900000000001  0.29891  1.0000
