data_image0
_chemical_formula_structural       Zn4H80C104N4O16
_chemical_formula_sum              "Zn4 H80 C104 N4 O16"
_cell_length_a       13.1424
_cell_length_b       13.14413
_cell_length_c       16.068270000000002
_cell_angle_alpha    92.04537
_cell_angle_beta     92.04012
_cell_angle_gamma    108.42469

_space_group_name_H-M_alt    "P 1"
_space_group_IT_number       1

loop_
  _space_group_symop_operation_xyz
  'x, y, z'

loop_
  _atom_site_type_symbol
  _atom_site_label
  _atom_site_symmetry_multiplicity
  _atom_site_fract_x
  _atom_site_fract_y
  _atom_site_fract_z
  _atom_site_occupancy
  Zn  Zn1       1.0  0.4299699999999999  0.43968  0.55997  1.0000
  Zn  Zn2       1.0  0.57004  0.56032  0.44003  1.0000
  Zn  Zn3       1.0  0.56033  0.57003  0.94003  1.0000
  Zn  Zn4       1.0  0.43967  0.42998  0.05997  1.0000
  H   H1        1.0  0.18325  0.22422  0.9183300000000002  1.0000
  H   H2        1.0  0.26369  0.01226  0.5503  1.0000
  H   H3        1.0  0.09028999999999998  0.79546  0.5677  1.0000
  H   H4        1.0  0.97031  0.38608  0.33963  1.0000
  H   H5        1.0  0.25797  0.23282999999999998  0.54737  1.0000
  H   H6        1.0  0.73632  0.98775  0.4497  1.0000
  H   H7        1.0  0.04721  0.56313  0.09822  1.0000
  H   H8        1.0  0.17357  0.49888  0.13469  1.0000
  H   H9        1.0  0.77575  0.81678  0.58168  1.0000
  H   H10       1.0  0.059919999999999994  0.07194  0.77335  1.0000
  H   H11       1.0  0.19095000000000006  0.99662  0.85382  1.0000
  H   H12       1.0  0.98086  0.74351  0.0602  1.0000
  H   H13       1.0  0.31114  0.67593  0.83018  1.0000
  H   H14       1.0  0.0033700000000000166  0.80908  0.64616  1.0000
  H   H15       1.0  0.8941399999999999  0.20996  0.9866  1.0000
  H   H16       1.0  0.6890000000000001  0.14667  0.25617  1.0000
  H   H17       1.0  0.7504  0.6443800000000001  0.16153  1.0000
  H   H18       1.0  0.029690000000000025  0.61393  0.66038  1.0000
  H   H19       1.0  0.56313  0.04717000000000001  0.5981800000000003  1.0000
  H   H20       1.0  0.43688  0.95284  0.40182  1.0000
  H   H21       1.0  0.32406  0.6889  0.66985  1.0000
  H   H22       1.0  0.07195000000000001  0.05990000000000001  0.2733500000000001  1.0000
  H   H23       1.0  0.22425  0.18323  0.41832  1.0000
  H   H24       1.0  0.6059199999999999  0.8689100000000001  0.07147  1.0000
  H   H25       1.0  0.10586000000000002  0.79005  0.0134  1.0000
  H   H26       1.0  0.67594  0.31111  0.33015  1.0000
  H   H27       1.0  0.7899800000000001  0.10584  0.51343  1.0000
  H   H28       1.0  0.56957  0.88231  0.52158  1.0000
  H   H29       1.0  0.68886  0.32408  0.16982  1.0000
  H   H30       1.0  0.82643  0.50113  0.8653100000000002  1.0000
  H   H31       1.0  0.2328  0.25796  0.04737  1.0000
  H   H32       1.0  0.33259  0.51742  0.22608  1.0000
  H   H33       1.0  0.49885999999999997  0.17355  0.63468  1.0000
  H   H34       1.0  0.88235  0.56957  0.02159000000000001  1.0000
  H   H35       1.0  0.019139999999999997  0.2565  0.93981  1.0000
  H   H36       1.0  0.5318699999999998  0.6322799999999997  0.76266  1.0000
  H   H37       1.0  0.74204  0.76718  0.45264  1.0000
  H   H38       1.0  0.14669000000000007  0.6889800000000001  0.75617  1.0000
  H   H39       1.0  0.90971  0.20455  0.43231  1.0000
  H   H40       1.0  0.89038  0.86731  0.8597800000000002  1.0000
  H   H41       1.0  0.89691  0.13786  0.14718  1.0000
  H   H42       1.0  0.66742  0.48259  0.77392  1.0000
  H   H43       1.0  0.01224999999999999  0.26364  0.05031  1.0000
  H   H44       1.0  0.35565  0.24961000000000003  0.33846  1.0000
  H   H45       1.0  0.36771  0.46812  0.73736  1.0000
  H   H46       1.0  0.13271  0.10964  0.64022  1.0000
  H   H47       1.0  0.85331  0.31103  0.24383  1.0000
  H   H48       1.0  0.21003  0.89417  0.48658  1.0000
  H   H49       1.0  0.9280499999999998  0.9401  0.72665  1.0000
  H   H50       1.0  0.4826  0.66746  0.27394  1.0000
  H   H51       1.0  0.50114  0.82646  0.36532  1.0000
  H   H52       1.0  0.20457  0.90973  0.93229  1.0000
  H   H53       1.0  0.80905  0.0033800000000000006  0.14618  1.0000
  H   H54       1.0  0.46813  0.36773000000000006  0.23734  1.0000
  H   H55       1.0  0.43043  0.11770000000000001  0.47842  1.0000
  H   H56       1.0  0.2496  0.35562  0.8384800000000002  1.0000
  H   H57       1.0  0.5174  0.33254  0.72606  1.0000
  H   H58       1.0  0.94008  0.9280700000000001  0.22665  1.0000
  H   H59       1.0  0.25653  0.01916  0.43979  1.0000
  H   H60       1.0  0.311  0.85334  0.74384  1.0000
  H   H61       1.0  0.95279  0.43688000000000005  0.9017800000000002  1.0000
  H   H62       1.0  0.7672  0.7420500000000001  0.95264  1.0000
  H   H63       1.0  0.6323  0.53188  0.26265  1.0000
  H   H64       1.0  0.81675  0.77578  0.08167  1.0000
  H   H65       1.0  0.1031  0.86215  0.85283  1.0000
  H   H66       1.0  0.38607  0.97036  0.83965  1.0000
  H   H67       1.0  0.61393  0.02965  0.16036  1.0000
  H   H68       1.0  0.86894  0.60593  0.57147  1.0000
  H   H69       1.0  0.8672899999999999  0.8903700000000001  0.35978  1.0000
  H   H70       1.0  0.79543  0.09028  0.06771  1.0000
  H   H71       1.0  0.13107  0.39407  0.42853  1.0000
  H   H72       1.0  0.86214  0.10307000000000001  0.35285  1.0000
  H   H73       1.0  0.74347  0.9808500000000001  0.56021  1.0000
  H   H74       1.0  0.39408  0.13109  0.92854  1.0000
  H   H75       1.0  0.10963  0.1327  0.14022  1.0000
  H   H76       1.0  0.13786  0.89693  0.64716  1.0000
  H   H77       1.0  0.11766000000000003  0.43043  0.9784200000000002  1.0000
  H   H78       1.0  0.99663  0.19093  0.35384  1.0000
  H   H79       1.0  0.64435  0.75039  0.66154  1.0000
  H   H80       1.0  0.98775  0.73637  0.94969  1.0000
  C   C1        1.0  0.67574  0.75124  0.72517  1.0000
  C   C2        1.0  0.51383  0.8771  0.57084  1.0000
  C   C3        1.0  0.9509  0.58885  0.6864900000000003  1.0000
  C   C4        1.0  0.75784  0.54299  0.6663  1.0000
  C   C5        1.0  0.94009  0.9275800000000001  0.05607  1.0000
  C   C6        1.0  0.5502000000000001  0.22470000000000004  0.40729  1.0000
  C   C7        1.0  0.030629999999999994  0.49087000000000003  0.88637  1.0000
  C   C8        1.0  0.7466900000000001  0.74401  0.38765  1.0000
  C   C9        1.0  0.52239  0.83731  0.30064  1.0000
  C   C10       1.0  0.3694  0.86027  0.69626  1.0000
  C   C11       1.0  0.92756  0.9401  0.55607  1.0000
  C   C12       1.0  0.049099999999999984  0.41116  0.31351  1.0000
  C   C13       1.0  0.92995  0.03142  0.053260000000000016  1.0000
  C   C14       1.0  0.37549999999999994  0.76798  0.65463  1.0000
  C   C15       1.0  0.81203  0.8156  0.83539  1.0000
  C   C16       1.0  0.41732  0.13905000000000003  0.8642100000000003  1.0000
  C   C17       1.0  0.55885  0.94105  0.26989  1.0000
  C   C18       1.0  0.7801700000000001  0.8164900000000002  0.75102  1.0000
  C   C19       1.0  0.5319100000000001  0.6616200000000001  0.10971  1.0000
  C   C20       1.0  0.77531  0.44981  0.09270000000000003  1.0000
  C   C21       1.0  0.12289  0.48617  0.92917  1.0000
  C   C22       1.0  0.88282  0.85662  0.19564  1.0000
  C   C23       1.0  0.14608  0.9333200000000001  0.8932100000000002  1.0000
  C   C24       1.0  0.75124  0.67576  0.22516000000000005  1.0000
  C   C25       1.0  0.8372799999999999  0.52238  0.80063  1.0000
  C   C26       1.0  0.22468999999999997  0.5502  0.9073100000000002  1.0000
  C   C27       1.0  0.31481  0.38799  0.71859  1.0000
  C   C28       1.0  0.89633  0.009659999999999998  0.50308  1.0000
  C   C29       1.0  0.32402  0.53446  0.94506  1.0000
  C   C30       1.0  0.21411  0.97894  0.49293  1.0000
  C   C31       1.0  0.25332  0.256  0.61235  1.0000
  C   C32       1.0  0.10367  0.99034  0.49692  1.0000
  C   C33       1.0  0.33838000000000007  0.46809  0.3903  1.0000
  C   C34       1.0  0.96858  0.07005  0.44676  1.0000
  C   C35       1.0  0.54299  0.75785  0.1663  1.0000
  C   C36       1.0  0.58885  0.95089  0.18649  1.0000
  C   C37       1.0  0.96269  0.43875  0.17884  1.0000
  C   C38       1.0  0.41116  0.04912  0.81352  1.0000
  C   C39       1.0  0.74402  0.74669  0.8876600000000002  1.0000
  C   C40       1.0  0.059910000000000005  0.07243  0.9439300000000003  1.0000
  C   C41       1.0  0.16272  0.47762  0.19937  1.0000
  C   C42       1.0  0.8609799999999999  0.5826899999999999  0.63579  1.0000
  C   C43       1.0  0.97893  0.21408000000000002  0.9929400000000003  1.0000
  C   C44       1.0  0.43875  0.96269  0.67884  1.0000
  C   C45       1.0  0.12470999999999999  0.1526  0.88828  1.0000
  C   C46       1.0  0.8752900000000001  0.84741  0.11173  1.0000
  C   C47       1.0  0.24876  0.32425  0.77484  1.0000
  C   C48       1.0  0.07244  0.0599  0.44393  1.0000
  C   C49       1.0  0.44114999999999993  0.05895000000000001  0.73011  1.0000
  C   C50       1.0  0.53446  0.32403  0.44505  1.0000
  C   C51       1.0  0.68519  0.61201  0.28141  1.0000
  C   C52       1.0  0.25313  0.48714  0.25076  1.0000
  C   C53       1.0  0.18351999999999996  0.21983000000000003  0.74899  1.0000
  C   C54       1.0  0.6245  0.23202000000000003  0.34537  1.0000
  C   C55       1.0  0.07006000000000007  0.96859  0.94675  1.0000
  C   C56       1.0  0.67598  0.46556  0.05494  1.0000
  C   C57       1.0  0.18797  0.18440000000000004  0.16461000000000006  1.0000
  C   C58       1.0  0.8473800000000001  0.8753100000000001  0.6117300000000002  1.0000
  C   C59       1.0  0.03141999999999998  0.92995  0.55324  1.0000
  C   C60       1.0  0.48713  0.2531099999999999  0.75075  1.0000
  C   C61       1.0  0.4776099999999999  0.1627  0.69936  1.0000
  C   C62       1.0  0.76797  0.37551000000000007  0.15461  1.0000
  C   C63       1.0  0.81648  0.78018  0.25101  1.0000
  C   C64       1.0  0.05895999999999999  0.44116  0.23011000000000006  1.0000
  C   C65       1.0  0.4498  0.7753100000000002  0.59271  1.0000
  C   C66       1.0  0.00965999999999997  0.89635  0.00307  1.0000
  C   C67       1.0  0.13975  0.6306  0.80375  1.0000
  C   C68       1.0  0.23204000000000002  0.6245000000000002  0.84539  1.0000
  C   C69       1.0  0.21983  0.18352  0.24899000000000004  1.0000
  C   C70       1.0  0.6120000000000001  0.68518  0.7814300000000002  1.0000
  C   C71       1.0  0.45701000000000014  0.24216  0.8337  1.0000
  C   C72       1.0  0.46809  0.33839  0.89029  1.0000
  C   C73       1.0  0.18441  0.18798000000000004  0.66461  1.0000
  C   C74       1.0  0.11717999999999999  0.14338999999999993  0.80436  1.0000
  C   C75       1.0  0.46554  0.67597  0.55495  1.0000
  C   C76       1.0  0.06668000000000002  0.85394  0.60678  1.0000
  C   C77       1.0  0.66162  0.53191  0.6097  1.0000
  C   C78       1.0  0.51287  0.74689  0.24925  1.0000
  C   C79       1.0  0.49087  0.03066  0.38638  1.0000
  C   C80       1.0  0.32426000000000005  0.24877  0.27483  1.0000
  C   C81       1.0  0.15262000000000003  0.12469  0.38827  1.0000
  C   C82       1.0  0.96937  0.50913  0.11363  1.0000
  C   C83       1.0  0.74687  0.51286  0.74924  1.0000
  C   C84       1.0  0.13903  0.41732  0.36421  1.0000
  C   C85       1.0  0.6306  0.13974  0.30374  1.0000
  C   C86       1.0  0.58269  0.86096  0.13579  1.0000
  C   C87       1.0  0.8771200000000001  0.51384  0.07084  1.0000
  C   C88       1.0  0.037309999999999996  0.56126  0.82116  1.0000
  C   C89       1.0  0.78589  0.02107  0.50707  1.0000
  C   C90       1.0  0.81559  0.8120300000000001  0.33539  1.0000
  C   C91       1.0  0.85392  0.06668  0.10679  1.0000
  C   C92       1.0  0.99035  0.10366000000000003  0.9969300000000002  1.0000
  C   C93       1.0  0.50913  0.96935  0.61362  1.0000
  C   C94       1.0  0.021069999999999985  0.78593  0.007060000000000002  1.0000
  C   C95       1.0  0.48617000000000005  0.12291000000000002  0.42917  1.0000
  C   C96       1.0  0.56125  0.03731  0.32116  1.0000
  C   C97       1.0  0.1434  0.11717  0.30436  1.0000
  C   C98       1.0  0.86025  0.36941  0.19625  1.0000
  C   C99       1.0  0.2559800000000001  0.25332  0.11235  1.0000
  C   C100      1.0  0.93332  0.14607  0.39323  1.0000
  C   C101      1.0  0.9410499999999999  0.5588499999999998  0.76989  1.0000
  C   C102      1.0  0.388  0.31482  0.21858000000000005  1.0000
  C   C103      1.0  0.24216  0.45702  0.3337  1.0000
  C   C104      1.0  0.85661  0.8828400000000002  0.6956500000000002  1.0000
  N   N1        1.0  0.35403000000000007  0.3192  0.13877000000000006  1.0000
  N   N2        1.0  0.68081  0.6459700000000002  0.36122  1.0000
  N   N3        1.0  0.31919000000000003  0.35404  0.63878  1.0000
  N   N4        1.0  0.64598  0.6808000000000001  0.86123  1.0000
  O   O1        1.0  0.41201000000000004  0.5838700000000002  0.91224  1.0000
  O   O2        1.0  0.588  0.41614  0.08776  1.0000
  O   O3        1.0  0.47522000000000003  0.57021  0.13357  1.0000
  O   O4        1.0  0.41998  0.32171  0.95848  1.0000
  O   O5        1.0  0.3217  0.41999  0.45848  1.0000
  O   O6        1.0  0.4298  0.52478  0.36644  1.0000
  O   O7        1.0  0.4161  0.58801  0.58777  1.0000
  O   O8        1.0  0.5294600000000002  0.6872500000000001  0.49557  1.0000
  O   O9        1.0  0.5839  0.412  0.41223  1.0000
  O   O10       1.0  0.67831  0.58002  0.54152  1.0000
  O   O11       1.0  0.68727  0.5294699999999999  0.99557  1.0000
  O   O12       1.0  0.5702  0.47523  0.63356  1.0000
  O   O13       1.0  0.58002  0.67829  0.04153  1.0000
  O   O14       1.0  0.52478  0.42979  0.86643  1.0000
  O   O15       1.0  0.47054  0.31275  0.50443  1.0000
  O   O16       1.0  0.31273  0.47054  0.00443  1.0000
