data_image0
_chemical_formula_structural       Co8H64C96N32
_chemical_formula_sum              "Co8 H64 C96 N32"
_cell_length_a       12.0227
_cell_length_b       17.37515
_cell_length_c       17.37515
_cell_angle_alpha    83.01349
_cell_angle_beta     69.64653
_cell_angle_gamma    69.64653

_space_group_name_H-M_alt    "P 1"
_space_group_IT_number       1

loop_
  _space_group_symop_operation_xyz
  'x, y, z'

loop_
  _atom_site_type_symbol
  _atom_site_label
  _atom_site_symmetry_multiplicity
  _atom_site_fract_x
  _atom_site_fract_y
  _atom_site_fract_z
  _atom_site_occupancy
  Co  Co1       1.0  0.08978000000000014  0.82141  0.7496599999999998  1.0000
  Co  Co2       1.0  0.66002  0.67856  0.7501599999999998  1.0000
  Co  Co3       1.0  0.9102299999999999  0.75033  0.67858  1.0000
  Co  Co4       1.0  0.3399900000000001  0.74984  0.82143  1.0000
  Co  Co5       1.0  0.9102300000000002  0.17859  0.2503299999999999  1.0000
  Co  Co6       1.0  0.33998000000000006  0.32143  0.24984  1.0000
  Co  Co7       1.0  0.08978000000000003  0.24967  0.32141  1.0000
  Co  Co8       1.0  0.66002  0.25016  0.17856  1.0000
  H   H1        1.0  0.15169000000000002  0.9814000000000002  0.6525099999999998  1.0000
  H   H2        1.0  0.46601000000000026  0.8855100000000002  0.74392  1.0000
  H   H3        1.0  0.53774  0.9937800000000001  0.67969  1.0000
  H   H4        1.0  0.7854  0.51807  0.84627  1.0000
  H   H5        1.0  0.09424999999999997  0.6149600000000002  0.75671  1.0000
  H   H6        1.0  0.21030000000000004  0.50631  0.8204299999999998  1.0000
  H   H7        1.0  0.13254999999999995  0.65298  0.51835  1.0000
  H   H8        1.0  0.35169999999999996  0.7431800000000002  0.61418  1.0000
  H   H9        1.0  0.5315500000000001  0.67924  0.5055499999999998  1.0000
  H   H10       1.0  0.30351000000000006  0.84685  0.98201  1.0000
  H   H11       1.0  0.7097700000000002  0.75563  0.8853299999999997  1.0000
  H   H12       1.0  0.7176500000000001  0.82013  0.99316  1.0000
  H   H13       1.0  0.8483100000000007  0.84749  0.5185999999999997  1.0000
  H   H14       1.0  0.534  0.75608  0.6144899999999998  1.0000
  H   H15       1.0  0.46227  0.82031  0.50622  1.0000
  H   H16       1.0  0.21461000000000002  0.65372  0.98193  1.0000
  H   H17       1.0  0.9057599999999998  0.74329  0.8850399999999998  1.0000
  H   H18       1.0  0.7897099999999999  0.67956  0.99369  1.0000
  H   H19       1.0  0.8674600000000002  0.9816400000000001  0.8470199999999998  1.0000
  H   H20       1.0  0.6483099999999998  0.8858200000000003  0.75682  1.0000
  H   H21       1.0  0.4684600000000002  0.9944500000000001  0.82076  1.0000
  H   H22       1.0  0.6965000000000001  0.5179900000000002  0.6531399999999998  1.0000
  H   H23       1.0  0.29024000000000005  0.61467  0.74436  1.0000
  H   H24       1.0  0.2823600000000001  0.50684  0.6798699999999998  1.0000
  H   H25       1.0  0.8483100000000001  0.0186  0.3474899999999999  1.0000
  H   H26       1.0  0.5339899999999999  0.11449  0.25608  1.0000
  H   H27       1.0  0.46227  0.006220000000000002  0.32031  1.0000
  H   H28       1.0  0.21460000000000004  0.48193  0.15371999999999994  1.0000
  H   H29       1.0  0.90575  0.3850400000000001  0.24328999999999995  1.0000
  H   H30       1.0  0.78971  0.49369  0.17955999999999994  1.0000
  H   H31       1.0  0.8674600000000005  0.34702  0.4816399999999999  1.0000
  H   H32       1.0  0.6483000000000002  0.25682  0.38582  1.0000
  H   H33       1.0  0.46846  0.32076  0.49444999999999995  1.0000
  H   H34       1.0  0.6964900000000002  0.15315000000000006  0.017989999999999992  1.0000
  H   H35       1.0  0.29023  0.24437  0.11467  1.0000
  H   H36       1.0  0.28236000000000006  0.17987  0.00684  1.0000
  H   H37       1.0  0.15169000000000005  0.15251  0.4813999999999999  1.0000
  H   H38       1.0  0.46601000000000004  0.24392000000000005  0.3855099999999999  1.0000
  H   H39       1.0  0.53773  0.17969  0.49377999999999994  1.0000
  H   H40       1.0  0.7854000000000001  0.34627  0.01807  1.0000
  H   H41       1.0  0.09425000000000003  0.25671  0.11496  1.0000
  H   H42       1.0  0.21029  0.32044  0.006309999999999998  1.0000
  H   H43       1.0  0.13253999999999996  0.018360000000000008  0.15298  1.0000
  H   H44       1.0  0.3517000000000002  0.11418000000000003  0.24317999999999995  1.0000
  H   H45       1.0  0.53154  0.00555  0.17924  1.0000
  H   H46       1.0  0.30350999999999995  0.4820100000000001  0.34685  1.0000
  H   H47       1.0  0.70977  0.3853300000000001  0.25563  1.0000
  H   H48       1.0  0.71764  0.49316000000000004  0.32013  1.0000
  H   H49       1.0  0.25543000000000016  0.0619  0.5618999999999997  1.0000
  H   H50       1.0  0.6293  0.09497  0.59497  1.0000
  H   H51       1.0  0.8780400000000002  0.43816  0.9381599999999998  1.0000
  H   H52       1.0  0.3183500000000001  0.40527000000000013  0.90526  1.0000
  H   H53       1.0  0.31692  0.56163  0.43816  1.0000
  H   H54       1.0  0.72465  0.59415  0.40446  1.0000
  H   H55       1.0  0.31691999999999987  0.9381600000000002  0.06163  1.0000
  H   H56       1.0  0.72465  0.9044600000000003  0.09415  1.0000
  H   H57       1.0  0.74457  0.9381  0.4380999999999999  1.0000
  H   H58       1.0  0.37071  0.90503  0.40503  1.0000
  H   H59       1.0  0.12195999999999992  0.56184  0.061840000000000006  1.0000
  H   H60       1.0  0.6816599999999999  0.5947300000000002  0.09473  1.0000
  H   H61       1.0  0.6830800000000002  0.06184  0.9383599999999997  1.0000
  H   H62       1.0  0.27535999999999994  0.09554000000000003  0.90585  1.0000
  H   H63       1.0  0.68309  0.43837  0.56184  1.0000
  H   H64       1.0  0.27536  0.40585  0.59554  1.0000
  C   C1        1.0  0.2210999999999998  0.94795  0.6816  1.0000
  C   C2        1.0  0.33275999999999983  0.9607100000000002  0.67697  1.0000
  C   C3        1.0  0.3810600000000003  0.8996600000000002  0.7286999999999998  1.0000
  C   C4        1.0  0.38750000000000007  0.021450000000000007  0.62811  1.0000
  C   C5        1.0  0.49469  0.03086  0.63603  1.0000
  C   C6        1.0  0.8502599999999998  0.5517300000000003  0.81767  1.0000
  C   C7        1.0  0.9696499999999995  0.5393  0.82289  1.0000
  C   C8        1.0  0.008459999999999922  0.6006  0.77152  1.0000
  C   C9        1.0  0.03608999999999992  0.47859000000000007  0.87192  1.0000
  C   C10       1.0  0.16065000000000013  0.46921  0.8640799999999997  1.0000
  C   C11       1.0  0.16861999999999994  0.6818600000000002  0.55177  1.0000
  C   C12       1.0  0.29329999999999984  0.6767300000000003  0.53905  1.0000
  C   C13       1.0  0.2807  0.7283100000000002  0.60003  1.0000
  C   C14       1.0  0.40883  0.6277100000000002  0.4783  1.0000
  C   C15       1.0  0.5255900000000001  0.63553  0.4686399999999999  1.0000
  C   C16       1.0  0.40213000000000004  0.8178800000000003  0.9484699999999998  1.0000
  C   C17       1.0  0.50939  0.82271  0.9607499999999999  1.0000
  C   C18       1.0  0.6094600000000002  0.7708900000000002  0.89972  1.0000
  C   C19       1.0  0.5154400000000001  0.8717  0.02114  1.0000
  C   C20       1.0  0.6307699999999999  0.86372  0.0303  1.0000
  C   C21       1.0  0.7789  0.8184  0.55205  1.0000
  C   C22       1.0  0.6672500000000003  0.82302  0.53929  1.0000
  C   C23       1.0  0.6189499999999997  0.7713000000000002  0.60034  1.0000
  C   C24       1.0  0.61251  0.87189  0.47855  1.0000
  C   C25       1.0  0.5053199999999999  0.8639700000000002  0.46914  1.0000
  C   C26       1.0  0.14974000000000015  0.68233  0.9482699999999997  1.0000
  C   C27       1.0  0.030350000000000123  0.67711  0.9606999999999998  1.0000
  C   C28       1.0  0.9915500000000002  0.7284800000000002  0.89939  1.0000
  C   C29       1.0  0.9639200000000001  0.62808  0.02141  1.0000
  C   C30       1.0  0.8393599999999999  0.6359200000000002  0.030789999999999998  1.0000
  C   C31       1.0  0.8313900000000003  0.9482300000000002  0.8181399999999998  1.0000
  C   C32       1.0  0.7067000000000002  0.96095  0.8232699999999997  1.0000
  C   C33       1.0  0.7193100000000002  0.89996  0.77169  1.0000
  C   C34       1.0  0.5911800000000001  0.0217  0.8722899999999998  1.0000
  C   C35       1.0  0.4744100000000003  0.03136  0.8644699999999997  1.0000
  C   C36       1.0  0.5978800000000004  0.55153  0.6821199999999997  1.0000
  C   C37       1.0  0.49062000000000017  0.53925  0.6772899999999997  1.0000
  C   C38       1.0  0.39055  0.60028  0.72911  1.0000
  C   C39       1.0  0.48455999999999977  0.4788600000000001  0.62829  1.0000
  C   C40       1.0  0.36923  0.46970000000000006  0.63627  1.0000
  C   C41       1.0  0.7789  0.05205000000000001  0.3184  1.0000
  C   C42       1.0  0.6672500000000002  0.03929  0.32302  1.0000
  C   C43       1.0  0.61894  0.10034  0.27129  1.0000
  C   C44       1.0  0.61251  0.97855  0.37189  1.0000
  C   C45       1.0  0.50532  0.9691400000000002  0.36397  1.0000
  C   C46       1.0  0.14974000000000004  0.44827  0.18233  1.0000
  C   C47       1.0  0.030350000000000085  0.4607  0.17711  1.0000
  C   C48       1.0  0.9915500000000002  0.3994  0.22847999999999993  1.0000
  C   C49       1.0  0.9639199999999999  0.52141  0.12808  1.0000
  C   C50       1.0  0.8393600000000001  0.53079  0.13592  1.0000
  C   C51       1.0  0.83139  0.3181400000000001  0.44823  1.0000
  C   C52       1.0  0.7067  0.32327  0.46095  1.0000
  C   C53       1.0  0.7193  0.27169  0.39996  1.0000
  C   C54       1.0  0.59118  0.3722900000000001  0.5217  1.0000
  C   C55       1.0  0.47441000000000005  0.3644700000000001  0.5313599999999998  1.0000
  C   C56       1.0  0.59788  0.18212000000000006  0.051529999999999986  1.0000
  C   C57       1.0  0.4906200000000001  0.17729000000000006  0.03925  1.0000
  C   C58       1.0  0.39055000000000006  0.22911000000000006  0.10028  1.0000
  C   C59       1.0  0.4845600000000002  0.1283  0.97886  1.0000
  C   C60       1.0  0.3692300000000001  0.13628  0.9696899999999998  1.0000
  C   C61       1.0  0.22109999999999996  0.18160000000000007  0.44795  1.0000
  C   C62       1.0  0.33276  0.17698  0.46071  1.0000
  C   C63       1.0  0.3810600000000002  0.22870000000000004  0.3996599999999999  1.0000
  C   C64       1.0  0.3875  0.12811  0.52145  1.0000
  C   C65       1.0  0.49469000000000024  0.13603  0.53086  1.0000
  C   C66       1.0  0.85026  0.31767  0.05173  1.0000
  C   C67       1.0  0.96965  0.32289  0.03929999999999999  1.0000
  C   C68       1.0  0.008459999999999978  0.27152  0.1006  1.0000
  C   C69       1.0  0.03609000000000003  0.37192  0.97859  1.0000
  C   C70       1.0  0.16064999999999996  0.36408  0.96921  1.0000
  C   C71       1.0  0.16861000000000004  0.05177000000000001  0.18186  1.0000
  C   C72       1.0  0.2933  0.039050000000000015  0.17673  1.0000
  C   C73       1.0  0.28070000000000006  0.10004  0.2283  1.0000
  C   C74       1.0  0.40883  0.9783000000000002  0.12771  1.0000
  C   C75       1.0  0.5255900000000001  0.9686400000000002  0.13553  1.0000
  C   C76       1.0  0.4021199999999999  0.4484700000000001  0.31788  1.0000
  C   C77       1.0  0.50939  0.46075  0.3227099999999999  1.0000
  C   C78       1.0  0.6094600000000001  0.39972  0.27089  1.0000
  C   C79       1.0  0.5154400000000001  0.52114  0.3717  1.0000
  C   C80       1.0  0.6307700000000003  0.5303  0.36372  1.0000
  C   C81       1.0  0.336  0.07034  0.57034  1.0000
  C   C82       1.0  0.5470700000000002  0.08783  0.58783  1.0000
  C   C83       1.0  0.9756  0.4296900000000001  0.92969  1.0000
  C   C84       1.0  0.22181000000000003  0.41232000000000013  0.91232  1.0000
  C   C85       1.0  0.4060599999999999  0.57002  0.42956  1.0000
  C   C86       1.0  0.6350599999999998  0.5872000000000003  0.41177  1.0000
  C   C87       1.0  0.4060600000000001  0.92956  0.07002  1.0000
  C   C88       1.0  0.6350600000000002  0.91176  0.0872  1.0000
  C   C89       1.0  0.66401  0.92966  0.42966  1.0000
  C   C90       1.0  0.45294  0.9121700000000003  0.41216999999999987  1.0000
  C   C91       1.0  0.024400000000000054  0.57031  0.07031  1.0000
  C   C92       1.0  0.77819  0.58768  0.08768  1.0000
  C   C93       1.0  0.59394  0.07044  0.92998  1.0000
  C   C94       1.0  0.3649500000000001  0.08823  0.9127899999999998  1.0000
  C   C95       1.0  0.5939399999999999  0.42998  0.57043  1.0000
  C   C96       1.0  0.3649499999999997  0.4128000000000001  0.58823  1.0000
  N   N1        1.0  0.20508  0.88399  0.73166  1.0000
  N   N2        1.0  0.30496999999999985  0.8535800000000002  0.76082  1.0000
  N   N3        1.0  0.8203999999999998  0.6157300000000002  0.76764  1.0000
  N   N4        1.0  0.9186400000000001  0.64649  0.7390599999999998  1.0000
  N   N5        1.0  0.08859999999999986  0.7320700000000002  0.61559  1.0000
  N   N6        1.0  0.15834  0.76085  0.64597  1.0000
  N   N7        1.0  0.43612000000000006  0.7676700000000002  0.88477  1.0000
  N   N8        1.0  0.5652100000000001  0.73859  0.8540999999999997  1.0000
  N   N9        1.0  0.7949300000000006  0.76834  0.61601  1.0000
  N   N10       1.0  0.69504  0.73917  0.64642  1.0000
  N   N11       1.0  0.17961000000000016  0.73235  0.8842599999999998  1.0000
  N   N12       1.0  0.08136999999999994  0.76094  0.8535  1.0000
  N   N13       1.0  0.9114099999999999  0.8844  0.76792  1.0000
  N   N14       1.0  0.8416699999999997  0.8540300000000002  0.73915  1.0000
  N   N15       1.0  0.5638899999999999  0.6152300000000003  0.73233  1.0000
  N   N16       1.0  0.4347900000000002  0.6459  0.7613999999999997  1.0000
  N   N17       1.0  0.79492  0.11601  0.2683399999999999  1.0000
  N   N18       1.0  0.6950400000000001  0.14642  0.23916999999999994  1.0000
  N   N19       1.0  0.17960999999999994  0.3842700000000001  0.23235  1.0000
  N   N20       1.0  0.08137000000000001  0.35351  0.26094  1.0000
  N   N21       1.0  0.9113999999999999  0.26792  0.3844  1.0000
  N   N22       1.0  0.84167  0.23915  0.35403  1.0000
  N   N23       1.0  0.56389  0.23233000000000006  0.11522999999999997  1.0000
  N   N24       1.0  0.4347900000000001  0.26141  0.14589  1.0000
  N   N25       1.0  0.20507999999999987  0.23166000000000006  0.38399  1.0000
  N   N26       1.0  0.30496999999999985  0.2608300000000001  0.35358  1.0000
  N   N27       1.0  0.8204  0.26765  0.11572999999999997  1.0000
  N   N28       1.0  0.91863  0.23906  0.14649  1.0000
  N   N29       1.0  0.08860000000000001  0.1156  0.23207  1.0000
  N   N30       1.0  0.15834000000000006  0.14597  0.26085  1.0000
  N   N31       1.0  0.43611  0.38477000000000006  0.26767  1.0000
  N   N32       1.0  0.56521  0.3541  0.23859  1.0000
