data_image0
_chemical_formula_structural       Cu12H84C132I6N24O24
_chemical_formula_sum              "Cu12 H84 C132 I6 N24 O24"
_cell_length_a       15.24483
_cell_length_b       24.266350000000003
_cell_length_c       24.28449
_cell_angle_alpha    115.73519000000002
_cell_angle_beta     102.01261000000001
_cell_angle_gamma    102.11050000000002

_space_group_name_H-M_alt    "P 1"
_space_group_IT_number       1

loop_
  _space_group_symop_operation_xyz
  'x, y, z'

loop_
  _atom_site_type_symbol
  _atom_site_label
  _atom_site_symmetry_multiplicity
  _atom_site_fract_x
  _atom_site_fract_y
  _atom_site_fract_z
  _atom_site_occupancy
  Cu  Cu1       1.0  0.93512  0.52251  0.01725  1.0000
  Cu  Cu2       1.0  0.54713  0.004909999999999977  0.55216  1.0000
  Cu  Cu3       1.0  0.9177900000000001  0.9827300000000002  0.505  1.0000
  Cu  Cu4       1.0  0.9952099999999999  0.4478  0.45276  1.0000
  Cu  Cu5       1.0  0.41275  0.4946400000000001  0.47733  1.0000
  Cu  Cu6       1.0  0.54285  0.54699  0.99495  1.0000
  Cu  Cu7       1.0  0.06488000000000001  0.4774900000000001  0.98275  1.0000
  Cu  Cu8       1.0  0.4528700000000001  0.9950900000000003  0.4478400000000001  1.0000
  Cu  Cu9       1.0  0.08222000000000003  0.017260000000000053  0.49500000000000005  1.0000
  Cu  Cu10      1.0  0.004800000000000037  0.5522  0.54724  1.0000
  Cu  Cu11      1.0  0.5872599999999999  0.50536  0.52267  1.0000
  Cu  Cu12      1.0  0.4571600000000001  0.45301000000000013  0.005050000000000001  1.0000
  H   H1        1.0  0.81834  0.55438  0.8616500000000001  1.0000
  H   H2        1.0  0.7727600000000001  0.5635700000000001  0.76162  1.0000
  H   H3        1.0  0.9716200000000002  0.4707000000000002  0.6951500000000002  1.0000
  H   H4        1.0  0.01811000000000003  0.4643700000000001  0.7965  1.0000
  H   H5        1.0  0.69119  0.50074  0.64148  1.0000
  H   H6        1.0  0.79077  0.53275  0.50754  1.0000
  H   H7        1.0  0.99066  0.54792  0.66307  1.0000
  H   H8        1.0  0.6850099999999999  0.3418  0.92435  1.0000
  H   H9        1.0  0.5640999999999998  0.23178000000000004  0.8444300000000001  1.0000
  H   H10       1.0  0.78199  0.16864999999999994  0.77371  1.0000
  H   H11       1.0  0.90258  0.27827000000000013  0.8558200000000001  1.0000
  H   H12       1.0  0.5220100000000001  0.10677000000000007  0.81123  1.0000
  H   H13       1.0  0.41400000000000003  0.96683  0.61503  1.0000
  H   H14       1.0  0.64201  0.13046  0.67308  1.0000
  H   H15       1.0  0.95622  0.1389  0.69273  1.0000
  H   H16       1.0  0.011140000000000089  0.23892000000000016  0.8021500000000001  1.0000
  H   H17       1.0  0.27624  0.30519  0.77561  1.0000
  H   H18       1.0  0.22125  0.20378000000000002  0.66772  1.0000
  H   H19       1.0  0.04958000000000006  0.35881000000000013  0.8592200000000001  1.0000
  H   H20       1.0  0.28212999999999994  0.49266000000000004  0.02541  1.0000
  H   H21       1.0  0.32734000000000013  0.3370200000000001  0.88529  1.0000
  H   H22       1.0  0.7601499999999999  0.07593  0.41772  1.0000
  H   H23       1.0  0.71951  0.15559000000000006  0.38710000000000006  1.0000
  H   H24       1.0  0.008670000000000025  0.22605000000000003  0.39514000000000005  1.0000
  H   H25       1.0  0.04635000000000003  0.14398000000000005  0.42307  1.0000
  H   H26       1.0  0.71078  0.18880000000000002  0.29578  1.0000
  H   H27       1.0  0.79861  0.3851000000000001  0.35174000000000005  1.0000
  H   H28       1.0  0.96799  0.32738  0.45772  1.0000
  H   H29       1.0  0.26308  0.30659000000000003  0.4452900000000001  1.0000
  H   H30       1.0  0.20896  0.19736  0.43658  1.0000
  H   H31       1.0  0.5007000000000001  0.22464000000000006  0.52947  1.0000
  H   H32       1.0  0.55302  0.3322900000000001  0.53536  1.0000
  H   H33       1.0  0.19004000000000004  0.14033000000000004  0.49926000000000004  1.0000
  H   H34       1.0  0.25708  0.9741700000000001  0.46705  1.0000
  H   H35       1.0  0.4429  0.11497999999999998  0.45255  1.0000
  H   H36       1.0  0.3432600000000001  0.5822900000000001  0.6584000000000001  1.0000
  H   H37       1.0  0.33228  0.6121300000000002  0.7684  1.0000
  H   H38       1.0  0.6131999999999999  0.6045400000000001  0.8310800000000002  1.0000
  H   H39       1.0  0.6242800000000001  0.5774800000000002  0.7216200000000002  1.0000
  H   H40       1.0  0.4145  0.70375  0.89299  1.0000
  H   H41       1.0  0.44772999999999996  0.6477900000000001  0.03325  1.0000
  H   H42       1.0  0.51123  0.5421000000000001  0.8693700000000001  1.0000
  H   H43       1.0  0.18167  0.4456200000000001  0.13835  1.0000
  H   H44       1.0  0.22724  0.43643  0.23839000000000005  1.0000
  H   H45       1.0  0.028389999999999985  0.5293  0.30485  1.0000
  H   H46       1.0  0.9819  0.53562  0.2035  1.0000
  H   H47       1.0  0.30881  0.4992600000000001  0.35852  1.0000
  H   H48       1.0  0.20924000000000004  0.4672500000000001  0.49246  1.0000
  H   H49       1.0  0.00935000000000001  0.4520800000000001  0.33693  1.0000
  H   H50       1.0  0.31498  0.6582  0.07565  1.0000
  H   H51       1.0  0.4359  0.76822  0.15557  1.0000
  H   H52       1.0  0.21801  0.8313500000000001  0.2263  1.0000
  H   H53       1.0  0.09742000000000006  0.7217300000000002  0.14419  1.0000
  H   H54       1.0  0.47799  0.8932200000000001  0.18878000000000003  1.0000
  H   H55       1.0  0.586  0.033170000000000026  0.38497  1.0000
  H   H56       1.0  0.3580000000000001  0.8695300000000002  0.32693  1.0000
  H   H57       1.0  0.043779999999999986  0.86109  0.30727  1.0000
  H   H58       1.0  0.98887  0.76108  0.19785000000000003  1.0000
  H   H59       1.0  0.72377  0.6948100000000003  0.22439000000000003  1.0000
  H   H60       1.0  0.77875  0.79622  0.33228  1.0000
  H   H61       1.0  0.95042  0.64119  0.14078000000000002  1.0000
  H   H62       1.0  0.7178800000000001  0.5073400000000001  0.9745900000000002  1.0000
  H   H63       1.0  0.67267  0.66298  0.11471  1.0000
  H   H64       1.0  0.23985000000000004  0.92407  0.5822800000000001  1.0000
  H   H65       1.0  0.28050000000000014  0.8444100000000002  0.6129000000000001  1.0000
  H   H66       1.0  0.9913399999999999  0.7739500000000001  0.60486  1.0000
  H   H67       1.0  0.9536500000000001  0.8560200000000001  0.57693  1.0000
  H   H68       1.0  0.2892300000000001  0.8112000000000003  0.70422  1.0000
  H   H69       1.0  0.20139  0.6149  0.64827  1.0000
  H   H70       1.0  0.03202000000000002  0.67261  0.54229  1.0000
  H   H71       1.0  0.73693  0.69341  0.55472  1.0000
  H   H72       1.0  0.7910500000000003  0.8026400000000002  0.56342  1.0000
  H   H73       1.0  0.49930000000000013  0.7753600000000002  0.47053000000000006  1.0000
  H   H74       1.0  0.44698  0.66771  0.46464  1.0000
  H   H75       1.0  0.8099700000000001  0.8596700000000002  0.50075  1.0000
  H   H76       1.0  0.74293  0.025829999999999995  0.53295  1.0000
  H   H77       1.0  0.5571099999999998  0.88501  0.54745  1.0000
  H   H78       1.0  0.65674  0.41771  0.34161  1.0000
  H   H79       1.0  0.66772  0.38787000000000005  0.23160000000000003  1.0000
  H   H80       1.0  0.3868  0.39546000000000003  0.16893  1.0000
  H   H81       1.0  0.37572  0.4225200000000001  0.27838  1.0000
  H   H82       1.0  0.58551  0.29625  0.10701  1.0000
  H   H83       1.0  0.55227  0.35221  0.96676  1.0000
  H   H84       1.0  0.48878000000000005  0.4579  0.13063  1.0000
  C   C1        1.0  0.9492  0.5056  0.89567  1.0000
  C   C2        1.0  0.9206  0.5090000000000001  0.8347800000000001  1.0000
  C   C3        1.0  0.85064  0.5362300000000001  0.82449  1.0000
  C   C4        1.0  0.82505  0.5406200000000001  0.76843  1.0000
  C   C5        1.0  0.8690400000000003  0.51762  0.7216  1.0000
  C   C6        1.0  0.9386300000000001  0.48974000000000006  0.73186  1.0000
  C   C7        1.0  0.96426  0.4856100000000001  0.78802  1.0000
  C   C8        1.0  0.84503  0.52309  0.66265  1.0000
  C   C9        1.0  0.75233  0.51288  0.62712  1.0000
  C   C10       1.0  0.80624  0.53092  0.55247  1.0000
  C   C11       1.0  0.91636  0.53855  0.63841  1.0000
  C   C12       1.0  0.87317  0.3842900000000001  0.93763  1.0000
  C   C13       1.0  0.80089  0.31709000000000004  0.89403  1.0000
  C   C14       1.0  0.70564  0.30333  0.89167  1.0000
  C   C15       1.0  0.6382699999999999  0.24176  0.84691  1.0000
  C   C16       1.0  0.6646100000000003  0.1932600000000001  0.8027000000000001  1.0000
  C   C17       1.0  0.76074  0.20667000000000005  0.80652  1.0000
  C   C18       1.0  0.82806  0.26759000000000016  0.8521500000000001  1.0000
  C   C19       1.0  0.5935100000000001  0.12966  0.7512600000000001  1.0000
  C   C20       1.0  0.52442  0.09119999999999995  0.76228  1.0000
  C   C21       1.0  0.4654000000000001  0.01326000000000006  0.6550000000000001  1.0000
  C   C22       1.0  0.59288  0.10383000000000003  0.68716  1.0000
  C   C23       1.0  0.05387999999999999  0.10494  0.6096  1.0000
  C   C24       1.0  0.08565  0.16560000000000005  0.6741  1.0000
  C   C25       1.0  0.025829999999999992  0.17585  0.71165  1.0000
  C   C26       1.0  0.056480000000000086  0.2318600000000002  0.7722400000000001  1.0000
  C   C27       1.0  0.14736000000000002  0.2786000000000001  0.79615  1.0000
  C   C28       1.0  0.20665000000000003  0.26842000000000005  0.7579600000000001  1.0000
  C   C29       1.0  0.17603000000000002  0.21234000000000003  0.6975700000000001  1.0000
  C   C30       1.0  0.18225  0.33751000000000003  0.8606200000000002  1.0000
  C   C31       1.0  0.12491  0.3730400000000001  0.88582  1.0000
  C   C32       1.0  0.25305000000000005  0.4476900000000001  0.97866  1.0000
  C   C33       1.0  0.27762000000000014  0.3617500000000002  0.9004300000000002  1.0000
  C   C34       1.0  0.93396  0.06180999999999999  0.44636  1.0000
  C   C35       1.0  0.90615  0.10580000000000006  0.42307  1.0000
  C   C36       1.0  0.81343  0.10836000000000005  0.41167  1.0000
  C   C37       1.0  0.79121  0.15315000000000006  0.39476  1.0000
  C   C38       1.0  0.8619400000000002  0.19731000000000004  0.3905  1.0000
  C   C39       1.0  0.95423  0.19339000000000003  0.40029  1.0000
  C   C40       1.0  0.97553  0.14769  0.41568  1.0000
  C   C41       1.0  0.84224  0.24881  0.37838  1.0000
  C   C42       1.0  0.76212  0.23777000000000004  0.32904  1.0000
  C   C43       1.0  0.8100200000000001  0.3451500000000001  0.35831  1.0000
  C   C44       1.0  0.90514  0.31307  0.41679  1.0000
  C   C45       1.0  0.44303000000000003  0.3901100000000001  0.49445  1.0000
  C   C46       1.0  0.41088  0.32561  0.49077  1.0000
  C   C47       1.0  0.31376  0.28782  0.46353  1.0000
  C   C48       1.0  0.2841000000000001  0.22736000000000006  0.4593400000000001  1.0000
  C   C49       1.0  0.35123  0.20373000000000008  0.48247000000000007  1.0000
  C   C50       1.0  0.44857  0.24209000000000003  0.51025  1.0000
  C   C51       1.0  0.47804  0.30239  0.5142  1.0000
  C   C52       1.0  0.32180000000000003  0.13929000000000008  0.47709000000000007  1.0000
  C   C53       1.0  0.23904000000000003  0.11383000000000001  0.48707  1.0000
  C   C54       1.0  0.27473  0.021020000000000007  0.46896  1.0000
  C   C55       1.0  0.37775  0.09964000000000006  0.46177  1.0000
  C   C56       1.0  0.48911  0.5538100000000001  0.61595  1.0000
  C   C57       1.0  0.48403000000000007  0.57721  0.68311  1.0000
  C   C58       1.0  0.40243  0.58834  0.69688  1.0000
  C   C59       1.0  0.39663  0.6049799999999999  0.75842  1.0000
  C   C60       1.0  0.47143  0.60929  0.80682  1.0000
  C   C61       1.0  0.55412  0.59973  0.79331  1.0000
  C   C62       1.0  0.56057  0.5846500000000001  0.73244  1.0000
  C   C63       1.0  0.46376000000000006  0.6212  0.87032  1.0000
  C   C64       1.0  0.43285  0.67052  0.90868  1.0000
  C   C65       1.0  0.4523  0.64128  0.98672  1.0000
  C   C66       1.0  0.4889100000000002  0.5828700000000002  0.8960900000000002  1.0000
  C   C67       1.0  0.050810000000000036  0.49439  0.10433  1.0000
  C   C68       1.0  0.07941  0.491  0.16522  1.0000
  C   C69       1.0  0.14937000000000003  0.46376000000000006  0.17551000000000003  1.0000
  C   C70       1.0  0.17496  0.45938  0.23157000000000003  1.0000
  C   C71       1.0  0.13096000000000005  0.48237  0.2784  1.0000
  C   C72       1.0  0.06138  0.51026  0.26815  1.0000
  C   C73       1.0  0.03573999999999998  0.51439  0.21198000000000003  1.0000
  C   C74       1.0  0.15497000000000002  0.4769000000000001  0.33735  1.0000
  C   C75       1.0  0.24767  0.48712  0.37288  1.0000
  C   C76       1.0  0.19376000000000007  0.4690800000000001  0.44753  1.0000
  C   C77       1.0  0.08365000000000004  0.46145000000000014  0.3616  1.0000
  C   C78       1.0  0.12683000000000003  0.6157100000000001  0.062380000000000005  1.0000
  C   C79       1.0  0.19910000000000005  0.6829100000000002  0.10597  1.0000
  C   C80       1.0  0.29436  0.69667  0.10833  1.0000
  C   C81       1.0  0.36172000000000004  0.7582300000000002  0.1531  1.0000
  C   C82       1.0  0.3354  0.80674  0.19731000000000004  1.0000
  C   C83       1.0  0.23926000000000006  0.7933300000000001  0.19348  1.0000
  C   C84       1.0  0.17194  0.7324100000000001  0.14786  1.0000
  C   C85       1.0  0.4064900000000001  0.8703400000000001  0.24874  1.0000
  C   C86       1.0  0.47559  0.90879  0.23773000000000002  1.0000
  C   C87       1.0  0.5346000000000001  0.9867300000000001  0.34501  1.0000
  C   C88       1.0  0.40712999999999994  0.8961700000000001  0.31284  1.0000
  C   C89       1.0  0.94613  0.8950600000000002  0.39041  1.0000
  C   C90       1.0  0.9143500000000001  0.8344000000000001  0.3259  1.0000
  C   C91       1.0  0.9741700000000001  0.8241400000000004  0.28835000000000005  1.0000
  C   C92       1.0  0.94352  0.76814  0.22777000000000006  1.0000
  C   C93       1.0  0.85265  0.72139  0.20385000000000003  1.0000
  C   C94       1.0  0.79335  0.73157  0.24204  1.0000
  C   C95       1.0  0.82397  0.78766  0.30243  1.0000
  C   C96       1.0  0.81776  0.66248  0.13938  1.0000
  C   C97       1.0  0.87509  0.62696  0.11418000000000002  1.0000
  C   C98       1.0  0.7469500000000001  0.5523  0.02135  1.0000
  C   C99       1.0  0.72238  0.63825  0.09957  1.0000
  C   C100      1.0  0.06605000000000012  0.9381900000000001  0.55364  1.0000
  C   C101      1.0  0.09386000000000014  0.8941900000000003  0.57693  1.0000
  C   C102      1.0  0.18657000000000012  0.8916400000000002  0.58834  1.0000
  C   C103      1.0  0.20880000000000004  0.8468500000000001  0.60524  1.0000
  C   C104      1.0  0.13805999999999996  0.80269  0.6095  1.0000
  C   C105      1.0  0.04577000000000005  0.8066100000000002  0.59972  1.0000
  C   C106      1.0  0.024479999999999908  0.85231  0.58432  1.0000
  C   C107      1.0  0.15776  0.75119  0.62162  1.0000
  C   C108      1.0  0.23789000000000005  0.76223  0.6709600000000001  1.0000
  C   C109      1.0  0.18998000000000007  0.65485  0.6417  1.0000
  C   C110      1.0  0.09487000000000002  0.68692  0.5832100000000001  1.0000
  C   C111      1.0  0.55697  0.60988  0.50555  1.0000
  C   C112      1.0  0.58912  0.67439  0.50923  1.0000
  C   C113      1.0  0.68624  0.7121800000000001  0.53647  1.0000
  C   C114      1.0  0.7159000000000001  0.7726400000000001  0.54066  1.0000
  C   C115      1.0  0.64878  0.7962600000000002  0.51754  1.0000
  C   C116      1.0  0.55144  0.7579100000000002  0.4897500000000001  1.0000
  C   C117      1.0  0.52196  0.69761  0.48580000000000007  1.0000
  C   C118      1.0  0.67821  0.86071  0.52291  1.0000
  C   C119      1.0  0.76097  0.88617  0.51293  1.0000
  C   C120      1.0  0.72527  0.97898  0.53104  1.0000
  C   C121      1.0  0.6222599999999999  0.9003600000000002  0.53824  1.0000
  C   C122      1.0  0.51089  0.44619  0.38406  1.0000
  C   C123      1.0  0.51598  0.4227900000000001  0.31689  1.0000
  C   C124      1.0  0.59758  0.41166000000000014  0.30312000000000006  1.0000
  C   C125      1.0  0.60338  0.3950200000000001  0.24159  1.0000
  C   C126      1.0  0.52858  0.39071000000000006  0.19318000000000002  1.0000
  C   C127      1.0  0.44588  0.4002700000000001  0.20669000000000004  1.0000
  C   C128      1.0  0.43942999999999993  0.41535  0.26757  1.0000
  C   C129      1.0  0.53624  0.3788000000000001  0.12969  1.0000
  C   C130      1.0  0.56716  0.32948000000000005  0.09132000000000001  1.0000
  C   C131      1.0  0.54771  0.35872  0.01328  1.0000
  C   C132      1.0  0.51109  0.41713  0.10392  1.0000
  I   I1        1.0  0.61315  0.10259  0.5304  1.0000
  I   I2        1.0  0.08196000000000005  0.4693500000000001  0.57185  1.0000
  I   I3        1.0  0.5113799999999997  0.42763  0.89803  1.0000
  I   I4        1.0  0.38685  0.8974100000000002  0.4696000000000001  1.0000
  I   I5        1.0  0.91804  0.53064  0.42815  1.0000
  I   I6        1.0  0.48863000000000006  0.57237  0.10197  1.0000
  N   N1        1.0  0.7336999999999999  0.51711  0.57268  1.0000
  N   N2        1.0  0.8978000000000002  0.5419200000000001  0.58342  1.0000
  N   N3        1.0  0.45985  0.03361999999999993  0.7144  1.0000
  N   N4        1.0  0.53029  0.045290000000000025  0.63896  1.0000
  N   N5        1.0  0.1604700000000001  0.42739000000000005  0.9445600000000001  1.0000
  N   N6        1.0  0.31385  0.41683  0.95875  1.0000
  N   N7        1.0  0.74526  0.28565  0.31935  1.0000
  N   N8        1.0  0.89067  0.3612900000000001  0.40646  1.0000
  N   N9        1.0  0.21590999999999996  0.05499  0.48256  1.0000
  N   N10       1.0  0.3556500000000001  0.04119000000000004  0.45832000000000006  1.0000
  N   N11       1.0  0.42605  0.68022  0.96631  1.0000
  N   N12       1.0  0.48499999999999993  0.59317  0.95463  1.0000
  N   N13       1.0  0.26631  0.4828900000000001  0.42733  1.0000
  N   N14       1.0  0.10220999999999998  0.45808000000000004  0.41659  1.0000
  N   N15       1.0  0.54016  0.96637  0.2856  1.0000
  N   N16       1.0  0.46971  0.95471  0.3610400000000001  1.0000
  N   N17       1.0  0.83954  0.5726100000000001  0.05544  1.0000
  N   N18       1.0  0.68615  0.58317  0.04125  1.0000
  N   N19       1.0  0.25475000000000003  0.7143500000000002  0.68065  1.0000
  N   N20       1.0  0.10933999999999999  0.63871  0.59354  1.0000
  N   N21       1.0  0.7841000000000001  0.9450100000000005  0.51745  1.0000
  N   N22       1.0  0.64436  0.95881  0.54168  1.0000
  N   N23       1.0  0.57396  0.31978  0.03369  1.0000
  N   N24       1.0  0.51501  0.40682  0.04538  1.0000
  O   O1        1.0  0.90282  0.5243600000000002  0.93444  1.0000
  O   O2        1.0  0.017800000000000017  0.48424  0.90373  1.0000
  O   O3        1.0  0.84405  0.43003000000000013  0.9693600000000001  1.0000
  O   O4        1.0  0.9587700000000001  0.39063000000000014  0.9381600000000002  1.0000
  O   O5        1.0  0.9685400000000001  0.06631000000000006  0.589  1.0000
  O   O6        1.0  0.11501  0.09685000000000002  0.5806  1.0000
  O   O7        1.0  0.87233  0.02957999999999999  0.45948  1.0000
  O   O8        1.0  0.019159999999999996  0.06140000000000004  0.45271  1.0000
  O   O9        1.0  0.37808  0.40991  0.47514000000000006  1.0000
  O   O10       1.0  0.53301  0.41993  0.51661  1.0000
  O   O11       1.0  0.4141400000000002  0.5394000000000002  0.5701800000000001  1.0000
  O   O12       1.0  0.5687  0.54854  0.60981  1.0000
  O   O13       1.0  0.09719000000000003  0.47563000000000005  0.06556  1.0000
  O   O14       1.0  0.98221  0.51575  0.09627000000000001  1.0000
  O   O15       1.0  0.15594  0.56997  0.03064  1.0000
  O   O16       1.0  0.041219999999999986  0.60937  0.06184  1.0000
  O   O17       1.0  0.0314699999999999  0.93369  0.41101  1.0000
  O   O18       1.0  0.8849900000000002  0.9031400000000003  0.41940000000000005  1.0000
  O   O19       1.0  0.12767  0.97042  0.54052  1.0000
  O   O20       1.0  0.9808500000000001  0.93859  0.5473  1.0000
  O   O21       1.0  0.62192  0.59009  0.52486  1.0000
  O   O22       1.0  0.467  0.5800700000000001  0.48340000000000005  1.0000
  O   O23       1.0  0.5858699999999999  0.4606000000000001  0.42982  1.0000
  O   O24       1.0  0.43130000000000007  0.4514600000000001  0.39019  1.0000
