data_image0
_chemical_formula_structural       Li4H196C120O32
_chemical_formula_sum              "Li4 H196 C120 O32"
_cell_length_a       8.29427
_cell_length_b       12.43651
_cell_length_c       33.223009999999995
_cell_angle_alpha    89.92185
_cell_angle_beta     90.00452
_cell_angle_gamma    90.03318000000002

_space_group_name_H-M_alt    "P 1"
_space_group_IT_number       1

loop_
  _space_group_symop_operation_xyz
  'x, y, z'

loop_
  _atom_site_type_symbol
  _atom_site_label
  _atom_site_symmetry_multiplicity
  _atom_site_fract_x
  _atom_site_fract_y
  _atom_site_fract_z
  _atom_site_occupancy
  Li  Li1       1.0  0.014439999999999998  0.83717  0.03168  1.0000
  Li  Li2       1.0  0.48184  0.16345999999999997  0.53282  1.0000
  Li  Li3       1.0  0.9836600000000001  0.33523999999999987  0.46885  1.0000
  Li  Li4       1.0  0.51458  0.66535  0.96835  1.0000
  H   H1        1.0  0.30964  0.5161  0.20614  1.0000
  H   H2        1.0  0.43735  0.42326  0.15154  1.0000
  H   H3        1.0  0.50524  0.54259  0.12897999999999998  1.0000
  H   H4        1.0  0.68556  0.4108  0.18679  1.0000
  H   H5        1.0  0.74651  0.5347  0.16609  1.0000
  H   H6        1.0  0.54245  0.49455  0.24068999999999993  1.0000
  H   H7        1.0  0.8186900000000003  0.65218  0.23078  1.0000
  H   H8        1.0  0.79631  0.42932  0.26907  1.0000
  H   H9        1.0  0.9224600000000002  0.46744  0.22914  1.0000
  H   H10       1.0  0.08474  0.58382  0.27257  1.0000
  H   H11       1.0  0.07126  0.45637  0.2951999999999999  1.0000
  H   H12       1.0  0.03459  0.61254  0.34293  1.0000
  H   H13       1.0  0.7473  0.45793999999999996  0.336  1.0000
  H   H14       1.0  0.9313400000000002  0.43145  0.35993  1.0000
  H   H15       1.0  0.8781  0.57559  0.40961  1.0000
  H   H16       1.0  0.6158800000000001  0.67362  0.4084299999999999  1.0000
  H   H17       1.0  0.5582900000000002  0.6043199999999999  0.3646199999999999  1.0000
  H   H18       1.0  0.85513  0.7517799999999999  0.37363  1.0000
  H   H19       1.0  0.67538  0.7902099999999999  0.35018  1.0000
  H   H20       1.0  0.35278  0.62287  0.2654899999999999  1.0000
  H   H21       1.0  0.33565  0.75244  0.24449  1.0000
  H   H22       1.0  0.61441  0.798  0.26395  1.0000
  H   H23       1.0  0.50269  0.7555699999999999  0.30579  1.0000
  H   H24       1.0  0.61973  0.57468  0.30207  1.0000
  H   H25       1.0  0.29225  0.66691  0.13418  1.0000
  H   H26       1.0  0.20927000000000004  0.4763499999999999  0.12428  1.0000
  H   H27       1.0  0.07615  0.48565999999999987  0.16554  1.0000
  H   H28       1.0  0.93266  0.49798  0.10058  1.0000
  H   H29       1.0  0.9077200000000002  0.61935  0.12704  1.0000
  H   H30       1.0  0.0305  0.73289  0.16435  1.0000
  H   H31       1.0  0.19774000000000003  0.77083  0.19378  1.0000
  H   H32       1.0  0.07502000000000002  0.66137  0.20917  1.0000
  H   H33       1.0  0.97623  0.7469599999999998  0.26784  1.0000
  H   H34       1.0  0.02067  0.7920999999999999  0.3171  1.0000
  H   H35       1.0  0.84815  0.8409399999999999  0.29172  1.0000
  H   H36       1.0  0.60554  0.69992  0.15513  1.0000
  H   H37       1.0  0.66306  0.76985  0.19934  1.0000
  H   H38       1.0  0.47106  0.7922599999999999  0.17766  1.0000
  H   H39       1.0  0.64296  0.55844  0.4591  1.0000
  H   H40       1.0  0.54254  0.40918999999999994  0.50196  1.0000
  H   H41       1.0  0.63994  0.27185  0.42947  1.0000
  H   H42       1.0  0.3268  0.32075  0.4744899999999999  1.0000
  H   H43       1.0  0.44278  0.37439999999999996  0.38902  1.0000
  H   H44       1.0  0.78842  0.36722999999999995  0.52053  1.0000
  H   H45       1.0  0.68343  0.15043  0.46941  1.0000
  H   H46       1.0  0.20619  0.20966  0.42886  1.0000
  H   H47       1.0  0.20404  0.49066999999999994  0.38505  1.0000
  H   H48       1.0  0.14338  0.35413  0.39237  1.0000
  H   H49       1.0  0.17969  0.4981999999999999  0.4576  1.0000
  H   H50       1.0  0.18947  0.48434  0.70612  1.0000
  H   H51       1.0  0.06105  0.57726  0.65153  1.0000
  H   H52       1.0  0.9933500000000001  0.45787999999999995  0.62905  1.0000
  H   H53       1.0  0.81315  0.58928  0.68683  1.0000
  H   H54       1.0  0.75241  0.4653  0.66628  1.0000
  H   H55       1.0  0.95743  0.50568  0.74067  1.0000
  H   H56       1.0  0.6810000000000003  0.34811  0.73123  1.0000
  H   H57       1.0  0.7043900000000002  0.57101  0.76923  1.0000
  H   H58       1.0  0.57763  0.5329899999999999  0.72944  1.0000
  H   H59       1.0  0.4156400000000001  0.41683  0.77306  1.0000
  H   H60       1.0  0.42959  0.54424  0.79557  1.0000
  H   H61       1.0  0.4661100000000001  0.3876999999999999  0.84334  1.0000
  H   H62       1.0  0.75328  0.54242  0.83657  1.0000
  H   H63       1.0  0.56898  0.56859  0.8604099999999998  1.0000
  H   H64       1.0  0.62182  0.42366999999999994  0.90999  1.0000
  H   H65       1.0  0.8849  0.32635999999999993  0.90889  1.0000
  H   H66       1.0  0.9421400000000002  0.39624  0.86511  1.0000
  H   H67       1.0  0.64604  0.24804999999999994  0.87405  1.0000
  H   H68       1.0  0.82595  0.21023  0.85058  1.0000
  H   H69       1.0  0.14757  0.3772  0.76549  1.0000
  H   H70       1.0  0.16405  0.24761999999999995  0.74458  1.0000
  H   H71       1.0  0.88543  0.20239999999999994  0.7643099999999998  1.0000
  H   H72       1.0  0.9978900000000002  0.24455  0.80603  1.0000
  H   H73       1.0  0.88102  0.4256699999999999  0.80226  1.0000
  H   H74       1.0  0.20688  0.33407  0.63414  1.0000
  H   H75       1.0  0.28793  0.52509  0.62423  1.0000
  H   H76       1.0  0.42144  0.51603  0.66537  1.0000
  H   H77       1.0  0.5644000000000002  0.50531  0.60043  1.0000
  H   H78       1.0  0.59111  0.38381  0.62689  1.0000
  H   H79       1.0  0.46929  0.26859  0.6640599999999999  1.0000
  H   H80       1.0  0.3027  0.23013999999999998  0.6936899999999998  1.0000
  H   H81       1.0  0.4253200000000001  0.33974  0.70894  1.0000
  H   H82       1.0  0.5238700000000002  0.25383  0.76839  1.0000
  H   H83       1.0  0.48006  0.20831  0.81769  1.0000
  H   H84       1.0  0.65225  0.15966  0.7921699999999999  1.0000
  H   H85       1.0  0.89374  0.30016  0.65533  1.0000
  H   H86       1.0  0.83646  0.23035  0.69966  1.0000
  H   H87       1.0  0.02836  0.20795  0.67796  1.0000
  H   H88       1.0  0.8556400000000002  0.4411399999999999  0.95991  1.0000
  H   H89       1.0  0.9541200000000001  0.59225  0.00248  1.0000
  H   H90       1.0  0.8567600000000002  0.72627  0.92904  1.0000
  H   H91       1.0  0.17068000000000005  0.6816099999999998  0.97429  1.0000
  H   H92       1.0  0.05437  0.62385  0.8893  1.0000
  H   H93       1.0  0.7072200000000001  0.6349099999999999  0.0205  1.0000
  H   H94       1.0  0.8112300000000002  0.8497  0.9680799999999999  1.0000
  H   H95       1.0  0.28856  0.7908599999999998  0.92803  1.0000
  H   H96       1.0  0.2929  0.50885  0.88518  1.0000
  H   H97       1.0  0.3531300000000001  0.64556  0.89204  1.0000
  H   H98       1.0  0.32084  0.50265  0.95783  1.0000
  H   H99       1.0  0.68954  0.01574  0.29401  1.0000
  H   H100      1.0  0.56078  0.9222999999999999  0.34835  1.0000
  H   H101      1.0  0.49355999999999994  0.04136  0.3711099999999999  1.0000
  H   H102      1.0  0.31224  0.9108199999999997  0.31328999999999996  1.0000
  H   H103      1.0  0.25233  0.03491  0.33388  1.0000
  H   H104      1.0  0.4570200000000001  0.9943199999999998  0.25944  1.0000
  H   H105      1.0  0.18071  0.15177  0.26897  1.0000
  H   H106      1.0  0.20457  0.9293799999999999  0.23059999999999994  1.0000
  H   H107      1.0  0.07774000000000003  0.9665499999999998  0.27048  1.0000
  H   H108      1.0  0.91526  0.08295  0.22709  1.0000
  H   H109      1.0  0.9297800000000003  0.9559  0.20428999999999997  1.0000
  H   H110      1.0  0.9656400000000002  0.11334999999999999  0.15688  1.0000
  H   H111      1.0  0.25307000000000013  0.95893  0.16333  1.0000
  H   H112      1.0  0.06884  0.9328699999999999  0.13942999999999997  1.0000
  H   H113      1.0  0.12149  0.07844  0.09011  1.0000
  H   H114      1.0  0.38424  0.17619  0.09138  1.0000
  H   H115      1.0  0.44182  0.10582999999999998  0.13502  1.0000
  H   H116      1.0  0.14533000000000004  0.25363  0.12641  1.0000
  H   H117      1.0  0.32518  0.29142  0.14995  1.0000
  H   H118      1.0  0.6471800000000002  0.12282999999999998  0.23462  1.0000
  H   H119      1.0  0.66437  0.25229  0.25559  1.0000
  H   H120      1.0  0.38588  0.29798  0.23594  1.0000
  H   H121      1.0  0.49796000000000007  0.2558  0.19418  1.0000
  H   H122      1.0  0.38039  0.07499  0.19779  1.0000
  H   H123      1.0  0.70614  0.1664  0.3659099999999999  1.0000
  H   H124      1.0  0.78683  0.9750099999999999  0.37593  1.0000
  H   H125      1.0  0.92222  0.98477  0.33519  1.0000
  H   H126      1.0  0.06239000000000001  0.99596  0.40052  1.0000
  H   H127      1.0  0.08906  0.11764999999999998  0.37424  1.0000
  H   H128      1.0  0.96951  0.2312  0.33597  1.0000
  H   H129      1.0  0.80306  0.26981  0.30635  1.0000
  H   H130      1.0  0.9248  0.15983  0.29118  1.0000
  H   H131      1.0  0.02355  0.24632  0.23207  1.0000
  H   H132      1.0  0.9796699999999999  0.29252  0.18288  1.0000
  H   H133      1.0  0.15194000000000005  0.34092  0.20847  1.0000
  H   H134      1.0  0.39368  0.19937  0.3448  1.0000
  H   H135      1.0  0.33665  0.26961  0.30057  1.0000
  H   H136      1.0  0.52861  0.29181999999999997  0.32231  1.0000
  H   H137      1.0  0.35565  0.06146999999999998  0.04006  1.0000
  H   H138      1.0  0.45431  0.9103099999999998  0.9975199999999999  1.0000
  H   H139      1.0  0.35592000000000007  0.77639  0.07093  1.0000
  H   H140      1.0  0.67032  0.8208499999999999  0.02568  1.0000
  H   H141      1.0  0.55433  0.8787899999999998  0.11075  1.0000
  H   H142      1.0  0.20714  0.8676  0.9794799999999999  1.0000
  H   H143      1.0  0.3108100000000001  0.65301  0.03184  1.0000
  H   H144      1.0  0.78796  0.7117599999999998  0.07204  1.0000
  H   H145      1.0  0.7926000000000001  0.9940199999999998  0.11481  1.0000
  H   H146      1.0  0.85299  0.8573199999999997  0.10805  1.0000
  H   H147      1.0  0.82091  0.9997699999999999  0.0421  1.0000
  H   H148      1.0  0.8102000000000003  0.9842299999999999  0.79359  1.0000
  H   H149      1.0  0.93794  0.07763  0.84805  1.0000
  H   H150      1.0  0.00525  0.95851  0.87087  1.0000
  H   H151      1.0  0.18653000000000006  0.08943  0.81297  1.0000
  H   H152      1.0  0.24674  0.96559  0.8338199999999998  1.0000
  H   H153      1.0  0.04305  0.005409999999999998  0.75914  1.0000
  H   H154      1.0  0.31904000000000005  0.84788  0.7692899999999998  1.0000
  H   H155      1.0  0.29661  0.07031  0.73067  1.0000
  H   H156      1.0  0.42276  0.03278  0.77067  1.0000
  H   H157      1.0  0.58518  0.91616  0.72743  1.0000
  H   H158      1.0  0.57151  0.043279999999999985  0.7045699999999999  1.0000
  H   H159      1.0  0.5351200000000002  0.8864199999999998  0.65712  1.0000
  H   H160      1.0  0.24741  0.04055999999999999  0.6638  1.0000
  H   H161      1.0  0.43124  0.06718999999999999  0.63982  1.0000
  H   H162      1.0  0.37824000000000013  0.9225  0.59031  1.0000
  H   H163      1.0  0.11646  0.82396  0.5916799999999998  1.0000
  H   H164      1.0  0.05867  0.89358  0.63541  1.0000
  H   H165      1.0  0.35588  0.74657  0.62666  1.0000
  H   H166      1.0  0.17627  0.70811  0.65019  1.0000
  H   H167      1.0  0.8532500000000002  0.8770199999999998  0.73442  1.0000
  H   H168      1.0  0.8355300000000002  0.7476299999999998  0.75556  1.0000
  H   H169      1.0  0.11419000000000003  0.70166  0.7362  1.0000
  H   H170      1.0  0.0028200000000000005  0.74394  0.69429  1.0000
  H   H171      1.0  0.12042000000000001  0.92462  0.6978499999999999  1.0000
  H   H172      1.0  0.7922  0.83429  0.86579  1.0000
  H   H173      1.0  0.71002  0.02542  0.8751299999999999  1.0000
  H   H174      1.0  0.5763  0.015  0.83403  1.0000
  H   H175      1.0  0.43405  0.00429  0.8992  1.0000
  H   H176      1.0  0.4083400000000001  0.88245  0.87314  1.0000
  H   H177      1.0  0.53023  0.7681699999999999  0.8357  1.0000
  H   H178      1.0  0.69745  0.72965  0.80639  1.0000
  H   H179      1.0  0.57526  0.8389999999999997  0.7907399999999998  1.0000
  H   H180      1.0  0.47672  0.7530099999999998  0.73247  1.0000
  H   H181      1.0  0.521  0.7069899999999999  0.68333  1.0000
  H   H182      1.0  0.34844  0.6586  0.70884  1.0000
  H   H183      1.0  0.10559  0.80065  0.84489  1.0000
  H   H184      1.0  0.16280000000000006  0.7303  0.80076  1.0000
  H   H185      1.0  0.9707400000000002  0.70821  0.8224599999999997  1.0000
  H   H186      1.0  0.14266  0.9404999999999998  0.54056  1.0000
  H   H187      1.0  0.04158000000000001  0.09247999999999999  0.49871  1.0000
  H   H188      1.0  0.14312  0.22589999999999993  0.57192  1.0000
  H   H189      1.0  0.82699  0.18175  0.52743  1.0000
  H   H190      1.0  0.9431700000000001  0.12005999999999999  0.61212  1.0000
  H   H191      1.0  0.28937  0.13284  0.48023  1.0000
  H   H192      1.0  0.18517000000000006  0.34965  0.53223  1.0000
  H   H193      1.0  0.7109500000000002  0.28908  0.57398  1.0000
  H   H194      1.0  0.70404  0.00498  0.61525  1.0000
  H   H195      1.0  0.6440400000000001  0.14188999999999996  0.60856  1.0000
  H   H196      1.0  0.6798  0.0007500000000000002  0.54254  1.0000
  C   C1        1.0  0.3695600000000001  0.57048  0.18450999999999998  1.0000
  C   C2        1.0  0.48734  0.50275  0.15818  1.0000
  C   C3        1.0  0.6476300000000003  0.4943699999999999  0.18202  1.0000
  C   C4        1.0  0.61085  0.55186  0.22181  1.0000
  C   C5        1.0  0.75191  0.5902599999999999  0.2476  1.0000
  C   C6        1.0  0.86746  0.49703  0.25711  1.0000
  C   C7        1.0  4.9999999999999996e-05  0.52791  0.28710999999999987  1.0000
  C   C8        1.0  0.93233  0.58017  0.3255  1.0000
  C   C9        1.0  0.84713  0.4963799999999999  0.35228  1.0000
  C   C10       1.0  0.77885  0.5446  0.3908099999999999  1.0000
  C   C11       1.0  0.66307  0.63632  0.3809  1.0000
  C   C12       1.0  0.75332  0.72059  0.35584  1.0000
  C   C13       1.0  0.82132  0.67776  0.31563  1.0000
  C   C14       1.0  0.42096000000000006  0.68652  0.24985  1.0000
  C   C15       1.0  0.5569500000000002  0.7271199999999998  0.27757999999999994  1.0000
  C   C16       1.0  0.68445  0.64042  0.28673  1.0000
  C   C17       1.0  0.48713  0.64032  0.21021999999999993  1.0000
  C   C18       1.0  0.23488000000000003  0.62281  0.15912  1.0000
  C   C19       1.0  0.13102  0.5318999999999999  0.14082  1.0000
  C   C20       1.0  0.99773  0.56894  0.11202  1.0000
  C   C21       1.0  0.06406000000000003  0.6295  0.07579999999999999  1.0000
  C   C22       1.0  0.12922  0.70136  0.18293  1.0000
  C   C23       1.0  0.92204  0.76895  0.29676  1.0000
  C   C24       1.0  0.56171  0.73014  0.18418  1.0000
  C   C25       1.0  0.6094800000000002  0.48073  0.44581  1.0000
  C   C26       1.0  0.6243000000000002  0.39037999999999995  0.47696  1.0000
  C   C27       1.0  0.5699200000000002  0.28462  0.45717  1.0000
  C   C28       1.0  0.39154  0.29945999999999995  0.44666  1.0000
  C   C29       1.0  0.37705  0.39420999999999995  0.41686  1.0000
  C   C30       1.0  0.20461  0.4227599999999999  0.40628  1.0000
  C   C31       1.0  0.12956  0.42998  0.68452  1.0000
  C   C32       1.0  0.01138  0.49767  0.65821  1.0000
  C   C33       1.0  0.8513  0.50578  0.68212  1.0000
  C   C34       1.0  0.88873  0.44833  0.72193  1.0000
  C   C35       1.0  0.74809  0.4100499999999999  0.7479  1.0000
  C   C36       1.0  0.63288  0.50338  0.7574  1.0000
  C   C37       1.0  0.50057  0.47263  0.78751  1.0000
  C   C38       1.0  0.5684  0.42018999999999995  0.82592  1.0000
  C   C39       1.0  0.65331  0.50378  0.85276  1.0000
  C   C40       1.0  0.7212300000000003  0.45515  0.8913099999999998  1.0000
  C   C41       1.0  0.8375300000000002  0.36382999999999993  0.8813799999999998  1.0000
  C   C42       1.0  0.7476800000000002  0.27962  0.8562599999999998  1.0000
  C   C43       1.0  0.67941  0.32265  0.8160599999999998  1.0000
  C   C44       1.0  0.07899  0.31365  0.74996  1.0000
  C   C45       1.0  0.94329  0.27317  0.77785  1.0000
  C   C46       1.0  0.81605  0.35995  0.78704  1.0000
  C   C47       1.0  0.01238  0.35991  0.71033  1.0000
  C   C48       1.0  0.26426  0.3782  0.65904  1.0000
  C   C49       1.0  0.36692  0.46971999999999997  0.6406799999999998  1.0000
  C   C50       1.0  0.50058  0.43378  0.61184  1.0000
  C   C51       1.0  0.43497000000000013  0.37309  0.57564  1.0000
  C   C52       1.0  0.37081  0.2998  0.68277  1.0000
  C   C53       1.0  0.57842  0.23159999999999997  0.79727  1.0000
  C   C54       1.0  0.93771  0.27007  0.6844099999999997  1.0000
  C   C55       1.0  0.88905  0.51886  0.9465699999999998  1.0000
  C   C56       1.0  0.8725500000000003  0.60975  0.9773099999999999  1.0000
  C   C57       1.0  0.92621  0.71501  0.95691  1.0000
  C   C58       1.0  0.10493  0.70086  0.94643  1.0000
  C   C59       1.0  0.12070000000000002  0.60508  0.91719  1.0000
  C   C60       1.0  0.29301  0.5769  0.90629  1.0000
  C   C61       1.0  0.6294  0.06995999999999998  0.31559  1.0000
  C   C62       1.0  0.5112100000000003  0.0020100000000000005  0.34185  1.0000
  C   C63       1.0  0.35091  0.9942499999999997  0.318  1.0000
  C   C64       1.0  0.38845  0.05168999999999999  0.27818  1.0000
  C   C65       1.0  0.2479  0.09008  0.25223  1.0000
  C   C66       1.0  0.13287  0.99669  0.24256999999999998  1.0000
  C   C67       1.0  0.00041  0.027579999999999993  0.21252  1.0000
  C   C68       1.0  0.06803  0.08075  0.17422  1.0000
  C   C69       1.0  0.15308  0.9976799999999999  0.14721  1.0000
  C   C70       1.0  0.22097000000000006  0.04692  0.10874  1.0000
  C   C71       1.0  0.33706  0.13829  0.11883999999999999  1.0000
  C   C72       1.0  0.24707000000000004  0.22197  0.14412  1.0000
  C   C73       1.0  0.17898  0.17827  0.18425  1.0000
  C   C74       1.0  0.57898  0.18641  0.25019  1.0000
  C   C75       1.0  0.44337  0.22717999999999994  0.22236  1.0000
  C   C76       1.0  0.31576  0.14059  0.21313999999999994  1.0000
  C   C77       1.0  0.51231  0.14003  0.2898  1.0000
  C   C78       1.0  0.7637800000000002  0.12199999999999997  0.34113  1.0000
  C   C79       1.0  0.86619  0.03077999999999999  0.35975  1.0000
  C   C80       1.0  0.99821  0.06717999999999999  0.38896999999999987  1.0000
  C   C81       1.0  0.93147  0.12733  0.42515999999999987  1.0000
  C   C82       1.0  0.87071  0.20007  0.31733  1.0000
  C   C83       1.0  0.07807  0.26899  0.20323  1.0000
  C   C84       1.0  0.43783  0.22978  0.3157799999999999  1.0000
  C   C85       1.0  0.38909  0.9837299999999998  0.0534  1.0000
  C   C86       1.0  0.3725000000000001  0.8928199999999997  0.02266  1.0000
  C   C87       1.0  0.42581000000000013  0.7875799999999998  0.0431  1.0000
  C   C88       1.0  0.60457  0.80166  0.05358  1.0000
  C   C89       1.0  0.6206  0.8974399999999999  0.08282  1.0000
  C   C90       1.0  0.79293  0.9258599999999998  0.09371999999999997  1.0000
  C   C91       1.0  0.86991  0.9300299999999999  0.81531  1.0000
  C   C92       1.0  0.98772  0.99801  0.8416  1.0000
  C   C93       1.0  0.14816000000000004  0.005959999999999999  0.8178099999999998  1.0000
  C   C94       1.0  0.11129  0.9482  0.7780799999999999  1.0000
  C   C95       1.0  0.2522900000000001  0.90958  0.75237  1.0000
  C   C96       1.0  0.3678  0.0028100000000000004  0.74274  1.0000
  C   C97       1.0  0.50043  0.9717499999999999  0.7128  1.0000
  C   C98       1.0  0.43283  0.9188699999999997  0.67451  1.0000
  C   C99       1.0  0.34738  0.00211  0.64761  1.0000
  C   C100      1.0  0.27909  0.9533299999999998  0.60917  1.0000
  C   C101      1.0  0.16352  0.86155  0.61918  1.0000
  C   C102      1.0  0.25399  0.7778  0.64439  1.0000
  C   C103      1.0  0.3218400000000001  0.82132  0.68453  1.0000
  C   C104      1.0  0.9211200000000003  0.8134199999999998  0.75014  1.0000
  C   C105      1.0  0.05705  0.7725  0.7225  1.0000
  C   C106      1.0  0.18487000000000003  0.85901  0.7133  1.0000
  C   C107      1.0  0.9873399999999999  0.8598899999999999  0.78974  1.0000
  C   C108      1.0  0.73504  0.8781099999999997  0.84076  1.0000
  C   C109      1.0  0.63155  0.9693999999999999  0.85885  1.0000
  C   C110      1.0  0.49882  0.93306  0.88793  1.0000
  C   C111      1.0  0.56618  0.87305  0.92417  1.0000
  C   C112      1.0  0.6291500000000002  0.7993399999999999  0.81708  1.0000
  C   C113      1.0  0.42245000000000005  0.7304999999999999  0.70361  1.0000
  C   C114      1.0  0.06159  0.7702099999999997  0.8158799999999998  1.0000
  C   C115      1.0  0.10897  0.01764  0.55425  1.0000
  C   C116      1.0  0.12433999999999999  0.10932  0.52371  1.0000
  C   C117      1.0  0.07167  0.21449  0.54436  1.0000
  C   C118      1.0  0.89359  0.19957  0.5553199999999998  1.0000
  C   C119      1.0  0.8777000000000003  0.10236  0.58402  1.0000
  C   C120      1.0  0.70496  0.07364  0.59437  1.0000
  O   O1        1.0  0.9885299999999999  0.71533  0.06492999999999999  1.0000
  O   O2        1.0  0.18695  0.5916799999999999  0.05840999999999998  1.0000
  O   O3        1.0  0.70644  0.45501  0.41241  1.0000
  O   O4        1.0  0.443  0.49166  0.4344499999999999  1.0000
  O   O5        1.0  0.78653  0.38688999999999996  0.49172  1.0000
  O   O6        1.0  0.59615  0.19496  0.48303000000000007  1.0000
  O   O7        1.0  0.32676  0.20166  0.4304  1.0000
  O   O8        1.0  0.1118  0.45035  0.44168  1.0000
  O   O9        1.0  0.50792  0.2853799999999999  0.56582  1.0000
  O   O10       1.0  0.31542  0.41258999999999996  0.55732  1.0000
  O   O11       1.0  0.7929700000000001  0.5445399999999999  0.91305  1.0000
  O   O12       1.0  0.056020000000000014  0.50808  0.93546  1.0000
  O   O13       1.0  0.70995  0.61301  0.99183  1.0000
  O   O14       1.0  0.89777  0.80519  0.9822500000000001  1.0000
  O   O15       1.0  0.16815  0.79862  0.92956  1.0000
  O   O16       1.0  0.3880000000000001  0.54983  0.9414  1.0000
  O   O17       1.0  0.00738  0.21303  0.43607  1.0000
  O   O18       1.0  0.8087800000000003  0.08930999999999997  0.4426  1.0000
  O   O19       1.0  0.293  0.95791  0.08692  1.0000
  O   O20       1.0  0.55601  0.9944399999999998  0.06454  1.0000
  O   O21       1.0  0.20991  0.8896099999999998  0.00814  1.0000
  O   O22       1.0  0.39762  0.69731  0.01776  1.0000
  O   O23       1.0  0.66742  0.70398  0.07047  1.0000
  O   O24       1.0  0.8880400000000002  0.95283  0.058619999999999985  1.0000
  O   O25       1.0  0.49136  0.78696  0.9351  1.0000
  O   O26       1.0  0.68914  0.9113399999999999  0.9414399999999998  1.0000
  O   O27       1.0  0.20621  0.04267  0.5876799999999998  1.0000
  O   O28       1.0  0.94269  0.005919999999999999  0.56556  1.0000
  O   O29       1.0  0.28646  0.11118999999999997  0.50897  1.0000
  O   O30       1.0  0.09599  0.30583  0.51904  1.0000
  O   O31       1.0  0.83139  0.2962  0.57304  1.0000
  O   O32       1.0  0.61175  0.04726999999999999  0.55894  1.0000
