data_image0
_chemical_formula_structural       Zn8H108C136N24O32F24
_chemical_formula_sum              "Zn8 H108 C136 N24 O32 F24"
_cell_length_a       11.15693
_cell_length_b       18.732009999999995
_cell_length_c       20.56501
_cell_angle_alpha    89.93195
_cell_angle_beta     90.02361
_cell_angle_gamma    105.98736000000001

_space_group_name_H-M_alt    "P 1"
_space_group_IT_number       1

loop_
  _space_group_symop_operation_xyz
  'x, y, z'

loop_
  _atom_site_type_symbol
  _atom_site_label
  _atom_site_symmetry_multiplicity
  _atom_site_fract_x
  _atom_site_fract_y
  _atom_site_fract_z
  _atom_site_occupancy
  Zn  Zn1       1.0  0.9533599999999999  0.5794  0.89765  1.0000
  Zn  Zn2       1.0  0.04968  0.16548  0.35252  1.0000
  Zn  Zn3       1.0  0.04676000000000001  0.92051  0.39787  1.0000
  Zn  Zn4       1.0  0.9501699999999997  0.33454000000000006  0.85228  1.0000
  Zn  Zn5       1.0  0.046639999999999966  0.4206  0.10235  1.0000
  Zn  Zn6       1.0  0.9503199999999999  0.83452  0.64747  1.0000
  Zn  Zn7       1.0  0.9532399999999999  0.07949  0.60213  1.0000
  Zn  Zn8       1.0  0.04982000000000001  0.66547  0.14771  1.0000
  H   H1        1.0  0.9183899999999999  0.4602  0.7712999999999999  1.0000
  H   H2        1.0  0.09180000000000005  0.6890000000000001  0.7954099999999998  1.0000
  H   H3        1.0  0.09501000000000001  0.65385  0.66361  1.0000
  H   H4        1.0  0.0069700000000000205  0.54173  0.60009  1.0000
  H   H5        1.0  0.8869999999999999  0.47055  0.6356799999999999  1.0000
  H   H6        1.0  0.04211999999999995  0.40643  0.67516  1.0000
  H   H7        1.0  0.16501  0.47844  0.64294  1.0000
  H   H8        1.0  0.9492099999999999  0.38348  0.56016  1.0000
  H   H9        1.0  0.08174  0.45107  0.5311099999999999  1.0000
  H   H10       1.0  0.07207  0.29945  0.59197  1.0000
  H   H11       1.0  0.2143  0.36957  0.58136  1.0000
  H   H12       1.0  0.004319999999999991  0.21435  0.50049  1.0000
  H   H13       1.0  0.20517999999999995  0.33666  0.34251999999999994  1.0000
  H   H14       1.0  0.24742999999999996  0.42477  0.45404  1.0000
  H   H15       1.0  0.8474999999999999  0.0369  0.42493999999999993  1.0000
  H   H16       1.0  0.79889  0.18375000000000005  0.27705  1.0000
  H   H17       1.0  0.56541  0.09439  0.31602  1.0000
  H   H18       1.0  0.62177  0.9485200000000001  0.42844999999999994  1.0000
  H   H19       1.0  0.50229  0.97545  0.38668  1.0000
  H   H20       1.0  0.5183399999999999  0.0778  0.47004  1.0000
  H   H21       1.0  0.6350899999999999  0.04719000000000001  0.51152  1.0000
  H   H22       1.0  0.64163  0.36622  0.84833  1.0000
  H   H23       1.0  0.45949  0.26101  0.87093  1.0000
  H   H24       1.0  0.5966199999999999  0.25047  0.06669  1.0000
  H   H25       1.0  0.37553  0.08949000000000001  0.10436  1.0000
  H   H26       1.0  0.27078  0.10704  0.20548999999999998  1.0000
  H   H27       1.0  0.31732999999999995  0.29292  0.030259999999999995  1.0000
  H   H28       1.0  0.08173999999999998  0.03956  0.27149999999999996  1.0000
  H   H29       1.0  0.90691  0.81087  0.29543  1.0000
  H   H30       1.0  0.9054399999999999  0.84622  0.16354999999999997  1.0000
  H   H31       1.0  0.9939699999999999  0.95838  0.10014  1.0000
  H   H32       1.0  0.11359  0.029649999999999996  0.13581  1.0000
  H   H33       1.0  0.9580099999999999  0.09346  0.17501  1.0000
  H   H34       1.0  0.8354299999999999  0.02133  0.14285  1.0000
  H   H35       1.0  0.050909999999999976  0.11662999999999998  0.059969999999999996  1.0000
  H   H36       1.0  0.91837  0.04904  0.03101  1.0000
  H   H37       1.0  0.92785  0.20043  0.092  1.0000
  H   H38       1.0  0.78569  0.13025  0.08148  1.0000
  H   H39       1.0  0.9956499999999998  0.28567000000000004  0.00041999999999999996  1.0000
  H   H40       1.0  0.7949999999999999  0.1635  0.8424999999999999  1.0000
  H   H41       1.0  0.7519299999999999  0.07542  0.9542699999999998  1.0000
  H   H42       1.0  0.15252  0.46304  0.9248099999999999  1.0000
  H   H43       1.0  0.20119  0.31632  0.77716  1.0000
  H   H44       1.0  0.43457999999999997  0.40572  0.81599  1.0000
  H   H45       1.0  0.37806999999999996  0.55144  0.9282799999999998  1.0000
  H   H46       1.0  0.49764999999999987  0.52462  0.8866  1.0000
  H   H47       1.0  0.48175  0.42223  0.97014  1.0000
  H   H48       1.0  0.36494999999999994  0.45277000000000006  0.01152  1.0000
  H   H49       1.0  0.35958  0.13436  0.34799  1.0000
  H   H50       1.0  0.54042  0.24042000000000002  0.37094  1.0000
  H   H51       1.0  0.40251999999999993  0.24925  0.56652  1.0000
  H   H52       1.0  0.6221799999999997  0.41038  0.60511  1.0000
  H   H53       1.0  0.72887  0.39243  0.7056099999999998  1.0000
  H   H54       1.0  0.68018  0.20742000000000002  0.52999  1.0000
  H   H55       1.0  0.08161000000000003  0.53981  0.22869  1.0000
  H   H56       1.0  0.9081999999999998  0.311  0.20458999999999997  1.0000
  H   H57       1.0  0.9049799999999999  0.34615  0.33639  1.0000
  H   H58       1.0  0.9930300000000001  0.45827000000000007  0.39991  1.0000
  H   H59       1.0  0.11299  0.52945  0.36432  1.0000
  H   H60       1.0  0.95787  0.59358  0.32484  1.0000
  H   H61       1.0  0.83499  0.52157  0.35706  1.0000
  H   H62       1.0  0.05077999999999999  0.61653  0.4398399999999999  1.0000
  H   H63       1.0  0.91826  0.54893  0.46889  1.0000
  H   H64       1.0  0.9279299999999998  0.70055  0.40803  1.0000
  H   H65       1.0  0.78569  0.63044  0.4186399999999999  1.0000
  H   H66       1.0  0.99568  0.7856600000000001  0.49950999999999995  1.0000
  H   H67       1.0  0.79481  0.66334  0.6574699999999999  1.0000
  H   H68       1.0  0.7525599999999998  0.57523  0.54596  1.0000
  H   H69       1.0  0.15249  0.9631000000000001  0.57506  1.0000
  H   H70       1.0  0.20110000000000003  0.81626  0.7229499999999999  1.0000
  H   H71       1.0  0.4345899999999999  0.90561  0.6839799999999999  1.0000
  H   H72       1.0  0.37821999999999995  0.05148  0.57155  1.0000
  H   H73       1.0  0.4977099999999999  0.02456  0.61332  1.0000
  H   H74       1.0  0.48166  0.9222  0.52995  1.0000
  H   H75       1.0  0.36490999999999996  0.95281  0.4884799999999999  1.0000
  H   H76       1.0  0.35836999999999997  0.63378  0.15167  1.0000
  H   H77       1.0  0.54051  0.739  0.12906999999999996  1.0000
  H   H78       1.0  0.40338  0.74954  0.93331  1.0000
  H   H79       1.0  0.6244699999999997  0.9105099999999999  0.89563  1.0000
  H   H80       1.0  0.7292199999999999  0.8929700000000002  0.79451  1.0000
  H   H81       1.0  0.6826599999999999  0.7070800000000002  0.96974  1.0000
  H   H82       1.0  0.91826  0.96045  0.7285  1.0000
  H   H83       1.0  0.09309  0.18913  0.7045599999999999  1.0000
  H   H84       1.0  0.09456  0.15378  0.83645  1.0000
  H   H85       1.0  0.006029999999999995  0.04162  0.8998599999999999  1.0000
  H   H86       1.0  0.88641  0.97036  0.8641899999999999  1.0000
  H   H87       1.0  0.041990000000000006  0.90654  0.82499  1.0000
  H   H88       1.0  0.16455999999999993  0.97867  0.85715  1.0000
  H   H89       1.0  0.9490899999999999  0.88337  0.94003  1.0000
  H   H90       1.0  0.08161999999999996  0.95097  0.96899  1.0000
  H   H91       1.0  0.07214000000000002  0.79957  0.908  1.0000
  H   H92       1.0  0.2143  0.86976  0.91852  1.0000
  H   H93       1.0  0.004349999999999993  0.71434  0.99958  1.0000
  H   H94       1.0  0.2049899999999999  0.8365  0.1575  1.0000
  H   H95       1.0  0.24807  0.92458  0.04572  1.0000
  H   H96       1.0  0.84748  0.53696  0.07519  1.0000
  H   H97       1.0  0.7987999999999998  0.68368  0.22284  1.0000
  H   H98       1.0  0.5654199999999999  0.5942800000000001  0.18401  1.0000
  H   H99       1.0  0.62193  0.44856000000000007  0.07172  1.0000
  H   H100      1.0  0.5023399999999999  0.4753800000000001  0.1134  1.0000
  H   H101      1.0  0.5182400000000001  0.5777700000000001  0.02986  1.0000
  H   H102      1.0  0.63505  0.54724  0.98848  1.0000
  H   H103      1.0  0.64041  0.86564  0.65201  1.0000
  H   H104      1.0  0.4595699999999999  0.75958  0.62906  1.0000
  H   H105      1.0  0.5974699999999998  0.75076  0.4334799999999999  1.0000
  H   H106      1.0  0.37781999999999993  0.58962  0.39489  1.0000
  H   H107      1.0  0.27113  0.60757  0.2943799999999999  1.0000
  H   H108      1.0  0.3198099999999999  0.79258  0.47001  1.0000
  C   C1        1.0  0.9664799999999993  0.51772  0.76093  1.0000
  C   C2        1.0  0.05806999999999998  0.63679  0.7702499999999999  1.0000
  C   C3        1.0  0.06058000000000001  0.61978  0.7056499999999999  1.0000
  C   C4        1.0  0.9856099999999999  0.50138  0.64002  1.0000
  C   C5        1.0  0.06675000000000006  0.44763000000000003  0.63576  1.0000
  C   C6        1.0  0.04879000000000004  0.40913  0.56935  1.0000
  C   C7        1.0  0.11802000000000001  0.34929000000000004  0.56378  1.0000
  C   C8        1.0  0.06464999999999999  0.25818  0.47146  1.0000
  C   C9        1.0  0.1706  0.32455  0.39168  1.0000
  C   C10       1.0  0.19073  0.3686  0.44606999999999997  1.0000
  C   C11       1.0  0.8043699999999998  0.06584  0.39017999999999997  1.0000
  C   C12       1.0  0.7738499999999998  0.14075  0.3138  1.0000
  C   C13       1.0  0.6586099999999998  0.09726  0.33256  1.0000
  C   C14       1.0  0.58425  0.9957  0.41809  1.0000
  C   C15       1.0  0.5507099999999999  0.02877  0.4814  1.0000
  C   C16       1.0  0.82683  0.43433  0.92694  1.0000
  C   C17       1.0  0.7202299999999999  0.36862  0.9442099999999999  1.0000
  C   C18       1.0  0.62944  0.34131  0.89656  1.0000
  C   C19       1.0  0.5262999999999999  0.28124  0.9095999999999997  1.0000
  C   C20       1.0  0.5107699999999998  0.24847000000000002  0.97157  1.0000
  C   C21       1.0  0.60244  0.27527  0.01856  1.0000
  C   C22       1.0  0.7081699999999997  0.33361  0.00522  1.0000
  C   C23       1.0  0.80984  0.35142  0.05571  1.0000
  C   C24       1.0  0.40409  0.18018  0.99029  1.0000
  C   C25       1.0  0.29305  0.16568  0.9416  1.0000
  C   C26       1.0  0.45667  0.11156000000000002  0.98708  1.0000
  C   C27       1.0  0.35075  0.18893  0.05788  1.0000
  C   C28       1.0  0.3397  0.13744  0.10861  1.0000
  C   C29       1.0  0.2796199999999999  0.14690000000000003  0.16604  1.0000
  C   C30       1.0  0.22502999999999998  0.20536  0.1739  1.0000
  C   C31       1.0  0.14507999999999996  0.20523  0.23263999999999999  1.0000
  C   C32       1.0  0.24118999999999996  0.25923  0.12439999999999998  1.0000
  C   C33       1.0  0.20008999999999993  0.32949  0.12967  1.0000
  C   C34       1.0  0.30531  0.25069  0.06777  1.0000
  C   C35       1.0  0.03353999999999991  0.98209  0.26102  1.0000
  C   C36       1.0  0.9412599999999998  0.86311  0.2703  1.0000
  C   C37       1.0  0.9395099999999998  0.8802  0.20565  1.0000
  C   C38       1.0  0.01503999999999999  0.99869  0.14003  1.0000
  C   C39       1.0  0.9336199999999999  0.052280000000000014  0.13566  1.0000
  C   C40       1.0  0.95136  0.09089  0.06924  1.0000
  C   C41       1.0  0.8819  0.15066  0.06381  1.0000
  C   C42       1.0  0.9353099999999998  0.24187000000000003  0.9714099999999999  1.0000
  C   C43       1.0  0.8293099999999999  0.17557  0.8916999999999998  1.0000
  C   C44       1.0  0.8088399999999998  0.13155000000000003  0.9461899999999999  1.0000
  C   C45       1.0  0.19563999999999998  0.43412  0.89012  1.0000
  C   C46       1.0  0.22618999999999997  0.35933000000000004  0.8138299999999999  1.0000
  C   C47       1.0  0.34141  0.40281  0.83257  1.0000
  C   C48       1.0  0.4157099999999999  0.50431  0.91802  1.0000
  C   C49       1.0  0.4493299999999999  0.47123  0.9813999999999998  1.0000
  C   C50       1.0  0.17327  0.06542  0.42715  1.0000
  C   C51       1.0  0.28013  0.13116  0.444  1.0000
  C   C52       1.0  0.37091  0.15902  0.39631999999999995  1.0000
  C   C53       1.0  0.47342  0.21951  0.40944  1.0000
  C   C54       1.0  0.4884  0.25192000000000003  0.47149  1.0000
  C   C55       1.0  0.39685  0.22454  0.5184  1.0000
  C   C56       1.0  0.29169  0.16596  0.5050399999999999  1.0000
  C   C57       1.0  0.19002  0.14795  0.55556  1.0000
  C   C58       1.0  0.5939399999999998  0.32048  0.49074  1.0000
  C   C59       1.0  0.70624  0.3364  0.44278  1.0000
  C   C60       1.0  0.5391799999999998  0.38845  0.48694  1.0000
  C   C61       1.0  0.6464899999999999  0.31104000000000004  0.55837  1.0000
  C   C62       1.0  0.6583499999999998  0.3625  0.60901  1.0000
  C   C63       1.0  0.71928  0.35278  0.66607  1.0000
  C   C64       1.0  0.77331  0.29408  0.6737599999999999  1.0000
  C   C65       1.0  0.8535299999999998  0.29424  0.73239  1.0000
  C   C66       1.0  0.75706  0.24041000000000004  0.62417  1.0000
  C   C67       1.0  0.7986099999999998  0.17028  0.6295999999999999  1.0000
  C   C68       1.0  0.69251  0.24932000000000004  0.5677599999999999  1.0000
  C   C69       1.0  0.033509999999999984  0.48228  0.23906999999999998  1.0000
  C   C70       1.0  0.9419199999999999  0.36321000000000003  0.22974999999999998  1.0000
  C   C71       1.0  0.93942  0.38022  0.29435  1.0000
  C   C72       1.0  0.014379999999999971  0.49863  0.35998  1.0000
  C   C73       1.0  0.93324  0.55237  0.36423999999999995  1.0000
  C   C74       1.0  0.9511999999999998  0.59087  0.43065  1.0000
  C   C75       1.0  0.88197  0.65071  0.43620999999999993  1.0000
  C   C76       1.0  0.9353499999999999  0.74182  0.52854  1.0000
  C   C77       1.0  0.8294  0.67546  0.60831  1.0000
  C   C78       1.0  0.8092700000000002  0.6314100000000001  0.55393  1.0000
  C   C79       1.0  0.19563000000000005  0.93416  0.60981  1.0000
  C   C80       1.0  0.22614999999999996  0.8592600000000001  0.6861999999999999  1.0000
  C   C81       1.0  0.3413899999999999  0.90274  0.66744  1.0000
  C   C82       1.0  0.41573999999999994  0.004300000000000001  0.58191  1.0000
  C   C83       1.0  0.4492900000000001  0.9712300000000001  0.5186  1.0000
  C   C84       1.0  0.17316  0.56568  0.07305999999999999  1.0000
  C   C85       1.0  0.27976  0.63139  0.05578999999999999  1.0000
  C   C86       1.0  0.37054999999999993  0.6587  0.10344  1.0000
  C   C87       1.0  0.4737  0.71877  0.0904  1.0000
  C   C88       1.0  0.4892299999999999  0.75153  0.02843  1.0000
  C   C89       1.0  0.39755999999999997  0.72474  0.98144  1.0000
  C   C90       1.0  0.29181999999999997  0.6664  0.99478  1.0000
  C   C91       1.0  0.19016000000000002  0.64858  0.94429  1.0000
  C   C92       1.0  0.59591  0.81983  0.00971  1.0000
  C   C93       1.0  0.7069399999999999  0.83432  0.0584  1.0000
  C   C94       1.0  0.5433199999999999  0.88845  0.012919999999999997  1.0000
  C   C95       1.0  0.6492399999999998  0.81108  0.9421099999999999  1.0000
  C   C96       1.0  0.6603  0.86256  0.8913899999999999  1.0000
  C   C97       1.0  0.7203699999999998  0.8531  0.83396  1.0000
  C   C98       1.0  0.7749599999999999  0.79464  0.8261  1.0000
  C   C99       1.0  0.85491  0.79477  0.7673599999999999  1.0000
  C   C100      1.0  0.7588099999999999  0.74078  0.8756  1.0000
  C   C101      1.0  0.7999099999999999  0.67051  0.87033  1.0000
  C   C102      1.0  0.6946799999999997  0.7493200000000001  0.93223  1.0000
  C   C103      1.0  0.96645  0.01791  0.73898  1.0000
  C   C104      1.0  0.05873  0.1369  0.7297  1.0000
  C   C105      1.0  0.060479999999999985  0.1198  0.7943499999999999  1.0000
  C   C106      1.0  0.9849599999999997  0.0013200000000000006  0.8599599999999998  1.0000
  C   C107      1.0  0.06637  0.9477300000000001  0.86434  1.0000
  C   C108      1.0  0.04864000000000006  0.90912  0.93076  1.0000
  C   C109      1.0  0.11809000000000006  0.84935  0.93619  1.0000
  C   C110      1.0  0.06469  0.75813  0.02859  1.0000
  C   C111      1.0  0.17068999999999993  0.82443  0.1083  1.0000
  C   C112      1.0  0.19115999999999994  0.86845  0.05381  1.0000
  C   C113      1.0  0.80435  0.56588  0.10988  1.0000
  C   C114      1.0  0.77381  0.64068  0.18617  1.0000
  C   C115      1.0  0.6585799999999998  0.5972  0.16743  1.0000
  C   C116      1.0  0.58429  0.4956900000000001  0.08198  1.0000
  C   C117      1.0  0.55067  0.52877  0.0186  1.0000
  C   C118      1.0  0.8267299999999997  0.9345800000000001  0.57285  1.0000
  C   C119      1.0  0.7198699999999998  0.86884  0.556  1.0000
  C   C120      1.0  0.6290899999999999  0.84099  0.60368  1.0000
  C   C121      1.0  0.52657  0.78049  0.5905599999999999  1.0000
  C   C122      1.0  0.51159  0.74808  0.52851  1.0000
  C   C123      1.0  0.60314  0.77546  0.4815999999999999  1.0000
  C   C124      1.0  0.70831  0.83404  0.49495999999999996  1.0000
  C   C125      1.0  0.80997  0.85206  0.44443999999999995  1.0000
  C   C126      1.0  0.40605999999999987  0.67952  0.50926  1.0000
  C   C127      1.0  0.29375999999999997  0.6636  0.55722  1.0000
  C   C128      1.0  0.46082  0.61155  0.51306  1.0000
  C   C129      1.0  0.35351  0.68897  0.44162999999999997  1.0000
  C   C130      1.0  0.34164000000000005  0.6375100000000001  0.39099  1.0000
  C   C131      1.0  0.28072  0.64723  0.33392  1.0000
  C   C132      1.0  0.22668999999999995  0.70592  0.32624  1.0000
  C   C133      1.0  0.14647  0.70576  0.26761  1.0000
  C   C134      1.0  0.24293  0.75959  0.37582  1.0000
  C   C135      1.0  0.20138  0.8297200000000001  0.37039  1.0000
  C   C136      1.0  0.30748999999999993  0.75068  0.43223999999999996  1.0000
  N   N1        1.0  0.9994799999999999  0.57292  0.80413  1.0000
  N   N2        1.0  0.002619999999999988  0.54428  0.7003199999999999  1.0000
  N   N3        1.0  0.12357  0.32578  0.49604  1.0000
  N   N4        1.0  0.09195000000000002  0.25577  0.40818999999999994  1.0000
  N   N5        1.0  0.8640299999999999  0.12054999999999999  0.35007  1.0000
  N   N6        1.0  0.67953  0.05014  0.38066  1.0000
  N   N7        1.0  0.9999  0.92685  0.30426  1.0000
  N   N8        1.0  0.99792  0.9556600000000001  0.20034999999999997  1.0000
  N   N9        1.0  0.87607  0.17432  0.99609  1.0000
  N   N10       1.0  0.9081399999999997  0.24428  0.9081099999999999  1.0000
  N   N11       1.0  0.13597999999999996  0.37947  0.85004  1.0000
  N   N12       1.0  0.32048999999999994  0.44986  0.8806199999999998  1.0000
  N   N13       1.0  0.0005100000000000132  0.42709  0.19587  1.0000
  N   N14       1.0  0.9973799999999999  0.45572000000000007  0.29968  1.0000
  N   N15       1.0  0.8764299999999998  0.67422  0.5039599999999999  1.0000
  N   N16       1.0  0.90804  0.74423  0.5918  1.0000
  N   N17       1.0  0.13597000000000006  0.87945  0.64993  1.0000
  N   N18       1.0  0.32047  0.94986  0.6193399999999999  1.0000
  N   N19       1.0  9.999999999999759e-05  0.07315  0.69574  1.0000
  N   N20       1.0  0.0020699999999999985  0.04434  0.79965  1.0000
  N   N21       1.0  0.12392999999999993  0.82568  0.00391  1.0000
  N   N22       1.0  0.09186000000000001  0.75572  0.09189  1.0000
  N   N23       1.0  0.86401  0.62054  0.14996  1.0000
  N   N24       1.0  0.6794999999999998  0.55015  0.11938  1.0000
  O   O1        1.0  0.9211199999999998  0.425  0.89652  1.0000
  O   O2        1.0  0.8128599999999998  0.49831999999999993  0.93817  1.0000
  O   O3        1.0  0.90314  0.40855  0.04214  1.0000
  O   O4        1.0  0.8007999999999997  0.31011  0.10405999999999999  1.0000
  O   O5        1.0  0.16473  0.16416  0.28088  1.0000
  O   O6        1.0  0.06294999999999996  0.23882999999999996  0.23345  1.0000
  O   O7        1.0  0.2592  0.37995  0.16572  1.0000
  O   O8        1.0  0.10871999999999997  0.33153  0.09071  1.0000
  O   O9        1.0  0.07935  0.07485  0.39647  1.0000
  O   O10       1.0  0.18666999999999995  0.00132  0.43883999999999995  1.0000
  O   O11       1.0  0.09680999999999997  0.0907  0.5421  1.0000
  O   O12       1.0  0.19904999999999995  0.18935  0.6037899999999999  1.0000
  O   O13       1.0  0.83559  0.33620000000000005  0.7802399999999999  1.0000
  O   O14       1.0  0.9346599999999999  0.26  0.73343  1.0000
  O   O15       1.0  0.73909  0.11973  0.6655999999999999  1.0000
  O   O16       1.0  0.89076  0.1686  0.59105  1.0000
  O   O17       1.0  0.07887999999999999  0.575  0.10347  1.0000
  O   O18       1.0  0.18713  0.50169  0.06183  1.0000
  O   O19       1.0  0.09686000000000003  0.5914600000000001  0.95786  1.0000
  O   O20       1.0  0.1992  0.68989  0.8959399999999997  1.0000
  O   O21       1.0  0.8352699999999997  0.83584  0.71912  1.0000
  O   O22       1.0  0.9370399999999998  0.76117  0.76654  1.0000
  O   O23       1.0  0.7407899999999998  0.62005  0.83428  1.0000
  O   O24       1.0  0.8912799999999999  0.66848  0.90929  1.0000
  O   O25       1.0  0.9206399999999998  0.92515  0.60353  1.0000
  O   O26       1.0  0.8133299999999999  0.99869  0.56115  1.0000
  O   O27       1.0  0.9031799999999998  0.90931  0.45789999999999986  1.0000
  O   O28       1.0  0.8009499999999999  0.81065  0.39620999999999995  1.0000
  O   O29       1.0  0.16439999999999994  0.6638  0.21976  1.0000
  O   O30       1.0  0.06534000000000001  0.74  0.26657  1.0000
  O   O31       1.0  0.2609099999999999  0.88027  0.3344  1.0000
  O   O32       1.0  0.10923999999999995  0.8314  0.40893999999999997  1.0000
  F   F1        1.0  0.25401  0.22785  0.93178  1.0000
  F   F2        1.0  0.19322  0.11107  0.96418  1.0000
  F   F3        1.0  0.32096  0.14283  0.8820699999999999  1.0000
  F   F4        1.0  0.50953  0.10663  0.92859  1.0000
  F   F5        1.0  0.36459  0.04625  0.99657  1.0000
  F   F6        1.0  0.5456399999999999  0.11417000000000001  0.0328  1.0000
  F   F7        1.0  0.74572  0.27494  0.43176999999999993  1.0000
  F   F8        1.0  0.80632  0.38941000000000003  0.46721999999999997  1.0000
  F   F9        1.0  0.6792999999999999  0.36081  0.38336  1.0000
  F   F10       1.0  0.48522  0.39293  0.4283  1.0000
  F   F11       1.0  0.62988  0.45416  0.49657999999999997  1.0000
  F   F12       1.0  0.44913  0.3856100000000001  0.53243  1.0000
  F   F13       1.0  0.74598  0.77215  0.06822  1.0000
  F   F14       1.0  0.8067699999999999  0.88893  0.03582  1.0000
  F   F15       1.0  0.67904  0.85717  0.11792  1.0000
  F   F16       1.0  0.4904599999999999  0.8933799999999998  0.07141  1.0000
  F   F17       1.0  0.6354000000000001  0.9537500000000001  0.00343  1.0000
  F   F18       1.0  0.45434999999999987  0.88584  0.9672  1.0000
  F   F19       1.0  0.25427999999999995  0.72506  0.56823  1.0000
  F   F20       1.0  0.19367999999999996  0.6106  0.5327799999999999  1.0000
  F   F21       1.0  0.32069  0.6392  0.61664  1.0000
  F   F22       1.0  0.5147799999999999  0.60708  0.5717  1.0000
  F   F23       1.0  0.3701199999999999  0.54584  0.50342  1.0000
  F   F24       1.0  0.55087  0.6144  0.46756999999999993  1.0000
