data_image0
_chemical_formula_structural       Zn16H96C192O52
_chemical_formula_sum              "Zn16 H96 C192 O52"
_cell_length_a       20.00043
_cell_length_b       27.9725
_cell_length_c       27.94761
_cell_angle_alpha    90.0
_cell_angle_beta     90.03463
_cell_angle_gamma    90.0

_space_group_name_H-M_alt    "P 1"
_space_group_IT_number       1

loop_
  _space_group_symop_operation_xyz
  'x, y, z'

loop_
  _atom_site_type_symbol
  _atom_site_label
  _atom_site_symmetry_multiplicity
  _atom_site_fract_x
  _atom_site_fract_y
  _atom_site_fract_z
  _atom_site_occupancy
  Zn  Zn1       1.0  0.31485  0.9437199999999998  0.61573  1.0000
  Zn  Zn2       1.0  0.18418999999999996  0.55637  0.11571  1.0000
  Zn  Zn3       1.0  0.31485  0.05628  0.61573  1.0000
  Zn  Zn4       1.0  0.18418999999999996  0.4436299999999999  0.11571  1.0000
  Zn  Zn5       1.0  0.19755  0.0  0.56043  1.0000
  Zn  Zn6       1.0  0.19693000000000002  0.0  0.67261  1.0000
  Zn  Zn7       1.0  0.30121  0.4999999999999999  0.06062  1.0000
  Zn  Zn8       1.0  0.30346  0.4999999999999999  0.17203  1.0000
  Zn  Zn9       1.0  0.68514  0.9437199999999998  0.38428  1.0000
  Zn  Zn10      1.0  0.8158  0.55637  0.88429  1.0000
  Zn  Zn11      1.0  0.68514  0.05628  0.38428  1.0000
  Zn  Zn12      1.0  0.8158  0.4436299999999999  0.88429  1.0000
  Zn  Zn13      1.0  0.80245  0.0  0.43957  1.0000
  Zn  Zn14      1.0  0.8030700000000001  0.0  0.3274  1.0000
  Zn  Zn15      1.0  0.69879  0.4999999999999999  0.93938  1.0000
  Zn  Zn16      1.0  0.69653  0.4999999999999999  0.82797  1.0000
  H   H1        1.0  0.36314  0.85058  0.50359  1.0000
  H   H2        1.0  0.36898  0.7908799999999998  0.43695999999999996  1.0000
  H   H3        1.0  0.18661999999999998  0.8485699999999998  0.37801  1.0000
  H   H4        1.0  0.18213  0.9081399999999997  0.44453000000000004  1.0000
  H   H5        1.0  0.18298  0.7401099999999998  0.26817  1.0000
  H   H6        1.0  0.174  0.67338  0.20894  1.0000
  H   H7        1.0  0.34498  0.60518  0.27191  1.0000
  H   H8        1.0  0.35545  0.67205  0.33081  1.0000
  H   H9        1.0  0.64655  0.07709999999999999  0.61975  1.0000
  H   H10       1.0  0.52138  0.07674999999999998  0.62291  1.0000
  H   H11       1.0  0.13696  0.64942  0.00363  1.0000
  H   H12       1.0  0.13096999999999998  0.7091199999999998  0.93695  1.0000
  H   H13       1.0  0.31329  0.6513999999999999  0.87808  1.0000
  H   H14       1.0  0.31787  0.5918399999999999  0.94459  1.0000
  H   H15       1.0  0.31701  0.75965  0.7683  1.0000
  H   H16       1.0  0.32617  0.8263799999999998  0.7090200000000001  1.0000
  H   H17       1.0  0.15541  0.8947899999999998  0.77185  1.0000
  H   H18       1.0  0.14459  0.82792  0.83073  1.0000
  H   H19       1.0  0.85321  0.4228699999999999  0.11974000000000001  1.0000
  H   H20       1.0  0.97843  0.42328  0.12292  1.0000
  H   H21       1.0  0.36314  0.14943  0.50359  1.0000
  H   H22       1.0  0.36898  0.20911999999999994  0.43695999999999996  1.0000
  H   H23       1.0  0.18661999999999998  0.15142999999999995  0.37801  1.0000
  H   H24       1.0  0.18213  0.09186999999999998  0.44453000000000004  1.0000
  H   H25       1.0  0.18298  0.2599  0.26817  1.0000
  H   H26       1.0  0.174  0.32661999999999997  0.20894  1.0000
  H   H27       1.0  0.34498  0.39482  0.27191  1.0000
  H   H28       1.0  0.35545  0.32795  0.33081  1.0000
  H   H29       1.0  0.64655  0.9228999999999998  0.61975  1.0000
  H   H30       1.0  0.52138  0.9232499999999998  0.62291  1.0000
  H   H31       1.0  0.13696  0.35058  0.00363  1.0000
  H   H32       1.0  0.13096999999999998  0.2908799999999999  0.93695  1.0000
  H   H33       1.0  0.31329  0.3485999999999999  0.87808  1.0000
  H   H34       1.0  0.31787  0.40816  0.94459  1.0000
  H   H35       1.0  0.31701  0.24035  0.7683  1.0000
  H   H36       1.0  0.32617  0.17361999999999994  0.7090200000000001  1.0000
  H   H37       1.0  0.15541  0.10522  0.77185  1.0000
  H   H38       1.0  0.14459  0.17207999999999996  0.83073  1.0000
  H   H39       1.0  0.85321  0.5771299999999998  0.11974000000000001  1.0000
  H   H40       1.0  0.97843  0.5767199999999998  0.12292  1.0000
  H   H41       1.0  0.99262  0.0  0.6899  1.0000
  H   H42       1.0  0.86742  0.0  0.69215  1.0000
  H   H43       1.0  0.8627  0.0  0.53798  1.0000
  H   H44       1.0  0.98772  0.0  0.53643  1.0000
  H   H45       1.0  0.50717  0.4999999999999999  0.1897  1.0000
  H   H46       1.0  0.63229  0.4999999999999999  0.19203999999999996  1.0000
  H   H47       1.0  0.63705  0.4999999999999999  0.037880000000000004  1.0000
  H   H48       1.0  0.51205  0.4999999999999999  0.03621  1.0000
  H   H49       1.0  0.63685  0.85058  0.49641  1.0000
  H   H50       1.0  0.63101  0.7908799999999998  0.56304  1.0000
  H   H51       1.0  0.81337  0.8485699999999998  0.62199  1.0000
  H   H52       1.0  0.81787  0.9081399999999997  0.55547  1.0000
  H   H53       1.0  0.8170099999999999  0.7401099999999998  0.73183  1.0000
  H   H54       1.0  0.8259999999999998  0.67338  0.7910599999999999  1.0000
  H   H55       1.0  0.65502  0.60518  0.7280899999999999  1.0000
  H   H56       1.0  0.6445499999999998  0.67205  0.66919  1.0000
  H   H57       1.0  0.35345  0.07709999999999999  0.38025  1.0000
  H   H58       1.0  0.47862  0.07674999999999998  0.37709  1.0000
  H   H59       1.0  0.86303  0.64942  0.99637  1.0000
  H   H60       1.0  0.8690300000000001  0.7091199999999998  0.06306  1.0000
  H   H61       1.0  0.68671  0.6513999999999999  0.12192  1.0000
  H   H62       1.0  0.68213  0.5918399999999999  0.05541  1.0000
  H   H63       1.0  0.68298  0.75965  0.2317  1.0000
  H   H64       1.0  0.6738199999999999  0.8263799999999998  0.29098  1.0000
  H   H65       1.0  0.8445799999999999  0.8947899999999998  0.22815  1.0000
  H   H66       1.0  0.8554099999999999  0.82792  0.16927  1.0000
  H   H67       1.0  0.14679  0.4228699999999999  0.88026  1.0000
  H   H68       1.0  0.02156  0.42328  0.87708  1.0000
  H   H69       1.0  0.63685  0.14943  0.49641  1.0000
  H   H70       1.0  0.63101  0.20911999999999994  0.56304  1.0000
  H   H71       1.0  0.81337  0.15142999999999995  0.62199  1.0000
  H   H72       1.0  0.81787  0.09186999999999998  0.55547  1.0000
  H   H73       1.0  0.8170099999999999  0.2599  0.73183  1.0000
  H   H74       1.0  0.8259999999999998  0.32661999999999997  0.7910599999999999  1.0000
  H   H75       1.0  0.65502  0.39482  0.7280899999999999  1.0000
  H   H76       1.0  0.6445499999999998  0.32795  0.66919  1.0000
  H   H77       1.0  0.35345  0.9228999999999998  0.38025  1.0000
  H   H78       1.0  0.47862  0.9232499999999998  0.37709  1.0000
  H   H79       1.0  0.86303  0.35058  0.99637  1.0000
  H   H80       1.0  0.8690300000000001  0.2908799999999999  0.06306  1.0000
  H   H81       1.0  0.68671  0.3485999999999999  0.12192  1.0000
  H   H82       1.0  0.68213  0.40816  0.05541  1.0000
  H   H83       1.0  0.68298  0.24035  0.2317  1.0000
  H   H84       1.0  0.6738199999999999  0.17361999999999994  0.29098  1.0000
  H   H85       1.0  0.8445799999999999  0.10522  0.22815  1.0000
  H   H86       1.0  0.8554099999999999  0.17207999999999996  0.16927  1.0000
  H   H87       1.0  0.14679  0.5771299999999998  0.88026  1.0000
  H   H88       1.0  0.02156  0.5767199999999998  0.87708  1.0000
  H   H89       1.0  0.00737  0.0  0.3101  1.0000
  H   H90       1.0  0.13257  0.0  0.30785  1.0000
  H   H91       1.0  0.13729  0.0  0.46202  1.0000
  H   H92       1.0  0.01227  0.0  0.46357  1.0000
  H   H93       1.0  0.4928199999999999  0.4999999999999999  0.8103  1.0000
  H   H94       1.0  0.3677  0.4999999999999999  0.80796  1.0000
  H   H95       1.0  0.36295  0.4999999999999999  0.9621300000000002  1.0000
  H   H96       1.0  0.48794  0.4999999999999999  0.96379  1.0000
  C   C1        1.0  0.26569  0.91567  0.51958  1.0000
  C   C2        1.0  0.27181  0.8823299999999997  0.47826  1.0000
  C   C3        1.0  0.32512  0.84969  0.47578  1.0000
  C   C4        1.0  0.3283  0.8165999999999999  0.43875000000000003  1.0000
  C   C5        1.0  0.27765  0.8152699999999998  0.40338  1.0000
  C   C6        1.0  0.22529  0.84924  0.40536  1.0000
  C   C7        1.0  0.22262  0.8822999999999998  0.44237  1.0000
  C   C8        1.0  0.27754  0.7796  0.36751  1.0000
  C   C9        1.0  0.27458  0.7478999999999998  0.33744  1.0000
  C   C10       1.0  0.26988  0.7105599999999997  0.30348  1.0000
  C   C11       1.0  0.21846  0.71066  0.26868  1.0000
  C   C12       1.0  0.21336  0.6735699999999998  0.23578999999999997  1.0000
  C   C13       1.0  0.25889  0.6353199999999998  0.23691  1.0000
  C   C14       1.0  0.31008  0.63498  0.27139  1.0000
  C   C15       1.0  0.31585  0.6721299999999999  0.30414  1.0000
  C   C16       1.0  0.2529  0.59533  0.20184  1.0000
  C   C17       1.0  0.61888  0.04362  0.62067  1.0000
  C   C18       1.0  0.54941  0.04344  0.62241  1.0000
  C   C19       1.0  0.23386999999999997  0.58442  0.01967  1.0000
  C   C20       1.0  0.22820999999999997  0.6177699999999998  0.97834  1.0000
  C   C21       1.0  0.17491  0.65038  0.97579  1.0000
  C   C22       1.0  0.17168  0.68342  0.93875  1.0000
  C   C23       1.0  0.22232  0.6847199999999998  0.90342  1.0000
  C   C24       1.0  0.27467  0.65074  0.90543  1.0000
  C   C25       1.0  0.27739  0.6176999999999999  0.94247  1.0000
  C   C26       1.0  0.22242999999999996  0.72037  0.86757  1.0000
  C   C27       1.0  0.22543000000000002  0.7520499999999998  0.83749  1.0000
  C   C28       1.0  0.23014999999999997  0.78931  0.8035  1.0000
  C   C29       1.0  0.28158  0.78913  0.76874  1.0000
  C   C30       1.0  0.2868  0.82621  0.73584  1.0000
  C   C31       1.0  0.24143  0.8645499999999999  0.73713  1.0000
  C   C32       1.0  0.19014  0.8649  0.77145  1.0000
  C   C33       1.0  0.18421  0.8277499999999998  0.80413  1.0000
  C   C34       1.0  0.24735  0.9048999999999998  0.7025600000000001  1.0000
  C   C35       1.0  0.88086  0.4563599999999999  0.12067  1.0000
  C   C36       1.0  0.9503  0.4565499999999999  0.12242  1.0000
  C   C37       1.0  0.26569  0.08434  0.51958  1.0000
  C   C38       1.0  0.27181  0.11768  0.47826  1.0000
  C   C39       1.0  0.32512  0.15031  0.47578  1.0000
  C   C40       1.0  0.3283  0.18339999999999995  0.43875000000000003  1.0000
  C   C41       1.0  0.27765  0.18473  0.40338  1.0000
  C   C42       1.0  0.22529  0.15076999999999993  0.40536  1.0000
  C   C43       1.0  0.22262  0.1177  0.44237  1.0000
  C   C44       1.0  0.27754  0.2204  0.36751  1.0000
  C   C45       1.0  0.27458  0.2521  0.33744  1.0000
  C   C46       1.0  0.26988  0.28944  0.30348  1.0000
  C   C47       1.0  0.21846  0.28934  0.26868  1.0000
  C   C48       1.0  0.21336  0.3264299999999999  0.23578999999999997  1.0000
  C   C49       1.0  0.25889  0.36467999999999995  0.23691  1.0000
  C   C50       1.0  0.31008  0.36503  0.27139  1.0000
  C   C51       1.0  0.31585  0.32787  0.30414  1.0000
  C   C52       1.0  0.2529  0.40466999999999986  0.20184  1.0000
  C   C53       1.0  0.61888  0.95638  0.62067  1.0000
  C   C54       1.0  0.54941  0.9565599999999997  0.62241  1.0000
  C   C55       1.0  0.23386999999999997  0.41558  0.01967  1.0000
  C   C56       1.0  0.22820999999999997  0.38222999999999996  0.97834  1.0000
  C   C57       1.0  0.17491  0.34962  0.97579  1.0000
  C   C58       1.0  0.17168  0.31658  0.93875  1.0000
  C   C59       1.0  0.22232  0.31528  0.90342  1.0000
  C   C60       1.0  0.27467  0.3492599999999999  0.90543  1.0000
  C   C61       1.0  0.27739  0.38229999999999986  0.94247  1.0000
  C   C62       1.0  0.22242999999999996  0.27963  0.86757  1.0000
  C   C63       1.0  0.22543000000000002  0.24795  0.83749  1.0000
  C   C64       1.0  0.23014999999999997  0.21069  0.8035  1.0000
  C   C65       1.0  0.28158  0.21086999999999995  0.76874  1.0000
  C   C66       1.0  0.2868  0.17379  0.73584  1.0000
  C   C67       1.0  0.24143  0.13545  0.73713  1.0000
  C   C68       1.0  0.19014  0.13511  0.77145  1.0000
  C   C69       1.0  0.18421  0.17225  0.80413  1.0000
  C   C70       1.0  0.24735  0.09509999999999998  0.7025600000000001  1.0000
  C   C71       1.0  0.88086  0.54364  0.12067  1.0000
  C   C72       1.0  0.9503  0.54346  0.12242  1.0000
  C   C73       1.0  0.07202  0.0  0.61252  1.0000
  C   C74       1.0  0.99755  0.0  0.6131  1.0000
  C   C75       1.0  0.96351  0.0  0.65706  1.0000
  C   C76       1.0  0.8941  0.0  0.65826  1.0000
  C   C77       1.0  0.8570299999999998  0.0  0.61519  1.0000
  C   C78       1.0  0.8914099999999999  0.0  0.57105  1.0000
  C   C79       1.0  0.9609099999999999  0.0  0.57024  1.0000
  C   C80       1.0  0.78627  0.0  0.61639  1.0000
  C   C81       1.0  0.7252599999999999  0.0  0.6178900000000002  1.0000
  C   C82       1.0  0.65447  0.0  0.61971  1.0000
  C   C83       1.0  0.51412  0.0  0.6231500000000001  1.0000
  C   C84       1.0  0.43958  0.0  0.62361  1.0000
  C   C85       1.0  0.42757999999999996  0.4999999999999999  0.1123  1.0000
  C   C86       1.0  0.50212  0.4999999999999999  0.11288  1.0000
  C   C87       1.0  0.53624  0.4999999999999999  0.15686  1.0000
  C   C88       1.0  0.60565  0.4999999999999999  0.15812  1.0000
  C   C89       1.0  0.64273  0.4999999999999999  0.11509  1.0000
  C   C90       1.0  0.60834  0.4999999999999999  0.07092  1.0000
  C   C91       1.0  0.53881  0.4999999999999999  0.07006  1.0000
  C   C92       1.0  0.7135  0.4999999999999999  0.11637  1.0000
  C   C93       1.0  0.7744799999999998  0.4999999999999999  0.11788  1.0000
  C   C94       1.0  0.84528  0.4999999999999999  0.11971  1.0000
  C   C95       1.0  0.9854999999999999  0.4999999999999999  0.12316  1.0000
  C   C96       1.0  0.0599  0.4999999999999999  0.12361  1.0000
  C   C97       1.0  0.73431  0.91567  0.48042  1.0000
  C   C98       1.0  0.72819  0.8823299999999997  0.52175  1.0000
  C   C99       1.0  0.67488  0.84969  0.52422  1.0000
  C   C100      1.0  0.67169  0.8165999999999999  0.56125  1.0000
  C   C101      1.0  0.72234  0.8152699999999998  0.59662  1.0000
  C   C102      1.0  0.7747  0.84924  0.59464  1.0000
  C   C103      1.0  0.77737  0.8822999999999998  0.55763  1.0000
  C   C104      1.0  0.72245  0.7796  0.63249  1.0000
  C   C105      1.0  0.72541  0.7478999999999998  0.66256  1.0000
  C   C106      1.0  0.73011  0.7105599999999997  0.69652  1.0000
  C   C107      1.0  0.78154  0.71066  0.7313200000000001  1.0000
  C   C108      1.0  0.78664  0.6735699999999998  0.76421  1.0000
  C   C109      1.0  0.74111  0.6353199999999998  0.7630899999999999  1.0000
  C   C110      1.0  0.68992  0.63498  0.72861  1.0000
  C   C111      1.0  0.68414  0.6721299999999999  0.69586  1.0000
  C   C112      1.0  0.74709  0.59533  0.79817  1.0000
  C   C113      1.0  0.38112  0.04362  0.37933  1.0000
  C   C114      1.0  0.45058  0.04344  0.3776  1.0000
  C   C115      1.0  0.76613  0.58442  0.98033  1.0000
  C   C116      1.0  0.77179  0.6177699999999998  0.02166  1.0000
  C   C117      1.0  0.82508  0.65038  0.02421  1.0000
  C   C118      1.0  0.8283199999999998  0.68342  0.06124999999999999  1.0000
  C   C119      1.0  0.77767  0.6847199999999998  0.09658  1.0000
  C   C120      1.0  0.72532  0.65074  0.09457  1.0000
  C   C121      1.0  0.72261  0.6176999999999999  0.05753  1.0000
  C   C122      1.0  0.77757  0.72037  0.13243  1.0000
  C   C123      1.0  0.77456  0.7520499999999998  0.16251  1.0000
  C   C124      1.0  0.76984  0.78931  0.1965  1.0000
  C   C125      1.0  0.71841  0.78913  0.23126  1.0000
  C   C126      1.0  0.7132  0.82621  0.26416  1.0000
  C   C127      1.0  0.75857  0.8645499999999999  0.26287  1.0000
  C   C128      1.0  0.80985  0.8649  0.22855  1.0000
  C   C129      1.0  0.8157899999999999  0.8277499999999998  0.19587  1.0000
  C   C130      1.0  0.75264  0.9048999999999998  0.29744  1.0000
  C   C131      1.0  0.11913999999999998  0.4563599999999999  0.87933  1.0000
  C   C132      1.0  0.04968999999999999  0.4565499999999999  0.87759  1.0000
  C   C133      1.0  0.73431  0.08434  0.48042  1.0000
  C   C134      1.0  0.72819  0.11768  0.52175  1.0000
  C   C135      1.0  0.67488  0.15031  0.52422  1.0000
  C   C136      1.0  0.67169  0.18339999999999995  0.56125  1.0000
  C   C137      1.0  0.72234  0.18473  0.59662  1.0000
  C   C138      1.0  0.7747  0.15076999999999993  0.59464  1.0000
  C   C139      1.0  0.77737  0.1177  0.55763  1.0000
  C   C140      1.0  0.72245  0.2204  0.63249  1.0000
  C   C141      1.0  0.72541  0.2521  0.66256  1.0000
  C   C142      1.0  0.73011  0.28944  0.69652  1.0000
  C   C143      1.0  0.78154  0.28934  0.7313200000000001  1.0000
  C   C144      1.0  0.78664  0.3264299999999999  0.76421  1.0000
  C   C145      1.0  0.74111  0.36467999999999995  0.7630899999999999  1.0000
  C   C146      1.0  0.68992  0.36503  0.72861  1.0000
  C   C147      1.0  0.68414  0.32787  0.69586  1.0000
  C   C148      1.0  0.74709  0.40466999999999986  0.79817  1.0000
  C   C149      1.0  0.38112  0.95638  0.37933  1.0000
  C   C150      1.0  0.45058  0.9565599999999997  0.3776  1.0000
  C   C151      1.0  0.76613  0.41558  0.98033  1.0000
  C   C152      1.0  0.77179  0.38222999999999996  0.02166  1.0000
  C   C153      1.0  0.82508  0.34962  0.02421  1.0000
  C   C154      1.0  0.8283199999999998  0.31658  0.06124999999999999  1.0000
  C   C155      1.0  0.77767  0.31528  0.09658  1.0000
  C   C156      1.0  0.72532  0.3492599999999999  0.09457  1.0000
  C   C157      1.0  0.72261  0.38229999999999986  0.05753  1.0000
  C   C158      1.0  0.77757  0.27963  0.13243  1.0000
  C   C159      1.0  0.77456  0.24795  0.16251  1.0000
  C   C160      1.0  0.76984  0.21069  0.1965  1.0000
  C   C161      1.0  0.71841  0.21086999999999995  0.23126  1.0000
  C   C162      1.0  0.7132  0.17379  0.26416  1.0000
  C   C163      1.0  0.75857  0.13545  0.26287  1.0000
  C   C164      1.0  0.80985  0.13511  0.22855  1.0000
  C   C165      1.0  0.8157899999999999  0.17225  0.19587  1.0000
  C   C166      1.0  0.75264  0.09509999999999998  0.29744  1.0000
  C   C167      1.0  0.11913999999999998  0.54364  0.87933  1.0000
  C   C168      1.0  0.04968999999999999  0.54346  0.87759  1.0000
  C   C169      1.0  0.92797  0.0  0.38748  1.0000
  C   C170      1.0  0.00244  0.0  0.3869  1.0000
  C   C171      1.0  0.03649  0.0  0.34294  1.0000
  C   C172      1.0  0.1059  0.0  0.34174  1.0000
  C   C173      1.0  0.14296  0.0  0.38481  1.0000
  C   C174      1.0  0.10859000000000002  0.0  0.42896  1.0000
  C   C175      1.0  0.03908  0.0  0.42976  1.0000
  C   C176      1.0  0.21372999999999998  0.0  0.38361  1.0000
  C   C177      1.0  0.27473  0.0  0.38211  1.0000
  C   C178      1.0  0.34552  0.0  0.38029  1.0000
  C   C179      1.0  0.48588  0.0  0.37685  1.0000
  C   C180      1.0  0.56041  0.0  0.37639  1.0000
  C   C181      1.0  0.57241  0.4999999999999999  0.8877  1.0000
  C   C182      1.0  0.49787000000000003  0.4999999999999999  0.88712  1.0000
  C   C183      1.0  0.46375  0.4999999999999999  0.84314  1.0000
  C   C184      1.0  0.39434  0.4999999999999999  0.84188  1.0000
  C   C185      1.0  0.35727  0.4999999999999999  0.8849100000000001  1.0000
  C   C186      1.0  0.39165  0.4999999999999999  0.92908  1.0000
  C   C187      1.0  0.46119  0.4999999999999999  0.92994  1.0000
  C   C188      1.0  0.28649  0.4999999999999999  0.88363  1.0000
  C   C189      1.0  0.22550999999999996  0.4999999999999999  0.88212  1.0000
  C   C190      1.0  0.15471  0.4999999999999999  0.88029  1.0000
  C   C191      1.0  0.01449  0.4999999999999999  0.87684  1.0000
  C   C192      1.0  0.9400899999999999  0.4999999999999999  0.8764  1.0000
  O   O1        1.0  0.30975  0.91203  0.55264  1.0000
  O   O2        1.0  0.21613  0.9446299999999997  0.51902  1.0000
  O   O3        1.0  0.20886  0.5998499999999998  0.16889  1.0000
  O   O4        1.0  0.29255  0.5598  0.20773  1.0000
  O   O5        1.0  0.41045000000000004  0.04076  0.62371  1.0000
  O   O6        1.0  0.18988  0.5881899999999999  0.05274  1.0000
  O   O7        1.0  0.28291  0.5550699999999998  0.01901  1.0000
  O   O8        1.0  0.28988  0.9002199999999998  0.66872  1.0000
  O   O9        1.0  0.20903  0.9409099999999998  0.70974  1.0000
  O   O10       1.0  0.08896  0.45923  0.1237  1.0000
  O   O11       1.0  0.30975  0.08797  0.55264  1.0000
  O   O12       1.0  0.21613  0.05536999999999999  0.51902  1.0000
  O   O13       1.0  0.20886  0.40015  0.16889  1.0000
  O   O14       1.0  0.29255  0.44019999999999987  0.20773  1.0000
  O   O15       1.0  0.41045000000000004  0.9592499999999998  0.62371  1.0000
  O   O16       1.0  0.18988  0.4118099999999999  0.05274  1.0000
  O   O17       1.0  0.28291  0.44493  0.01901  1.0000
  O   O18       1.0  0.28988  0.09977999999999997  0.66872  1.0000
  O   O19       1.0  0.20903  0.05908999999999998  0.70974  1.0000
  O   O20       1.0  0.08896  0.5407699999999999  0.1237  1.0000
  O   O21       1.0  0.25598  0.0  0.61663  1.0000
  O   O22       1.0  0.10144  0.0  0.65311  1.0000
  O   O23       1.0  0.10081999999999999  0.0  0.57154  1.0000
  O   O24       1.0  0.24275  0.4999999999999999  0.1167  1.0000
  O   O25       1.0  0.39833  0.4999999999999999  0.15293  1.0000
  O   O26       1.0  0.39834  0.4999999999999999  0.07147  1.0000
  O   O27       1.0  0.69024  0.91203  0.44736  1.0000
  O   O28       1.0  0.78386  0.9446299999999997  0.48098  1.0000
  O   O29       1.0  0.7911299999999999  0.5998499999999998  0.83111  1.0000
  O   O30       1.0  0.70745  0.5598  0.79227  1.0000
  O   O31       1.0  0.58954  0.04076  0.37629  1.0000
  O   O32       1.0  0.81012  0.5881899999999999  0.94726  1.0000
  O   O33       1.0  0.71709  0.5550699999999998  0.981  1.0000
  O   O34       1.0  0.7101099999999999  0.9002199999999998  0.33128  1.0000
  O   O35       1.0  0.7909599999999999  0.9409099999999998  0.29027  1.0000
  O   O36       1.0  0.9110399999999998  0.45923  0.87631  1.0000
  O   O37       1.0  0.69024  0.08797  0.44736  1.0000
  O   O38       1.0  0.78386  0.05536999999999999  0.48098  1.0000
  O   O39       1.0  0.7911299999999999  0.40015  0.83111  1.0000
  O   O40       1.0  0.70745  0.44019999999999987  0.79227  1.0000
  O   O41       1.0  0.58954  0.9592499999999998  0.37629  1.0000
  O   O42       1.0  0.81012  0.4118099999999999  0.94726  1.0000
  O   O43       1.0  0.71709  0.44493  0.981  1.0000
  O   O44       1.0  0.7101099999999999  0.09977999999999997  0.33128  1.0000
  O   O45       1.0  0.7909599999999999  0.05908999999999998  0.29027  1.0000
  O   O46       1.0  0.9110399999999998  0.5407699999999999  0.87631  1.0000
  O   O47       1.0  0.74402  0.0  0.38337  1.0000
  O   O48       1.0  0.89855  0.0  0.34689  1.0000
  O   O49       1.0  0.8991699999999999  0.0  0.42846  1.0000
  O   O50       1.0  0.75725  0.4999999999999999  0.8833  1.0000
  O   O51       1.0  0.60166  0.4999999999999999  0.84707  1.0000
  O   O52       1.0  0.60166  0.4999999999999999  0.92853  1.0000
