data_image0
_chemical_formula_structural       Zn16H72C144O52
_chemical_formula_sum              "Zn16 H72 C144 O52"
_cell_length_a       17.34171
_cell_length_b       17.47137
_cell_length_c       17.34554
_cell_angle_alpha    90.34143
_cell_angle_beta     90.0
_cell_angle_gamma    90.0

_space_group_name_H-M_alt    "P 1"
_space_group_IT_number       1

loop_
  _space_group_symop_operation_xyz
  'x, y, z'

loop_
  _atom_site_type_symbol
  _atom_site_label
  _atom_site_symmetry_multiplicity
  _atom_site_fract_x
  _atom_site_fract_y
  _atom_site_fract_z
  _atom_site_occupancy
  Zn  Zn1       1.0  0.42658  0.10857  0.08086  1.0000
  Zn  Zn2       1.0  0.5758999999999997  0.16795  0.9941199999999998  1.0000
  Zn  Zn3       1.0  0.4170199999999999  0.26319  0.98666  1.0000
  Zn  Zn4       1.0  0.5136  0.26178  0.14235  1.0000
  Zn  Zn5       1.0  0.4314  0.60872  0.41244  1.0000
  Zn  Zn6       1.0  0.3495  0.7599  0.34301  1.0000
  Zn  Zn7       1.0  0.78354  0.32277  0.5019899999999998  1.0000
  Zn  Zn8       1.0  0.43992  0.76908  0.5025399999999999  1.0000
  Zn  Zn9       1.0  0.92658  0.89144  0.91913  1.0000
  Zn  Zn10      1.0  0.0759  0.83206  0.005879999999999998  1.0000
  Zn  Zn11      1.0  0.91702  0.73682  0.01333  1.0000
  Zn  Zn12      1.0  0.0136  0.73822  0.85765  1.0000
  Zn  Zn13      1.0  0.9314  0.39129  0.58755  1.0000
  Zn  Zn14      1.0  0.8494999999999999  0.24011  0.65699  1.0000
  Zn  Zn15      1.0  0.28354  0.67724  0.49800999999999995  1.0000
  Zn  Zn16      1.0  0.93992  0.23093  0.49746  1.0000
  H   H1        1.0  0.6946799999999997  0.97578  0.9668099999999998  1.0000
  H   H2        1.0  0.74197  0.7449099999999999  0.11926  1.0000
  H   H3        1.0  0.67385  0.6823599999999999  0.2177  1.0000
  H   H4        1.0  0.55425  0.71392  0.27179999999999993  1.0000
  H   H5        1.0  0.47359  0.81747  0.24300999999999998  1.0000
  H   H6        1.0  0.49035  0.9141  0.15197999999999995  1.0000
  H   H7        1.0  0.65411  0.21339  0.7716  1.0000
  H   H8        1.0  0.56595  0.32491  0.52877  1.0000
  H   H9        1.0  0.4477799999999999  0.3769  0.48638999999999993  1.0000
  H   H10       1.0  0.33094  0.38578  0.55265  1.0000
  H   H11       1.0  0.3021  0.34967  0.6789  1.0000
  H   H12       1.0  0.38384  0.29604  0.77269  1.0000
  H   H13       1.0  0.70521  0.27478  0.2704  1.0000
  H   H14       1.0  0.93425  0.11624  0.31674  1.0000
  H   H15       1.0  0.99981  0.02286  0.24388999999999997  1.0000
  H   H16       1.0  0.97191  0.9764599999999999  0.12001999999999999  1.0000
  H   H17       1.0  0.86771  0.007279999999999999  0.04011  1.0000
  H   H18       1.0  0.76816  0.09538  0.0613  1.0000
  H   H19       1.0  0.38976  0.9963700000000001  0.2702799999999999  1.0000
  H   H20       1.0  0.55601  0.94111  0.49211999999999995  1.0000
  H   H21       1.0  0.65612  0.00769  0.55444  1.0000
  H   H22       1.0  0.7056799999999998  0.12921  0.5275199999999999  1.0000
  H   H23       1.0  0.66891  0.21416  0.43051  1.0000
  H   H24       1.0  0.57235  0.20053  0.33693  1.0000
  H   H25       1.0  0.45504  0.4856599999999999  0.2241  1.0000
  H   H26       1.0  0.37711  0.4691600000000001  0.9528999999999999  1.0000
  H   H27       1.0  0.32647  0.5577  0.86457  1.0000
  H   H28       1.0  0.29255  0.6855499999999999  0.88504  1.0000
  H   H29       1.0  0.29822999999999994  0.7580199999999999  0.9983199999999999  1.0000
  H   H30       1.0  0.34299  0.72158  0.12109  1.0000
  H   H31       1.0  0.65444  0.51992  0.47454  1.0000
  H   H32       1.0  0.85537  0.57513  0.6646599999999999  1.0000
  H   H33       1.0  0.87466  0.67239  0.75668  1.0000
  H   H34       1.0  0.80317  0.7848  0.77594  1.0000
  H   H35       1.0  0.69072  0.82453  0.71338  1.0000
  H   H36       1.0  0.61982  0.7618999999999999  0.6161599999999998  1.0000
  H   H37       1.0  0.19468  0.02423  0.03319  1.0000
  H   H38       1.0  0.24197  0.25509  0.88074  1.0000
  H   H39       1.0  0.17385  0.31765  0.7823  1.0000
  H   H40       1.0  0.05426  0.28609  0.7282  1.0000
  H   H41       1.0  0.9735899999999998  0.18254  0.75699  1.0000
  H   H42       1.0  0.99035  0.0859  0.8480199999999998  1.0000
  H   H43       1.0  0.15410999999999997  0.78662  0.2284  1.0000
  H   H44       1.0  0.06594999999999998  0.67509  0.4712299999999999  1.0000
  H   H45       1.0  0.9477799999999998  0.62311  0.51361  1.0000
  H   H46       1.0  0.83094  0.61423  0.44734  1.0000
  H   H47       1.0  0.8021  0.65034  0.3211  1.0000
  H   H48       1.0  0.88384  0.70396  0.22731  1.0000
  H   H49       1.0  0.20521  0.72523  0.7295999999999998  1.0000
  H   H50       1.0  0.43425  0.88377  0.68326  1.0000
  H   H51       1.0  0.49981  0.9771400000000001  0.75611  1.0000
  H   H52       1.0  0.47191  0.023549999999999998  0.8799799999999998  1.0000
  H   H53       1.0  0.3677099999999999  0.99273  0.95989  1.0000
  H   H54       1.0  0.26816  0.90463  0.9386999999999999  1.0000
  H   H55       1.0  0.88976  0.0036399999999999996  0.72972  1.0000
  H   H56       1.0  0.05601  0.05890000000000001  0.50788  1.0000
  H   H57       1.0  0.15612  0.99232  0.44556  1.0000
  H   H58       1.0  0.20569  0.8708  0.47248  1.0000
  H   H59       1.0  0.16892  0.78585  0.56949  1.0000
  H   H60       1.0  0.07235  0.79947  0.66307  1.0000
  H   H61       1.0  0.9550399999999999  0.51434  0.7758999999999998  1.0000
  H   H62       1.0  0.87711  0.53085  0.0471  1.0000
  H   H63       1.0  0.82647  0.44231  0.13543  1.0000
  H   H64       1.0  0.79255  0.31445  0.11496  1.0000
  H   H65       1.0  0.79823  0.24199  0.00168  1.0000
  H   H66       1.0  0.8429899999999999  0.27843  0.87891  1.0000
  H   H67       1.0  0.15444  0.4800900000000001  0.52546  1.0000
  H   H68       1.0  0.35537  0.42488  0.33534  1.0000
  H   H69       1.0  0.37466  0.32762  0.24332  1.0000
  H   H70       1.0  0.30317  0.21521  0.22406  1.0000
  H   H71       1.0  0.19072  0.17548  0.28662  1.0000
  H   H72       1.0  0.11982  0.23811  0.38383999999999996  1.0000
  C   C1        1.0  0.54977  0.00814  0.03550999999999999  1.0000
  C   C2        1.0  0.60287  0.94471  0.049469999999999986  1.0000
  C   C3        1.0  0.67373  0.9370100000000001  0.010639999999999998  1.0000
  C   C4        1.0  0.71311  0.87167  0.03647  1.0000
  C   C5        1.0  0.66694  0.83583  0.0945  1.0000
  C   C6        1.0  0.59675  0.88309  0.10341  1.0000
  C   C7        1.0  0.68695  0.77025  0.13583  1.0000
  C   C8        1.0  0.64623  0.73324  0.19427  1.0000
  C   C9        1.0  0.57493  0.75225  0.22683  1.0000
  C   C10       1.0  0.52642  0.81356  0.20931  1.0000
  C   C11       1.0  0.53604  0.87143  0.15488  1.0000
  C   C12       1.0  0.78922  0.8489899999999999  0.007919999999999998  1.0000
  C   C13       1.0  0.51593  0.24043999999999996  0.85153  1.0000
  C   C14       1.0  0.5333099999999998  0.25349  0.77016  1.0000
  C   C15       1.0  0.60663  0.23801  0.73967  1.0000
  C   C16       1.0  0.6107399999999998  0.26185  0.66271  1.0000
  C   C17       1.0  0.5373699999999999  0.29297  0.6415799999999998  1.0000
  C   C18       1.0  0.4872  0.28655  0.71042  1.0000
  C   C19       1.0  0.51856  0.32427  0.57003  1.0000
  C   C20       1.0  0.44838  0.35488  0.5451199999999998  1.0000
  C   C21       1.0  0.37858  0.3608  0.58507  1.0000
  C   C22       1.0  0.36142  0.33932  0.66073  1.0000
  C   C23       1.0  0.40954  0.30708999999999986  0.7164899999999998  1.0000
  C   C24       1.0  0.68315  0.25814  0.62002  1.0000
  C   C25       1.0  0.67363  0.21052  0.12293  1.0000
  C   C26       1.0  0.73613  0.19346  0.17713999999999996  1.0000
  C   C27       1.0  0.74364  0.23052000000000003  0.24910999999999997  1.0000
  C   C28       1.0  0.80812  0.20229  0.2891799999999999  1.0000
  C   C29       1.0  0.84424  0.14516  0.24149  1.0000
  C   C30       1.0  0.79804  0.13937999999999998  0.17008  1.0000
  C   C31       1.0  0.91021  0.10303  0.2601699999999999  1.0000
  C   C32       1.0  0.9489799999999999  0.04753  0.21661  1.0000
  C   C33       1.0  0.9319  0.01913  0.14300999999999994  1.0000
  C   C34       1.0  0.87043  0.03827  0.09472  1.0000
  C   C35       1.0  0.81098  0.09089  0.10702  1.0000
  C   C36       1.0  0.8299599999999998  0.22925  0.36651  1.0000
  C   C37       1.0  0.45638  0.14202  0.24152999999999997  1.0000
  C   C38       1.0  0.47179  0.08777  0.3035099999999999  1.0000
  C   C39       1.0  0.43485  0.01625  0.30876  1.0000
  C   C40       1.0  0.46507000000000004  0.9742499999999998  0.37071  1.0000
  C   C41       1.0  0.5239299999999999  0.019649999999999997  0.4069599999999999  1.0000
  C   C42       1.0  0.52843  0.09206  0.36368  1.0000
  C   C43       1.0  0.56942  0.99763  0.46962999999999994  1.0000
  C   C44       1.0  0.62892  0.03747  0.50652  1.0000
  C   C45       1.0  0.65875  0.10992  0.49023  1.0000
  C   C46       1.0  0.63652  0.16087  0.43257  1.0000
  C   C47       1.0  0.57898  0.15302  0.3767599999999999  1.0000
  C   C48       1.0  0.43997  0.89668  0.3898999999999999  1.0000
  C   C49       1.0  0.43424  0.39973  0.08663  1.0000
  C   C50       1.0  0.41677  0.48019  0.10249  1.0000
  C   C51       1.0  0.42973  0.51428  0.17498  1.0000
  C   C52       1.0  0.40386  0.5905  0.17522999999999994  1.0000
  C   C53       1.0  0.40671  0.6382  0.24480999999999997  1.0000
  C   C54       1.0  0.38364  0.53683  0.053059999999999996  1.0000
  C   C55       1.0  0.36532  0.5264  0.9752399999999999  1.0000
  C   C56       1.0  0.33514  0.57914  0.92309  1.0000
  C   C57       1.0  0.3147  0.65563  0.9354  1.0000
  C   C58       1.0  0.31863  0.6992  0.003169999999999999  1.0000
  C   C59       1.0  0.34516  0.67783  0.07606999999999997  1.0000
  C   C60       1.0  0.3747  0.60738  0.09986999999999999  1.0000
  C   C61       1.0  0.56519  0.65182  0.50909  1.0000
  C   C62       1.0  0.64015  0.62789  0.54017  1.0000
  C   C63       1.0  0.67681  0.55975  0.51711  1.0000
  C   C64       1.0  0.74667  0.55039  0.55735  1.0000
  C   C65       1.0  0.75472  0.61337  0.6099899999999998  1.0000
  C   C66       1.0  0.68736  0.66385  0.59799  1.0000
  C   C67       1.0  0.8134  0.62157  0.66469  1.0000
  C   C68       1.0  0.82482  0.67976  0.7190699999999998  1.0000
  C   C69       1.0  0.78138  0.74615  0.73131  1.0000
  C   C70       1.0  0.71421  0.76991  0.69373  1.0000
  C   C71       1.0  0.6720599999999999  0.73321  0.63557  1.0000
  C   C72       1.0  0.7975599999999998  0.48461  0.54484  1.0000
  C   C73       1.0  0.049769999999999995  0.99187  0.96449  1.0000
  C   C74       1.0  0.10287  0.0553  0.9505299999999999  1.0000
  C   C75       1.0  0.17374  0.063  0.9893599999999999  1.0000
  C   C76       1.0  0.21311  0.12834  0.96353  1.0000
  C   C77       1.0  0.16694  0.16418  0.9055  1.0000
  C   C78       1.0  0.09675  0.11692000000000001  0.8965899999999998  1.0000
  C   C79       1.0  0.18695  0.22975999999999996  0.86417  1.0000
  C   C80       1.0  0.14623  0.26676  0.8057299999999997  1.0000
  C   C81       1.0  0.07493  0.24775  0.7731699999999998  1.0000
  C   C82       1.0  0.026419999999999996  0.18645  0.79069  1.0000
  C   C83       1.0  0.03604  0.12858  0.84512  1.0000
  C   C84       1.0  0.28922  0.15102  0.99208  1.0000
  C   C85       1.0  0.01593  0.75957  0.14847  1.0000
  C   C86       1.0  0.03331  0.74651  0.22984  1.0000
  C   C87       1.0  0.10663  0.762  0.26033  1.0000
  C   C88       1.0  0.11074  0.73816  0.33729  1.0000
  C   C89       1.0  0.03737  0.70704  0.35842  1.0000
  C   C90       1.0  0.9872  0.71345  0.28958  1.0000
  C   C91       1.0  0.01856  0.67573  0.42996  1.0000
  C   C92       1.0  0.9483799999999999  0.64513  0.4548799999999999  1.0000
  C   C93       1.0  0.87858  0.63921  0.41493  1.0000
  C   C94       1.0  0.86141  0.66069  0.3392699999999999  1.0000
  C   C95       1.0  0.90954  0.69292  0.28351  1.0000
  C   C96       1.0  0.18315  0.74187  0.37998  1.0000
  C   C97       1.0  0.17363  0.78949  0.8770699999999998  1.0000
  C   C98       1.0  0.23613  0.80654  0.8228599999999998  1.0000
  C   C99       1.0  0.24364  0.76948  0.75089  1.0000
  C   C100      1.0  0.30812  0.79772  0.7108099999999998  1.0000
  C   C101      1.0  0.34424  0.85485  0.75851  1.0000
  C   C102      1.0  0.29804  0.86063  0.82992  1.0000
  C   C103      1.0  0.41021  0.89698  0.73983  1.0000
  C   C104      1.0  0.44898  0.9524799999999999  0.7833899999999998  1.0000
  C   C105      1.0  0.4319  0.9808800000000001  0.85699  1.0000
  C   C106      1.0  0.37044  0.96174  0.90528  1.0000
  C   C107      1.0  0.31099  0.90912  0.89298  1.0000
  C   C108      1.0  0.32996  0.77076  0.63349  1.0000
  C   C109      1.0  0.95638  0.85799  0.75847  1.0000
  C   C110      1.0  0.9717799999999999  0.91224  0.6964899999999998  1.0000
  C   C111      1.0  0.93485  0.98375  0.69124  1.0000
  C   C112      1.0  0.96507  0.02576  0.62929  1.0000
  C   C113      1.0  0.02393  0.98036  0.59304  1.0000
  C   C114      1.0  0.02843  0.90794  0.63632  1.0000
  C   C115      1.0  0.06942  0.00238  0.53037  1.0000
  C   C116      1.0  0.12892  0.96254  0.4934799999999999  1.0000
  C   C117      1.0  0.15875  0.89009  0.5097699999999997  1.0000
  C   C118      1.0  0.13652  0.83914  0.56742  1.0000
  C   C119      1.0  0.07898  0.84699  0.62324  1.0000
  C   C120      1.0  0.9399599999999999  0.10333  0.6100999999999999  1.0000
  C   C121      1.0  0.9342400000000001  0.60028  0.9133699999999998  1.0000
  C   C122      1.0  0.9167699999999998  0.5198199999999998  0.8975099999999998  1.0000
  C   C123      1.0  0.9297300000000001  0.48573  0.8250199999999998  1.0000
  C   C124      1.0  0.90386  0.40951  0.82477  1.0000
  C   C125      1.0  0.90671  0.36181  0.75519  1.0000
  C   C126      1.0  0.88364  0.46318  0.9469399999999999  1.0000
  C   C127      1.0  0.86532  0.47361  0.02476  1.0000
  C   C128      1.0  0.83513  0.42086  0.0769  1.0000
  C   C129      1.0  0.8147  0.34438  0.0646  1.0000
  C   C130      1.0  0.81863  0.30081  0.9968299999999998  1.0000
  C   C131      1.0  0.84516  0.32218  0.9239299999999999  1.0000
  C   C132      1.0  0.8747  0.39263  0.9001299999999999  1.0000
  C   C133      1.0  0.06519  0.34819  0.49091  1.0000
  C   C134      1.0  0.14014999999999997  0.37212  0.45983  1.0000
  C   C135      1.0  0.17681  0.44025  0.48289  1.0000
  C   C136      1.0  0.24666999999999997  0.44961  0.44265  1.0000
  C   C137      1.0  0.25472  0.38664  0.3900099999999999  1.0000
  C   C138      1.0  0.18736  0.33616  0.40201  1.0000
  C   C139      1.0  0.3134  0.37843  0.33531  1.0000
  C   C140      1.0  0.32481999999999994  0.32025  0.2809299999999999  1.0000
  C   C141      1.0  0.28138  0.25386  0.26869  1.0000
  C   C142      1.0  0.21420999999999998  0.23009000000000002  0.30627  1.0000
  C   C143      1.0  0.17206  0.2668  0.36443  1.0000
  C   C144      1.0  0.29756  0.51539  0.45516  1.0000
  O   O1        1.0  0.48407999999999995  0.2007  0.05152  1.0000
  O   O2        1.0  0.4890999999999999  0.014929999999999999  0.07834  1.0000
  O   O3        1.0  0.56627  0.05441  0.9805  1.0000
  O   O4        1.0  0.82776  0.9010999999999999  0.9723199999999999  1.0000
  O   O5        1.0  0.81234  0.78017  0.019499999999999993  1.0000
  O   O6        1.0  0.57069  0.20956  0.8907299999999998  1.0000
  O   O7        1.0  0.44991  0.26104  0.87825  1.0000
  O   O8        1.0  0.73799  0.22016  0.65178  1.0000
  O   O9        1.0  0.68777  0.2922  0.55454  1.0000
  O   O10       1.0  0.6681899999999998  0.17067  0.06003  1.0000
  O   O11       1.0  0.6280499999999999  0.26564  0.14092  1.0000
  O   O12       1.0  0.89056  0.20125  0.39852  1.0000
  O   O13       1.0  0.78542  0.27995  0.39738  1.0000
  O   O14       1.0  0.49614  0.20438  0.23844  1.0000
  O   O15       1.0  0.40358  0.12452  0.19209  1.0000
  O   O16       1.0  0.46466  0.86709  0.45298  1.0000
  O   O17       1.0  0.39477  0.86333  0.34118  1.0000
  O   O18       1.0  0.46498999999999996  0.36252  0.14289  1.0000
  O   O19       1.0  0.4178  0.3712  0.020069999999999994  1.0000
  O   O20       1.0  0.44937  0.61385  0.30011  1.0000
  O   O21       1.0  0.36731  0.7009  0.24705999999999997  1.0000
  O   O22       1.0  0.37527  0.7039  0.43763  1.0000
  O   O23       1.0  0.53907  0.71845  0.5272999999999998  1.0000
  O   O24       1.0  0.53093  0.60274  0.46503  1.0000
  O   O25       1.0  0.86224  0.48107  0.5816399999999999  1.0000
  O   O26       1.0  0.77391  0.43451  0.49584  1.0000
  O   O27       1.0  0.9840799999999998  0.79931  0.94848  1.0000
  O   O28       1.0  0.9891  0.9850799999999998  0.92166  1.0000
  O   O29       1.0  0.06627999999999999  0.9455900000000002  0.019499999999999993  1.0000
  O   O30       1.0  0.32776  0.09890999999999998  0.02768  1.0000
  O   O31       1.0  0.31234  0.21984  0.9805  1.0000
  O   O32       1.0  0.0707  0.79045  0.10926999999999999  1.0000
  O   O33       1.0  0.94991  0.73897  0.12175  1.0000
  O   O34       1.0  0.23799  0.77985  0.34821  1.0000
  O   O35       1.0  0.18777  0.7078  0.44546  1.0000
  O   O36       1.0  0.1682  0.82934  0.93997  1.0000
  O   O37       1.0  0.12805  0.73437  0.8590799999999997  1.0000
  O   O38       1.0  0.39056  0.79876  0.60148  1.0000
  O   O39       1.0  0.28542  0.7200599999999999  0.60262  1.0000
  O   O40       1.0  0.9961400000000001  0.7956299999999998  0.7615599999999998  1.0000
  O   O41       1.0  0.90358  0.87549  0.80791  1.0000
  O   O42       1.0  0.96466  0.13292  0.54702  1.0000
  O   O43       1.0  0.8947699999999997  0.13667  0.65882  1.0000
  O   O44       1.0  0.96499  0.63749  0.8571099999999999  1.0000
  O   O45       1.0  0.9178  0.62881  0.97993  1.0000
  O   O46       1.0  0.94937  0.38616  0.69989  1.0000
  O   O47       1.0  0.86731  0.29911  0.75294  1.0000
  O   O48       1.0  0.87527  0.29611  0.56237  1.0000
  O   O49       1.0  0.03907  0.28156  0.4727  1.0000
  O   O50       1.0  0.03093  0.39726  0.53497  1.0000
  O   O51       1.0  0.36224  0.51894  0.4183599999999999  1.0000
  O   O52       1.0  0.27391  0.5655  0.50416  1.0000
