data_image0
_chemical_formula_structural       Cd8H72C100S8N8O32
_chemical_formula_sum              "Cd8 H72 C100 S8 N8 O32"
_cell_length_a       10.2129
_cell_length_b       10.656399999999998
_cell_length_c       28.212170000000004
_cell_angle_alpha    89.82429
_cell_angle_beta     89.84788999999999
_cell_angle_gamma    103.72036

_space_group_name_H-M_alt    "P 1"
_space_group_IT_number       1

loop_
  _space_group_symop_operation_xyz
  'x, y, z'

loop_
  _atom_site_type_symbol
  _atom_site_label
  _atom_site_symmetry_multiplicity
  _atom_site_fract_x
  _atom_site_fract_y
  _atom_site_fract_z
  _atom_site_occupancy
  Cd  Cd1       1.0  0.06168999999999998  0.94241  0.30508  1.0000
  Cd  Cd2       1.0  0.08365  0.10794000000000001  0.41267  1.0000
  Cd  Cd3       1.0  0.44133000000000006  0.55762  0.80428  1.0000
  Cd  Cd4       1.0  0.4169  0.3900100000000001  0.91248  1.0000
  Cd  Cd5       1.0  0.9383100000000001  0.05759000000000001  0.69492  1.0000
  Cd  Cd6       1.0  0.91635  0.89207  0.58732  1.0000
  Cd  Cd7       1.0  0.55867  0.44239  0.19571  1.0000
  Cd  Cd8       1.0  0.5831  0.60999  0.08752  1.0000
  H   H1        1.0  0.53971  0.27917  0.37733  1.0000
  H   H2        1.0  0.78873  0.24489000000000002  0.3786  1.0000
  H   H3        1.0  0.79705  0.42732  0.48651  1.0000
  H   H4        1.0  0.8043000000000001  0.67792  0.47524  1.0000
  H   H5        1.0  0.8177700000000001  0.85909  0.23235  1.0000
  H   H6        1.0  0.7565  0.92629  0.15197000000000002  1.0000
  H   H7        1.0  0.1748  0.12375  0.13297  1.0000
  H   H8        1.0  0.22057000000000002  0.04198  0.21285  1.0000
  H   H9        1.0  0.0046300000000000004  0.0987  0.06481  1.0000
  H   H10       1.0  0.82974  0.04025  0.07713  1.0000
  H   H11       1.0  0.007340000000000001  0.28643  0.12079000000000002  1.0000
  H   H12       1.0  0.83174  0.23291000000000003  0.12747  1.0000
  H   H13       1.0  0.80302  0.26573  0.03951  1.0000
  H   H14       1.0  0.8781000000000001  0.4080200000000001  0.07073  1.0000
  H   H15       1.0  0.9366300000000001  0.17281  0.9808900000000003  1.0000
  H   H16       1.0  0.14543  0.21010000000000004  0.9312300000000002  1.0000
  H   H17       1.0  0.3256800000000001  0.5367600000000001  0.00783  1.0000
  H   H18       1.0  0.12825  0.50961  0.06166  1.0000
  H   H19       1.0  0.9608100000000002  0.22217  0.87924  1.0000
  H   H20       1.0  0.71204  0.25722000000000006  0.8798900000000001  1.0000
  H   H21       1.0  0.70134  0.06994  0.9860000000000001  1.0000
  H   H22       1.0  0.69585  0.8198500000000001  0.97408  1.0000
  H   H23       1.0  0.682  0.6418399999999999  0.73018  1.0000
  H   H24       1.0  0.74291  0.57547  0.64976  1.0000
  H   H25       1.0  0.32464  0.37747  0.63217  1.0000
  H   H26       1.0  0.27942  0.45792  0.7122300000000001  1.0000
  H   H27       1.0  0.49478  0.40275000000000005  0.56346  1.0000
  H   H28       1.0  0.66962  0.46183  0.5753  1.0000
  H   H29       1.0  0.49304  0.21572000000000002  0.6202200000000001  1.0000
  H   H30       1.0  0.6686  0.26977  0.62621  1.0000
  H   H31       1.0  0.69707  0.23559000000000002  0.53842  1.0000
  H   H32       1.0  0.62233  0.09388  0.57045  1.0000
  H   H33       1.0  0.56301  0.32732  0.47955  1.0000
  H   H34       1.0  0.35513  0.28743  0.42989  1.0000
  H   H35       1.0  0.17584000000000005  0.96164  0.50825  1.0000
  H   H36       1.0  0.37243999999999994  0.99102  0.562  1.0000
  H   H37       1.0  0.46029  0.72083  0.62267  1.0000
  H   H38       1.0  0.21127  0.75511  0.6214  1.0000
  H   H39       1.0  0.20295  0.57268  0.51349  1.0000
  H   H40       1.0  0.1957  0.32209  0.52475  1.0000
  H   H41       1.0  0.18223  0.14092  0.7676400000000002  1.0000
  H   H42       1.0  0.2435  0.07371  0.84803  1.0000
  H   H43       1.0  0.8252  0.87625  0.8670300000000001  1.0000
  H   H44       1.0  0.77943  0.95803  0.78715  1.0000
  H   H45       1.0  0.99537  0.9013100000000001  0.93519  1.0000
  H   H46       1.0  0.17026000000000005  0.9597500000000001  0.92287  1.0000
  H   H47       1.0  0.9926599999999999  0.71358  0.87921  1.0000
  H   H48       1.0  0.16826  0.76709  0.8725300000000002  1.0000
  H   H49       1.0  0.19698  0.73427  0.9604900000000002  1.0000
  H   H50       1.0  0.1219  0.59199  0.9292700000000002  1.0000
  H   H51       1.0  0.06337000000000004  0.8272000000000002  0.01911  1.0000
  H   H52       1.0  0.85457  0.7899  0.06877  1.0000
  H   H53       1.0  0.67432  0.46324  0.99216  1.0000
  H   H54       1.0  0.87175  0.49039  0.9383400000000002  1.0000
  H   H55       1.0  0.03919  0.77783  0.12075  1.0000
  H   H56       1.0  0.28796  0.74279  0.12010000000000001  1.0000
  H   H57       1.0  0.29866000000000004  0.9300600000000002  0.014000000000000002  1.0000
  H   H58       1.0  0.30415  0.18016  0.02591  1.0000
  H   H59       1.0  0.318  0.35816  0.26982  1.0000
  H   H60       1.0  0.25709  0.42454000000000003  0.35024  1.0000
  H   H61       1.0  0.67536  0.62253  0.3678300000000001  1.0000
  H   H62       1.0  0.72058  0.54209  0.28777  1.0000
  H   H63       1.0  0.50522  0.59726  0.4365300000000001  1.0000
  H   H64       1.0  0.33038  0.53818  0.42469  1.0000
  H   H65       1.0  0.50696  0.78428  0.37977  1.0000
  H   H66       1.0  0.3314  0.73024  0.37379  1.0000
  H   H67       1.0  0.30293  0.76442  0.4615800000000001  1.0000
  H   H68       1.0  0.37767  0.9061200000000001  0.42955  1.0000
  H   H69       1.0  0.43699  0.67268  0.52044  1.0000
  H   H70       1.0  0.64487  0.71257  0.5701  1.0000
  H   H71       1.0  0.8241599999999999  0.038360000000000005  0.49175  1.0000
  H   H72       1.0  0.62756  0.00899  0.438  1.0000
  C   C1        1.0  0.4821  0.10116000000000001  0.33711  1.0000
  C   C2        1.0  0.57086  0.19842  0.36137  1.0000
  C   C3        1.0  0.7034  0.18090000000000003  0.3616500000000001  1.0000
  C   C4        1.0  0.71323  0.06826  0.33864  1.0000
  C   C5        1.0  0.33545  0.08207  0.33048  1.0000
  C   C6        1.0  0.8320500000000001  0.01557  0.33136  1.0000
  C   C7        1.0  0.95885  0.45313  0.43477000000000005  1.0000
  C   C8        1.0  0.86274  0.49259  0.46214  1.0000
  C   C9        1.0  0.86714  0.6253600000000001  0.45634  1.0000
  C   C10       1.0  0.96501  0.6846  0.42381  1.0000
  C   C11       1.0  0.99489  0.32701  0.43289  1.0000
  C   C12       1.0  0.008679999999999997  0.8202800000000001  0.4085300000000001  1.0000
  C   C13       1.0  0.8937600000000002  0.9159200000000002  0.20880000000000007  1.0000
  C   C14       1.0  0.86012  0.95592  0.16444000000000006  1.0000
  C   C15       1.0  0.9600099999999999  0.03506  0.13639  1.0000
  C   C16       1.0  0.09273  0.06413  0.15357  1.0000
  C   C17       1.0  0.11937  0.019669999999999997  0.198  1.0000
  C   C18       1.0  0.9256300000000001  0.09647  0.09154  1.0000
  C   C19       1.0  0.91528  0.23573000000000002  0.10253  1.0000
  C   C20       1.0  0.89443  0.31502  0.05856  1.0000
  C   C21       1.0  0.014490000000000017  0.3380000000000001  0.025990000000000006  1.0000
  C   C22       1.0  0.021360000000000014  0.2535800000000001  0.9885100000000001  1.0000
  C   C23       1.0  0.13660000000000003  0.27375000000000005  0.9605200000000002  1.0000
  C   C24       1.0  0.23864  0.45614  0.00329  1.0000
  C   C25       1.0  0.12702000000000002  0.4406300000000001  0.03315  1.0000
  C   C26       1.0  0.019419999999999982  0.39803  0.83729  1.0000
  C   C27       1.0  0.93  0.30202  0.86231  1.0000
  C   C28       1.0  0.7976500000000001  0.31994  0.8623  1.0000
  C   C29       1.0  0.78806  0.43105000000000004  0.8379800000000002  1.0000
  C   C30       1.0  0.16644  0.41585  0.83127  1.0000
  C   C31       1.0  0.66831  0.48187  0.8304500000000001  1.0000
  C   C32       1.0  0.53965  0.04454  0.9345600000000002  1.0000
  C   C33       1.0  0.63612  0.005060000000000001  0.96163  1.0000
  C   C34       1.0  0.63278  0.87269  0.9554600000000002  1.0000
  C   C35       1.0  0.53535  0.81407  0.9229800000000001  1.0000
  C   C36       1.0  0.50172  0.16971  0.9328000000000002  1.0000
  C   C37       1.0  0.49197  0.6787  0.90773  1.0000
  C   C38       1.0  0.60589  0.58504  0.7069500000000001  1.0000
  C   C39       1.0  0.63933  0.54554  0.66252  1.0000
  C   C40       1.0  0.53938  0.46659  0.6348400000000002  1.0000
  C   C41       1.0  0.40676000000000007  0.43709  0.6524600000000003  1.0000
  C   C42       1.0  0.38042000000000004  0.48089  0.69699  1.0000
  C   C43       1.0  0.57385  0.40536  0.59004  1.0000
  C   C44       1.0  0.58481  0.26639  0.6015  1.0000
  C   C45       1.0  0.60571  0.18654  0.55784  1.0000
  C   C46       1.0  0.48574  0.16256  0.52549  1.0000
  C   C47       1.0  0.47872  0.24618  0.48758000000000007  1.0000
  C   C48       1.0  0.36396  0.22462  0.4595800000000001  1.0000
  C   C49       1.0  0.26243  0.042640000000000004  0.50329  1.0000
  C   C50       1.0  0.37366  0.05947  0.53314  1.0000
  C   C51       1.0  0.5179000000000001  0.8988400000000002  0.66289  1.0000
  C   C52       1.0  0.42914  0.80158  0.6386300000000001  1.0000
  C   C53       1.0  0.2966  0.8191  0.6383400000000002  1.0000
  C   C54       1.0  0.28677  0.93174  0.66135  1.0000
  C   C55       1.0  0.66455  0.91794  0.66952  1.0000
  C   C56       1.0  0.16795000000000004  0.98444  0.66864  1.0000
  C   C57       1.0  0.04115000000000001  0.54688  0.56522  1.0000
  C   C58       1.0  0.13726  0.50741  0.53786  1.0000
  C   C59       1.0  0.13286  0.37465  0.54366  1.0000
  C   C60       1.0  0.03499  0.31541  0.57619  1.0000
  C   C61       1.0  0.005109999999999987  0.67299  0.56711  1.0000
  C   C62       1.0  0.99132  0.17972  0.5914700000000002  1.0000
  C   C63       1.0  0.10624000000000001  0.08408999999999998  0.7912  1.0000
  C   C64       1.0  0.13988  0.04409  0.83555  1.0000
  C   C65       1.0  0.039990000000000005  0.96495  0.86361  1.0000
  C   C66       1.0  0.90727  0.93587  0.84643  1.0000
  C   C67       1.0  0.88063  0.9803400000000001  0.8019900000000001  1.0000
  C   C68       1.0  0.07437000000000005  0.90353  0.90846  1.0000
  C   C69       1.0  0.08472000000000002  0.7642800000000001  0.8974700000000002  1.0000
  C   C70       1.0  0.10557  0.68498  0.94144  1.0000
  C   C71       1.0  0.9855099999999999  0.662  0.974  1.0000
  C   C72       1.0  0.9786400000000002  0.74642  0.01149  1.0000
  C   C73       1.0  0.8633999999999998  0.72626  0.03948  1.0000
  C   C74       1.0  0.76136  0.5438600000000001  0.9967  1.0000
  C   C75       1.0  0.87298  0.55938  0.9668500000000001  1.0000
  C   C76       1.0  0.9805800000000002  0.6019800000000001  0.1627  1.0000
  C   C77       1.0  0.07000000000000008  0.6979800000000002  0.13769  1.0000
  C   C78       1.0  0.20235  0.68007  0.13769  1.0000
  C   C79       1.0  0.21194  0.56896  0.16201  1.0000
  C   C80       1.0  0.8335600000000001  0.58415  0.16872000000000006  1.0000
  C   C81       1.0  0.33169000000000004  0.51814  0.16954000000000005  1.0000
  C   C82       1.0  0.46035  0.95546  0.06544  1.0000
  C   C83       1.0  0.36388  0.99495  0.03837000000000001  1.0000
  C   C84       1.0  0.36722  0.12732  0.04454  1.0000
  C   C85       1.0  0.46465  0.18594000000000002  0.07701  1.0000
  C   C86       1.0  0.49829  0.8303000000000001  0.0672  1.0000
  C   C87       1.0  0.50803  0.32131  0.09226  1.0000
  C   C88       1.0  0.39411  0.41496000000000005  0.29305  1.0000
  C   C89       1.0  0.36067  0.45446  0.33747000000000005  1.0000
  C   C90       1.0  0.46062  0.53342  0.36515  1.0000
  C   C91       1.0  0.59324  0.5629100000000001  0.34754000000000007  1.0000
  C   C92       1.0  0.61958  0.51912  0.303  1.0000
  C   C93       1.0  0.42615  0.59465  0.40996  1.0000
  C   C94       1.0  0.41519  0.73362  0.3985  1.0000
  C   C95       1.0  0.39428999999999986  0.8134700000000001  0.44215  1.0000
  C   C96       1.0  0.51426  0.83744  0.4745  1.0000
  C   C97       1.0  0.52128  0.75383  0.51242  1.0000
  C   C98       1.0  0.63604  0.77539  0.54042  1.0000
  C   C99       1.0  0.7375700000000001  0.9573600000000001  0.49671  1.0000
  C   C100      1.0  0.62634  0.9405400000000002  0.46686  1.0000
  S   S1        1.0  0.56092  0.98748  0.31481  1.0000
  S   S2        1.0  0.051250000000000025  0.57757  0.4007100000000001  1.0000
  S   S3        1.0  0.94095  0.51068  0.81363  1.0000
  S   S4        1.0  0.44835  0.92096  0.90035  1.0000
  S   S5        1.0  0.4390800000000001  0.012520000000000002  0.68519  1.0000
  S   S6        1.0  0.94875  0.42243  0.5992800000000003  1.0000
  S   S7        1.0  0.05905  0.48933000000000004  0.18637000000000006  1.0000
  S   S8        1.0  0.55165  0.07904  0.09965  1.0000
  N   N1        1.0  0.020889999999999957  0.94867  0.22584  1.0000
  N   N2        1.0  0.24376999999999996  0.3738  0.96744  1.0000
  N   N3        1.0  0.4789800000000001  0.5518300000000002  0.72446  1.0000
  N   N4        1.0  0.25731  0.12407  0.46694  1.0000
  N   N5        1.0  0.97911  0.05134  0.77416  1.0000
  N   N6        1.0  0.75623  0.6262  0.03256  1.0000
  N   N7        1.0  0.52102  0.44817  0.27554  1.0000
  N   N8        1.0  0.7426900000000001  0.8759400000000003  0.53306  1.0000
  O   O1        1.0  0.28436  0.0009700000000000004  0.29768  1.0000
  O   O2        1.0  0.27171  0.14298  0.3568700000000001  1.0000
  O   O3        1.0  0.8172799999999999  0.90245  0.31447  1.0000
  O   O4        1.0  0.9498700000000001  0.08873  0.34038  1.0000
  O   O5        1.0  0.10366000000000002  0.32546  0.40951  1.0000
  O   O6        1.0  0.9208400000000001  0.22839  0.45246  1.0000
  O   O7        1.0  0.09274999999999999  0.8431300000000002  0.3737500000000001  1.0000
  O   O8        1.0  0.96616  0.90608  0.43118  1.0000
  O   O9        1.0  0.21985  0.49401000000000006  0.7976400000000002  1.0000
  O   O10       1.0  0.22784  0.35641  0.85907  1.0000
  O   O11       1.0  0.6817700000000001  0.5941700000000001  0.8124900000000003  1.0000
  O   O12       1.0  0.55128  0.40806000000000003  0.84039  1.0000
  O   O13       1.0  0.3929  0.16994  0.9095400000000002  1.0000
  O   O14       1.0  0.57454  0.26887  0.95223  1.0000
  O   O15       1.0  0.40908  0.65644  0.8727900000000002  1.0000
  O   O16       1.0  0.5333500000000002  0.59282  0.93086  1.0000
  O   O17       1.0  0.71564  0.9990300000000001  0.70231  1.0000
  O   O18       1.0  0.72829  0.8570200000000001  0.6431300000000002  1.0000
  O   O19       1.0  0.18272  0.09756  0.6855300000000001  1.0000
  O   O20       1.0  0.05012999999999995  0.91128  0.65962  1.0000
  O   O21       1.0  0.89634  0.67455  0.5904800000000001  1.0000
  O   O22       1.0  0.07916  0.77162  0.54754  1.0000
  O   O23       1.0  0.90725  0.15688  0.6262500000000002  1.0000
  O   O24       1.0  0.03384000000000001  0.09393000000000001  0.56881  1.0000
  O   O25       1.0  0.78015  0.506  0.20236  1.0000
  O   O26       1.0  0.77216  0.6436  0.14092  1.0000
  O   O27       1.0  0.31823000000000007  0.40583  0.18750000000000006  1.0000
  O   O28       1.0  0.44872  0.59195  0.15961  1.0000
  O   O29       1.0  0.6071  0.83007  0.09046  1.0000
  O   O30       1.0  0.42546  0.73114  0.04776000000000001  1.0000
  O   O31       1.0  0.59092  0.34357  0.12721  1.0000
  O   O32       1.0  0.46665  0.40719  0.06913  1.0000
