data_image0
_chemical_formula_structural       Ni20H88C64N16O72
_chemical_formula_sum              "Ni20 H88 C64 N16 O72"
_cell_length_a       11.87626
_cell_length_b       18.27242
_cell_length_c       18.27242
_cell_angle_alpha    90.05498999999999
_cell_angle_beta     89.86112
_cell_angle_gamma    90.13888

_space_group_name_H-M_alt    "P 1"
_space_group_IT_number       1

loop_
  _space_group_symop_operation_xyz
  'x, y, z'

loop_
  _atom_site_type_symbol
  _atom_site_label
  _atom_site_symmetry_multiplicity
  _atom_site_fract_x
  _atom_site_fract_y
  _atom_site_fract_z
  _atom_site_occupancy
  Ni  Ni1       1.0  0.15949  0.54278  0.9420500000000002  1.0000
  Ni  Ni2       1.0  0.93751  0.59266  0.8760899999999999  1.0000
  Ni  Ni3       1.0  0.65782  0.45765  0.05793  1.0000
  Ni  Ni4       1.0  0.4353  0.40729  0.12413  1.0000
  Ni  Ni5       1.0  0.90861  0.55788  0.0427  1.0000
  Ni  Ni6       1.0  0.68601  0.6241600000000002  0.0928  1.0000
  Ni  Ni7       1.0  0.41005  0.44237  0.95738  1.0000
  Ni  Ni8       1.0  0.18837  0.3763  0.90728  1.0000
  Ni  Ni9       1.0  0.58996  0.95738  0.44237000000000004  1.0000
  Ni  Ni10      1.0  0.81163  0.9072799999999999  0.3763  1.0000
  Ni  Ni11      1.0  0.09138000000000002  0.0427  0.55788  1.0000
  Ni  Ni12      1.0  0.31399  0.09279  0.62416  1.0000
  Ni  Ni13      1.0  0.84051  0.94205  0.54278  1.0000
  Ni  Ni14      1.0  0.062490000000000004  0.8760899999999999  0.59265  1.0000
  Ni  Ni15      1.0  0.34218  0.05793000000000001  0.45765999999999996  1.0000
  Ni  Ni16      1.0  0.5647  0.12413  0.40729  1.0000
  Ni  Ni17      1.0  1.0000000000000211e-05  0.74076  0.74071  1.0000
  Ni  Ni18      1.0  0.5  0.25791  0.25791  1.0000
  Ni  Ni19      1.0  0.7489200000000001  0.75799  0.24342999999999998  1.0000
  Ni  Ni20      1.0  0.25108  0.24342  0.75799  1.0000
  H   H1        1.0  0.9221000000000001  0.56362  0.74177  1.0000
  H   H2        1.0  0.79356  0.5532200000000002  0.76605  1.0000
  H   H3        1.0  0.10958000000000002  0.82881  0.8334  1.0000
  H   H4        1.0  0.16695  0.83351  0.75057  1.0000
  H   H5        1.0  0.8959500000000001  0.4334  0.74266  1.0000
  H   H6        1.0  0.82199  0.36871  0.84807  1.0000
  H   H7        1.0  0.72237  0.43474  0.82073  1.0000
  H   H8        1.0  0.27096  0.76066  0.85397  1.0000
  H   H9        1.0  0.35059000000000007  0.7622500000000001  0.73407  1.0000
  H   H10       1.0  0.33526  0.66965  0.75814  1.0000
  H   H11       1.0  0.29982  0.4931400000000001  0.85267  1.0000
  H   H12       1.0  0.41965  0.43616  0.25824  1.0000
  H   H13       1.0  0.29081  0.44597  0.23455999999999996  1.0000
  H   H14       1.0  0.60952  0.16944000000000004  0.16519  1.0000
  H   H15       1.0  0.66689  0.16626  0.24790000000000004  1.0000
  H   H16       1.0  0.39302  0.56655  0.25764  1.0000
  H   H17       1.0  0.32056  0.63104  0.15234  1.0000
  H   H18       1.0  0.22018000000000001  0.56476  0.17887  1.0000
  H   H19       1.0  0.76857  0.23989000000000002  0.14267  1.0000
  H   H20       1.0  0.85061  0.23795  0.262  1.0000
  H   H21       1.0  0.83393  0.33064  0.23857999999999996  1.0000
  H   H22       1.0  0.79671  0.50704  0.14735  1.0000
  H   H23       1.0  0.6709000000000002  0.7583400000000002  0.06405  1.0000
  H   H24       1.0  0.54196  0.7343  0.05421  1.0000
  H   H25       1.0  0.8573800000000001  0.66446  0.33003  1.0000
  H   H26       1.0  0.91564  0.74714  0.33479  1.0000
  H   H27       1.0  0.64492  0.75764  0.93377  1.0000
  H   H28       1.0  0.57172  0.65226  0.86886  1.0000
  H   H29       1.0  0.47132  0.67915  0.9349  1.0000
  H   H30       1.0  0.017559999999999996  0.64262  0.261  1.0000
  H   H31       1.0  0.10022  0.7621  0.26419  1.0000
  H   H32       1.0  0.08583  0.73847  0.17147  1.0000
  H   H33       1.0  0.04844  0.64734  0.9935  1.0000
  H   H34       1.0  0.16993  0.24194  0.9352199999999999  1.0000
  H   H35       1.0  0.04188  0.26728  0.94536  1.0000
  H   H36       1.0  0.3619  0.33586  0.66945  1.0000
  H   H37       1.0  0.41771  0.25268  0.66569  1.0000
  H   H38       1.0  0.1439  0.24281000000000003  0.06549  1.0000
  H   H39       1.0  0.07085  0.34796000000000005  0.13067  1.0000
  H   H40       1.0  0.97097  0.32066  0.06462  1.0000
  H   H41       1.0  0.52137  0.35747000000000007  0.73881  1.0000
  H   H42       1.0  0.60154  0.23744  0.73514  1.0000
  H   H43       1.0  0.58797  0.26112  0.82798  1.0000
  H   H44       1.0  0.54759  0.35257  0.0070999999999999995  1.0000
  H   H45       1.0  0.8300700000000001  0.93522  0.24195  1.0000
  H   H46       1.0  0.9581200000000001  0.94536  0.26729  1.0000
  H   H47       1.0  0.6381  0.66945  0.33586  1.0000
  H   H48       1.0  0.58229  0.66569  0.25268  1.0000
  H   H49       1.0  0.8561  0.06548  0.24281000000000003  1.0000
  H   H50       1.0  0.9291400000000001  0.13066  0.34796  1.0000
  H   H51       1.0  0.02902  0.06462000000000001  0.32066  1.0000
  H   H52       1.0  0.47863  0.73881  0.35747  1.0000
  H   H53       1.0  0.39846  0.7351400000000001  0.23744  1.0000
  H   H54       1.0  0.41203  0.82798  0.26112  1.0000
  H   H55       1.0  0.45241  0.0071  0.35257  1.0000
  H   H56       1.0  0.3291  0.06405  0.75834  1.0000
  H   H57       1.0  0.45804000000000006  0.05421  0.7343  1.0000
  H   H58       1.0  0.14261  0.33003  0.66446  1.0000
  H   H59       1.0  0.08436  0.33479  0.74714  1.0000
  H   H60       1.0  0.35509  0.93377  0.75764  1.0000
  H   H61       1.0  0.42828  0.8688600000000002  0.65226  1.0000
  H   H62       1.0  0.52868  0.9349000000000001  0.67916  1.0000
  H   H63       1.0  0.98244  0.261  0.64262  1.0000
  H   H64       1.0  0.8997800000000002  0.26418  0.7621  1.0000
  H   H65       1.0  0.91417  0.17147  0.7384799999999999  1.0000
  H   H66       1.0  0.95156  0.99349  0.64734  1.0000
  H   H67       1.0  0.0779  0.74176  0.56362  1.0000
  H   H68       1.0  0.20644000000000004  0.7660400000000002  0.55323  1.0000
  H   H69       1.0  0.8904300000000002  0.8333900000000002  0.82881  1.0000
  H   H70       1.0  0.83304  0.75056  0.83352  1.0000
  H   H71       1.0  0.10406000000000001  0.74266  0.4334  1.0000
  H   H72       1.0  0.17801  0.84807  0.3687099999999999  1.0000
  H   H73       1.0  0.27763  0.8207200000000001  0.43474  1.0000
  H   H74       1.0  0.72905  0.85397  0.7606599999999999  1.0000
  H   H75       1.0  0.64941  0.73407  0.76225  1.0000
  H   H76       1.0  0.66475  0.75813  0.66965  1.0000
  H   H77       1.0  0.70018  0.8526700000000002  0.49314  1.0000
  H   H78       1.0  0.58035  0.25824  0.43616  1.0000
  H   H79       1.0  0.70919  0.23455999999999996  0.44597  1.0000
  H   H80       1.0  0.39047  0.16519  0.16944  1.0000
  H   H81       1.0  0.33311  0.24790000000000004  0.16626  1.0000
  H   H82       1.0  0.60698  0.25764000000000004  0.56655  1.0000
  H   H83       1.0  0.67944  0.15234  0.63104  1.0000
  H   H84       1.0  0.77982  0.17887  0.56476  1.0000
  H   H85       1.0  0.23143000000000005  0.14267  0.23988999999999996  1.0000
  H   H86       1.0  0.14939  0.262  0.23795  1.0000
  H   H87       1.0  0.16607  0.23858000000000001  0.33064  1.0000
  H   H88       1.0  0.20329  0.14735  0.50704  1.0000
  C   C1        1.0  0.01311  0.45546000000000003  0.82905  1.0000
  C   C2        1.0  0.89609  0.46368000000000004  0.79486  1.0000
  C   C3        1.0  0.80672  0.42799  0.84477  1.0000
  C   C4        1.0  0.79954  0.45608  0.9233100000000001  1.0000
  C   C5        1.0  0.15217  0.67535  0.84322  1.0000
  C   C6        1.0  0.21447  0.7413  0.8104  1.0000
  C   C7        1.0  0.28757  0.71932  0.74449  1.0000
  C   C8        1.0  0.22657000000000002  0.70569  0.67152  1.0000
  C   C9        1.0  0.51064  0.54456  0.1713  1.0000
  C   C10       1.0  0.39347  0.53612  0.20554  1.0000
  C   C11       1.0  0.30506  0.57173  0.15537  1.0000
  C   C12       1.0  0.29934  0.5441  0.07667  1.0000
  C   C13       1.0  0.64989  0.32457  0.15587  1.0000
  C   C14       1.0  0.71297  0.25842  0.18715  1.0000
  C   C15       1.0  0.7871  0.28048  0.25234  1.0000
  C   C16       1.0  0.72672  0.29339000000000004  0.32567  1.0000
  C   C17       1.0  0.7618  0.67125  0.9555399999999998  1.0000
  C   C18       1.0  0.64481  0.7055300000000002  0.9640199999999999  1.0000
  C   C19       1.0  0.556  0.6554800000000001  0.9281600000000001  1.0000
  C   C20       1.0  0.54947  0.57687  0.95587  1.0000
  C   C21       1.0  0.90038  0.65605  0.17568  1.0000
  C   C22       1.0  0.9626500000000002  0.68715  0.24228999999999998  1.0000
  C   C23       1.0  0.03761  0.75234  0.22105000000000002  1.0000
  C   C24       1.0  0.9775200000000001  0.82548  0.20747  1.0000
  C   C25       1.0  0.26186  0.32893  0.04425  1.0000
  C   C26       1.0  0.14451  0.29502000000000006  0.03542  1.0000
  C   C27       1.0  0.05546  0.3447700000000001  0.0714  1.0000
  C   C28       1.0  0.04876  0.42339000000000004  0.04384  1.0000
  C   C29       1.0  0.40342  0.34424  0.82432  1.0000
  C   C30       1.0  0.46562  0.31312  0.75757  1.0000
  C   C31       1.0  0.53935  0.24756  0.7786  1.0000
  C   C32       1.0  0.4780400000000001  0.1746  0.79221  1.0000
  C   C33       1.0  0.7381300000000002  0.04425  0.32893  1.0000
  C   C34       1.0  0.8554900000000001  0.03542  0.29502  1.0000
  C   C35       1.0  0.94453  0.07139  0.34477  1.0000
  C   C36       1.0  0.95124  0.04384  0.42339  1.0000
  C   C37       1.0  0.59658  0.82432  0.34424  1.0000
  C   C38       1.0  0.53438  0.75757  0.31312  1.0000
  C   C39       1.0  0.46065  0.7786  0.24755999999999997  1.0000
  C   C40       1.0  0.52196  0.79221  0.1746  1.0000
  C   C41       1.0  0.23820000000000002  0.95554  0.67126  1.0000
  C   C42       1.0  0.35520000000000007  0.96402  0.70553  1.0000
  C   C43       1.0  0.444  0.92816  0.65548  1.0000
  C   C44       1.0  0.45053  0.95587  0.57687  1.0000
  C   C45       1.0  0.09962  0.17568  0.65605  1.0000
  C   C46       1.0  0.03734  0.24229000000000003  0.68716  1.0000
  C   C47       1.0  0.9623800000000001  0.22104000000000001  0.75234  1.0000
  C   C48       1.0  0.02248  0.20747  0.82548  1.0000
  C   C49       1.0  0.98689  0.82905  0.45546999999999993  1.0000
  C   C50       1.0  0.10391  0.7948600000000001  0.4636799999999999  1.0000
  C   C51       1.0  0.19328000000000006  0.84476  0.428  1.0000
  C   C52       1.0  0.20046  0.92331  0.45608000000000004  1.0000
  C   C53       1.0  0.84783  0.84321  0.67535  1.0000
  C   C54       1.0  0.7855400000000001  0.8104  0.74131  1.0000
  C   C55       1.0  0.7124400000000001  0.74449  0.71933  1.0000
  C   C56       1.0  0.77343  0.6715100000000002  0.70569  1.0000
  C   C57       1.0  0.4893600000000001  0.17129000000000003  0.54456  1.0000
  C   C58       1.0  0.60653  0.20554  0.53612  1.0000
  C   C59       1.0  0.6949400000000001  0.15537  0.57173  1.0000
  C   C60       1.0  0.70065  0.07667  0.5441  1.0000
  C   C61       1.0  0.35011000000000003  0.15587  0.32457  1.0000
  C   C62       1.0  0.28703  0.18715000000000004  0.25842  1.0000
  C   C63       1.0  0.21290000000000003  0.25234  0.28048  1.0000
  C   C64       1.0  0.27328  0.3256700000000001  0.29339  1.0000
  N   N1        1.0  0.8746500000000001  0.54229  0.78388  1.0000
  N   N2        1.0  0.13292  0.79845  0.78895  1.0000
  N   N3        1.0  0.37184000000000006  0.45747  0.21654  1.0000
  N   N4        1.0  0.63257  0.20052  0.20917  1.0000
  N   N5        1.0  0.62304  0.7165  0.04269  1.0000
  N   N6        1.0  0.8813600000000001  0.70883  0.29983  1.0000
  N   N7        1.0  0.12336  0.28427  0.95671  1.0000
  N   N8        1.0  0.38419  0.29163000000000006  0.70023  1.0000
  N   N9        1.0  0.8766400000000002  0.95671  0.28427  1.0000
  N   N10       1.0  0.61581  0.7002300000000001  0.29163  1.0000
  N   N11       1.0  0.37696  0.04269  0.7165  1.0000
  N   N12       1.0  0.11864  0.29983  0.70884  1.0000
  N   N13       1.0  0.12535  0.7838700000000001  0.54229  1.0000
  N   N14       1.0  0.86708  0.7889400000000002  0.79846  1.0000
  N   N15       1.0  0.62816  0.21654000000000004  0.45747  1.0000
  N   N16       1.0  0.36743  0.20917000000000002  0.20052  1.0000
  O   O1        1.0  0.05795  0.51481  0.85212  1.0000
  O   O2        1.0  0.05733  0.39257  0.83337  1.0000
  O   O3        1.0  0.7379400000000002  0.42003  0.96647  1.0000
  O   O4        1.0  0.85559  0.5140000000000001  0.94101  1.0000
  O   O5        1.0  0.04564  0.67014  0.82937  1.0000
  O   O6        1.0  0.2112  0.63302  0.8816299999999999  1.0000
  O   O7        1.0  0.11836  0.69713  0.67105  1.0000
  O   O8        1.0  0.28754  0.7038800000000001  0.61543  1.0000
  O   O9        1.0  0.27445  0.47412000000000004  0.8995399999999999  1.0000
  O   O10       1.0  0.55519  0.48536  0.14791  1.0000
  O   O11       1.0  0.55496  0.60757  0.16693  1.0000
  O   O12       1.0  0.24001  0.581  0.03322  1.0000
  O   O13       1.0  0.3539  0.4857000000000001  0.059050000000000005  1.0000
  O   O14       1.0  0.54351  0.32961  0.17045  1.0000
  O   O15       1.0  0.7088300000000001  0.36759  0.11788999999999998  1.0000
  O   O16       1.0  0.61823  0.30019  0.32662  1.0000
  O   O17       1.0  0.7884000000000002  0.29624  0.38122  1.0000
  O   O18       1.0  0.77203  0.52619  0.10049  1.0000
  O   O19       1.0  0.8061900000000001  0.64787  0.01468  1.0000
  O   O20       1.0  0.80621  0.66669  0.89254  1.0000
  O   O21       1.0  0.49076  0.5331500000000001  0.91865  1.0000
  O   O22       1.0  0.60257  0.55929  0.0147  1.0000
  O   O23       1.0  0.79419  0.67053  0.17044  1.0000
  O   O24       1.0  0.95968  0.61818  0.13275  1.0000
  O   O25       1.0  0.8690400000000003  0.82609  0.20015  1.0000
  O   O26       1.0  0.03933  0.88114  0.20437  1.0000
  O   O27       1.0  0.02341  0.60055  0.97408  1.0000
  O   O28       1.0  0.30817  0.35193  0.98532  1.0000
  O   O29       1.0  0.30499  0.3331700000000001  0.1075  1.0000
  O   O30       1.0  0.9887200000000002  0.46665000000000006  0.08079  1.0000
  O   O31       1.0  0.10332000000000001  0.4410700000000001  0.9853599999999999  1.0000
  O   O32       1.0  0.29703  0.3297  0.82976  1.0000
  O   O33       1.0  0.46258000000000005  0.38203000000000004  0.86729  1.0000
  O   O34       1.0  0.36975  0.17408000000000007  0.80006  1.0000
  O   O35       1.0  0.53878  0.11865  0.79473  1.0000
  O   O36       1.0  0.52289  0.39949  0.02622  1.0000
  O   O37       1.0  0.6918400000000001  0.98532  0.35193  1.0000
  O   O38       1.0  0.69501  0.1075  0.33317  1.0000
  O   O39       1.0  0.01128  0.08079  0.46665  1.0000
  O   O40       1.0  0.8966800000000001  0.9853599999999999  0.44106999999999996  1.0000
  O   O41       1.0  0.70297  0.82976  0.3297  1.0000
  O   O42       1.0  0.53742  0.86729  0.38204  1.0000
  O   O43       1.0  0.63024  0.8000600000000001  0.17408  1.0000
  O   O44       1.0  0.4612100000000001  0.79472  0.11866  1.0000
  O   O45       1.0  0.47711  0.026210000000000004  0.39949  1.0000
  O   O46       1.0  0.19381  0.014680000000000002  0.64787  1.0000
  O   O47       1.0  0.19379  0.8925300000000002  0.66669  1.0000
  O   O48       1.0  0.50924  0.9186400000000001  0.53315  1.0000
  O   O49       1.0  0.39744000000000007  0.0147  0.55929  1.0000
  O   O50       1.0  0.20581  0.17044  0.67053  1.0000
  O   O51       1.0  0.04032  0.13275  0.61818  1.0000
  O   O52       1.0  0.13096  0.20015  0.82609  1.0000
  O   O53       1.0  0.9606700000000001  0.20437  0.88114  1.0000
  O   O54       1.0  0.9765900000000002  0.97408  0.60056  1.0000
  O   O55       1.0  0.9420600000000001  0.8521100000000001  0.51481  1.0000
  O   O56       1.0  0.94267  0.8333600000000002  0.39257  1.0000
  O   O57       1.0  0.26206  0.9664700000000002  0.42003  1.0000
  O   O58       1.0  0.14441000000000004  0.94101  0.51401  1.0000
  O   O59       1.0  0.95436  0.82937  0.67014  1.0000
  O   O60       1.0  0.7888  0.8816300000000001  0.63303  1.0000
  O   O61       1.0  0.8816400000000001  0.67104  0.69714  1.0000
  O   O62       1.0  0.71246  0.61543  0.70388  1.0000
  O   O63       1.0  0.72555  0.8995400000000001  0.47411999999999993  1.0000
  O   O64       1.0  0.44481  0.14791  0.48536  1.0000
  O   O65       1.0  0.44504  0.16693000000000002  0.60757  1.0000
  O   O66       1.0  0.75999  0.03321  0.581  1.0000
  O   O67       1.0  0.6461  0.05905  0.4857  1.0000
  O   O68       1.0  0.45649000000000006  0.17045  0.32961  1.0000
  O   O69       1.0  0.29117  0.11789  0.36759  1.0000
  O   O70       1.0  0.3817700000000001  0.32662  0.30019  1.0000
  O   O71       1.0  0.2116  0.38122  0.29624999999999996  1.0000
  O   O72       1.0  0.22797  0.10049  0.52619  1.0000
