data_image0
_chemical_formula_structural       Cu8H96C172S4N12O32F48
_chemical_formula_sum              "Cu8 H96 C172 S4 N12 O32 F48"
_cell_length_a       7.55132
_cell_length_b       23.62412
_cell_length_c       29.31966
_cell_angle_alpha    90.0
_cell_angle_beta     90.0
_cell_angle_gamma    91.72428

_space_group_name_H-M_alt    "P 1"
_space_group_IT_number       1

loop_
  _space_group_symop_operation_xyz
  'x, y, z'

loop_
  _atom_site_type_symbol
  _atom_site_label
  _atom_site_symmetry_multiplicity
  _atom_site_fract_x
  _atom_site_fract_y
  _atom_site_fract_z
  _atom_site_occupancy
  Cu  Cu1       1.0  0.24178000000000002  0.90713  0.21068  1.0000
  Cu  Cu2       1.0  0.51798  0.9119200000000001  0.26784  1.0000
  Cu  Cu3       1.0  0.7582200000000002  0.59287  0.71068  1.0000
  Cu  Cu4       1.0  0.48202  0.58808  0.76784  1.0000
  Cu  Cu5       1.0  0.7582200000000002  0.09287  0.78933  1.0000
  Cu  Cu6       1.0  0.48202  0.08808  0.73216  1.0000
  Cu  Cu7       1.0  0.24177  0.40713000000000005  0.28932  1.0000
  Cu  Cu8       1.0  0.51798  0.4119200000000001  0.23216  1.0000
  H   H1        1.0  0.87294  0.79806  0.28724  1.0000
  H   H2        1.0  0.7249400000000001  0.72931  0.33901  1.0000
  H   H3        1.0  0.20903  0.71883  0.41652  1.0000
  H   H4        1.0  0.35438  0.78497  0.3634299999999999  1.0000
  H   H5        1.0  0.97484  0.62358  0.33902  1.0000
  H   H6        1.0  0.84262  0.54399  0.29488  1.0000
  H   H7        1.0  0.38171  0.54476  0.38007  1.0000
  H   H8        1.0  0.51338  0.62225  0.42572  1.0000
  H   H9        1.0  0.87679  0.7835300000000001  0.21339  1.0000
  H   H10       1.0  0.005829999999999991  0.70425  0.1713  1.0000
  H   H11       1.0  0.55731  0.70097  0.08013  1.0000
  H   H12       1.0  0.42716999999999994  0.77701  0.12420999999999997  1.0000
  H   H13       1.0  0.7553  0.5969  0.16959  1.0000
  H   H14       1.0  0.89096  0.52506  0.21868999999999994  1.0000
  H   H15       1.0  0.37116  0.54041  0.14136  1.0000
  H   H16       1.0  0.23690000000000005  0.60939  0.09049  1.0000
  H   H17       1.0  0.86165  0.95979  0.15938999999999995  1.0000
  H   H18       1.0  0.16979  0.82097  0.12488999999999999  1.0000
  H   H19       1.0  0.91168  0.8334700000000002  0.05797  1.0000
  H   H20       1.0  0.46979  0.8928800000000001  0.10788  1.0000
  H   H21       1.0  0.28401  0.94865  0.04852  1.0000
  H   H22       1.0  0.08596000000000001  0.9131200000000003  0.38052999999999987  1.0000
  H   H23       1.0  0.91835  0.87625  0.41301  1.0000
  H   H24       1.0  0.9296  0.9523400000000002  0.41263  1.0000
  H   H25       1.0  0.12706000000000003  0.7019500000000002  0.78724  1.0000
  H   H26       1.0  0.27506  0.77069  0.83901  1.0000
  H   H27       1.0  0.79097  0.7811700000000001  0.91652  1.0000
  H   H28       1.0  0.6456300000000001  0.71503  0.86343  1.0000
  H   H29       1.0  0.025160000000000012  0.87642  0.83902  1.0000
  H   H30       1.0  0.15739  0.95602  0.7948799999999998  1.0000
  H   H31       1.0  0.61829  0.95524  0.8800699999999999  1.0000
  H   H32       1.0  0.48662000000000005  0.8777500000000003  0.92572  1.0000
  H   H33       1.0  0.12321  0.71647  0.71339  1.0000
  H   H34       1.0  0.9941700000000001  0.79575  0.6713  1.0000
  H   H35       1.0  0.44269  0.79903  0.58013  1.0000
  H   H36       1.0  0.57283  0.7229900000000001  0.62421  1.0000
  H   H37       1.0  0.24470000000000008  0.9031  0.66959  1.0000
  H   H38       1.0  0.10905  0.97494  0.71869  1.0000
  H   H39       1.0  0.62884  0.9596000000000001  0.64136  1.0000
  H   H40       1.0  0.7631  0.89061  0.59049  1.0000
  H   H41       1.0  0.13835  0.5402100000000001  0.6593899999999998  1.0000
  H   H42       1.0  0.83022  0.67903  0.6248899999999998  1.0000
  H   H43       1.0  0.08833000000000002  0.6665300000000001  0.55797  1.0000
  H   H44       1.0  0.5302100000000002  0.60712  0.60788  1.0000
  H   H45       1.0  0.71599  0.55135  0.5485199999999999  1.0000
  H   H46       1.0  0.91404  0.58688  0.88053  1.0000
  H   H47       1.0  0.08165  0.62375  0.91301  1.0000
  H   H48       1.0  0.0704  0.54766  0.91263  1.0000
  H   H49       1.0  0.12706  0.20195  0.71276  1.0000
  H   H50       1.0  0.27506  0.27069  0.66099  1.0000
  H   H51       1.0  0.79097  0.28117  0.58348  1.0000
  H   H52       1.0  0.6456200000000002  0.21503  0.63657  1.0000
  H   H53       1.0  0.025160000000000002  0.37642000000000003  0.6609799999999999  1.0000
  H   H54       1.0  0.15738  0.45601  0.70512  1.0000
  H   H55       1.0  0.61829  0.45524  0.61993  1.0000
  H   H56       1.0  0.48662000000000005  0.37775  0.57428  1.0000
  H   H57       1.0  0.12321  0.21647  0.7866199999999999  1.0000
  H   H58       1.0  0.9941700000000001  0.29575  0.82871  1.0000
  H   H59       1.0  0.44269  0.29903  0.9198799999999998  1.0000
  H   H60       1.0  0.57283  0.22299  0.8757899999999998  1.0000
  H   H61       1.0  0.24470000000000006  0.4031  0.8304099999999998  1.0000
  H   H62       1.0  0.10904  0.47494  0.7813099999999998  1.0000
  H   H63       1.0  0.62884  0.4596  0.85865  1.0000
  H   H64       1.0  0.7631  0.39061  0.90951  1.0000
  H   H65       1.0  0.13835  0.04021000000000001  0.84061  1.0000
  H   H66       1.0  0.83021  0.17903000000000005  0.87511  1.0000
  H   H67       1.0  0.08832000000000002  0.16653000000000004  0.94203  1.0000
  H   H68       1.0  0.5302100000000002  0.10712  0.89212  1.0000
  H   H69       1.0  0.71599  0.05135  0.95148  1.0000
  H   H70       1.0  0.91404  0.08688000000000001  0.61947  1.0000
  H   H71       1.0  0.08165  0.12375  0.58699  1.0000
  H   H72       1.0  0.0704  0.04766  0.58737  1.0000
  H   H73       1.0  0.87294  0.29805  0.21275999999999995  1.0000
  H   H74       1.0  0.72494  0.22931000000000007  0.16099  1.0000
  H   H75       1.0  0.20903  0.21883000000000002  0.08348  1.0000
  H   H76       1.0  0.35437  0.28497000000000006  0.13657  1.0000
  H   H77       1.0  0.97484  0.12358  0.16098  1.0000
  H   H78       1.0  0.84261  0.043990000000000015  0.20511999999999997  1.0000
  H   H79       1.0  0.38171  0.04476  0.11993  1.0000
  H   H80       1.0  0.51338  0.12225000000000001  0.07427999999999998  1.0000
  H   H81       1.0  0.87679  0.28353  0.28662  1.0000
  H   H82       1.0  0.00583  0.20425000000000001  0.3287099999999999  1.0000
  H   H83       1.0  0.55731  0.20097000000000004  0.41988  1.0000
  H   H84       1.0  0.42717  0.27701  0.37579  1.0000
  H   H85       1.0  0.7553  0.0969  0.33041  1.0000
  H   H86       1.0  0.89095  0.02506  0.28131  1.0000
  H   H87       1.0  0.37116  0.04041  0.35865  1.0000
  H   H88       1.0  0.23690000000000005  0.10939000000000003  0.4095099999999999  1.0000
  H   H89       1.0  0.86165  0.45979000000000003  0.34061  1.0000
  H   H90       1.0  0.16977999999999996  0.32097  0.37511  1.0000
  H   H91       1.0  0.91167  0.33347  0.44203  1.0000
  H   H92       1.0  0.46979  0.39288  0.39212  1.0000
  H   H93       1.0  0.28401  0.4486500000000001  0.45148  1.0000
  H   H94       1.0  0.08596  0.41312  0.11947  1.0000
  H   H95       1.0  0.91835  0.37625  0.08699  1.0000
  H   H96       1.0  0.9296  0.4523400000000001  0.08737  1.0000
  C   C1        1.0  0.21951  0.83516  0.28921999999999987  1.0000
  C   C2        1.0  0.12528  0.79492  0.32125  1.0000
  C   C3        1.0  0.9463200000000002  0.7795800000000003  0.31518  1.0000
  C   C4        1.0  0.86268  0.7414400000000001  0.34507  1.0000
  C   C5        1.0  0.9537000000000001  0.71835  0.38217999999999996  1.0000
  C   C6        1.0  0.13185  0.73497  0.38853  1.0000
  C   C7        1.0  0.21599  0.7726800000000003  0.3584199999999999  1.0000
  C   C8        1.0  0.85191  0.67616  0.41383  1.0000
  C   C9        1.0  0.97807  0.6460300000000001  0.4475  1.0000
  C   C10       1.0  0.72246  0.71098  0.44343  1.0000
  C   C11       1.0  0.75573  0.62916  0.38593  1.0000
  C   C12       1.0  0.8452600000000001  0.60633  0.34855  1.0000
  C   C13       1.0  0.77053  0.5617  0.32335999999999987  1.0000
  C   C14       1.0  0.60256  0.53901  0.33456  1.0000
  C   C15       1.0  0.51205  0.56214  0.37144  1.0000
  C   C16       1.0  0.5877  0.60637  0.39705  1.0000
  C   C17       1.0  0.5232  0.48973  0.30838  1.0000
  C   C18       1.0  0.55606  0.8321  0.19793  1.0000
  C   C19       1.0  0.64115  0.7852200000000003  0.17204999999999995  1.0000
  C   C20       1.0  0.80543  0.76436  0.18483999999999998  1.0000
  C   C21       1.0  0.87929  0.72019  0.16042  1.0000
  C   C22       1.0  0.7931300000000002  0.69625  0.12229999999999998  1.0000
  C   C23       1.0  0.6294800000000002  0.7176300000000002  0.10937  1.0000
  C   C24       1.0  0.55466  0.76109  0.13424  1.0000
  C   C25       1.0  0.88789  0.6504900000000001  0.09477999999999999  1.0000
  C   C26       1.0  0.75698  0.61335  0.06536  1.0000
  C   C27       1.0  0.015670000000000017  0.6827800000000002  0.06131  1.0000
  C   C28       1.0  0.98454  0.60904  0.12609  1.0000
  C   C29       1.0  0.89026  0.58476  0.16287  1.0000
  C   C30       1.0  0.96676  0.54478  0.19108999999999998  1.0000
  C   C31       1.0  0.14127  0.52866  0.18354  1.0000
  C   C32       1.0  0.23584  0.553  0.14713  1.0000
  C   C33       1.0  0.15854  0.59232  0.11848  1.0000
  C   C34       1.0  0.22603  0.48518000000000006  0.21304999999999996  1.0000
  C   C35       1.0  0.91538  0.9245200000000002  0.14122  1.0000
  C   C36       1.0  0.06927  0.8522500000000001  0.12148  1.0000
  C   C37       1.0  0.94381  0.8578000000000002  0.08815999999999997  1.0000
  C   C38       1.0  0.7065  0.92779  0.07498  1.0000
  C   C39       1.0  0.52688  0.91932  0.08101  1.0000
  C   C40       1.0  0.4274800000000002  0.9499800000000003  0.04899  1.0000
  C   C41       1.0  0.52937  0.98187  0.01834  1.0000
  C   C42       1.0  0.94729  0.91401  0.39199  1.0000
  C   C43       1.0  0.8294300000000002  0.91454  0.353  1.0000
  C   C44       1.0  0.78049  0.6648400000000001  0.78922  1.0000
  C   C45       1.0  0.87472  0.7050800000000002  0.8212499999999998  1.0000
  C   C46       1.0  0.05368  0.72042  0.81518  1.0000
  C   C47       1.0  0.13732000000000005  0.75856  0.84507  1.0000
  C   C48       1.0  0.04630000000000001  0.7816500000000001  0.88218  1.0000
  C   C49       1.0  0.86815  0.7650300000000002  0.88853  1.0000
  C   C50       1.0  0.78402  0.72732  0.85842  1.0000
  C   C51       1.0  0.14809000000000003  0.8238400000000002  0.91383  1.0000
  C   C52       1.0  0.021929999999999998  0.85397  0.9475  1.0000
  C   C53       1.0  0.27754  0.78902  0.94343  1.0000
  C   C54       1.0  0.24428000000000002  0.8708400000000002  0.8859299999999998  1.0000
  C   C55       1.0  0.15474  0.89367  0.84855  1.0000
  C   C56       1.0  0.22948  0.9383000000000002  0.82336  1.0000
  C   C57       1.0  0.3974500000000001  0.9609900000000002  0.8345599999999997  1.0000
  C   C58       1.0  0.48795000000000005  0.93786  0.87144  1.0000
  C   C59       1.0  0.4123  0.8936300000000001  0.89705  1.0000
  C   C60       1.0  0.4768  0.01027  0.80838  1.0000
  C   C61       1.0  0.44394  0.6679  0.69793  1.0000
  C   C62       1.0  0.35885  0.71478  0.67205  1.0000
  C   C63       1.0  0.19457  0.7356400000000001  0.68484  1.0000
  C   C64       1.0  0.12071000000000004  0.7798100000000001  0.6604199999999998  1.0000
  C   C65       1.0  0.20687  0.8037500000000002  0.6223  1.0000
  C   C66       1.0  0.37052  0.78237  0.60937  1.0000
  C   C67       1.0  0.44534  0.7389100000000001  0.63424  1.0000
  C   C68       1.0  0.11211000000000003  0.8495100000000001  0.59478  1.0000
  C   C69       1.0  0.24302  0.8866500000000003  0.56536  1.0000
  C   C70       1.0  0.9843300000000003  0.81722  0.56131  1.0000
  C   C71       1.0  0.015460000000000014  0.89097  0.6260899999999999  1.0000
  C   C72       1.0  0.10974000000000003  0.9152400000000003  0.66287  1.0000
  C   C73       1.0  0.03324000000000001  0.9552200000000002  0.69109  1.0000
  C   C74       1.0  0.8587300000000002  0.97134  0.6835399999999999  1.0000
  C   C75       1.0  0.76416  0.947  0.64713  1.0000
  C   C76       1.0  0.84146  0.9076800000000002  0.61848  1.0000
  C   C77       1.0  0.77397  0.01482  0.71305  1.0000
  C   C78       1.0  0.08462  0.57548  0.64123  1.0000
  C   C79       1.0  0.93073  0.6477500000000002  0.62148  1.0000
  C   C80       1.0  0.05619  0.6422  0.5881599999999998  1.0000
  C   C81       1.0  0.29350000000000004  0.57221  0.5749799999999999  1.0000
  C   C82       1.0  0.47312000000000004  0.58068  0.5810099999999998  1.0000
  C   C83       1.0  0.57252  0.55002  0.5489899999999999  1.0000
  C   C84       1.0  0.47063  0.51813  0.51834  1.0000
  C   C85       1.0  0.05272000000000002  0.5859900000000001  0.89199  1.0000
  C   C86       1.0  0.17057  0.58546  0.853  1.0000
  C   C87       1.0  0.78049  0.16484  0.71079  1.0000
  C   C88       1.0  0.87472  0.20508000000000004  0.67875  1.0000
  C   C89       1.0  0.05368  0.22042  0.6848199999999998  1.0000
  C   C90       1.0  0.13732000000000005  0.25856  0.65493  1.0000
  C   C91       1.0  0.04630000000000001  0.28165000000000007  0.61783  1.0000
  C   C92       1.0  0.86815  0.26503000000000004  0.61147  1.0000
  C   C93       1.0  0.78401  0.22732  0.64159  1.0000
  C   C94       1.0  0.14809  0.3238400000000001  0.58617  1.0000
  C   C95       1.0  0.021929999999999998  0.35397  0.5524999999999998  1.0000
  C   C96       1.0  0.27754  0.28902  0.5565699999999999  1.0000
  C   C97       1.0  0.24427  0.37084000000000006  0.61407  1.0000
  C   C98       1.0  0.15474  0.3936700000000001  0.65145  1.0000
  C   C99       1.0  0.22947  0.4383000000000001  0.67665  1.0000
  C   C100      1.0  0.39744  0.46099000000000007  0.66545  1.0000
  C   C101      1.0  0.48795  0.4378600000000001  0.6285699999999999  1.0000
  C   C102      1.0  0.4123  0.39363  0.60295  1.0000
  C   C103      1.0  0.4768  0.51027  0.69162  1.0000
  C   C104      1.0  0.44394  0.1679  0.8020699999999997  1.0000
  C   C105      1.0  0.35885  0.21478  0.82795  1.0000
  C   C106      1.0  0.19457  0.23564000000000004  0.81516  1.0000
  C   C107      1.0  0.12071  0.27981  0.83958  1.0000
  C   C108      1.0  0.20687  0.3037500000000001  0.8777  1.0000
  C   C109      1.0  0.37052  0.28237000000000007  0.89063  1.0000
  C   C110      1.0  0.44533999999999996  0.23891  0.86576  1.0000
  C   C111      1.0  0.11210000000000002  0.34951  0.90522  1.0000
  C   C112      1.0  0.24302  0.3866500000000001  0.93464  1.0000
  C   C113      1.0  0.9843300000000003  0.31722000000000006  0.93869  1.0000
  C   C114      1.0  0.015460000000000003  0.39096000000000003  0.87391  1.0000
  C   C115      1.0  0.10974000000000002  0.4152400000000001  0.8371299999999998  1.0000
  C   C116      1.0  0.033240000000000006  0.45522000000000007  0.80891  1.0000
  C   C117      1.0  0.8587300000000002  0.4713400000000001  0.81646  1.0000
  C   C118      1.0  0.76416  0.44700000000000006  0.85287  1.0000
  C   C119      1.0  0.84146  0.40768  0.8815199999999997  1.0000
  C   C120      1.0  0.77397  0.51482  0.78695  1.0000
  C   C121      1.0  0.08462  0.07548  0.85878  1.0000
  C   C122      1.0  0.93073  0.14775  0.87852  1.0000
  C   C123      1.0  0.056190000000000004  0.14220000000000002  0.91184  1.0000
  C   C124      1.0  0.29350000000000004  0.07221  0.92502  1.0000
  C   C125      1.0  0.4731100000000001  0.08068  0.91899  1.0000
  C   C126      1.0  0.57252  0.05002  0.95101  1.0000
  C   C127      1.0  0.47063  0.018130000000000004  0.98166  1.0000
  C   C128      1.0  0.052710000000000014  0.08599  0.60801  1.0000
  C   C129      1.0  0.17057  0.08546  0.647  1.0000
  C   C130      1.0  0.21951  0.33516  0.21077999999999994  1.0000
  C   C131      1.0  0.12528  0.29492  0.17874999999999996  1.0000
  C   C132      1.0  0.94632  0.27958  0.18482  1.0000
  C   C133      1.0  0.86267  0.24144  0.15493  1.0000
  C   C134      1.0  0.9537000000000001  0.21835  0.11783  1.0000
  C   C135      1.0  0.13185  0.23497  0.11147  1.0000
  C   C136      1.0  0.21598  0.27268  0.14159  1.0000
  C   C137      1.0  0.8519  0.17616  0.08616999999999998  1.0000
  C   C138      1.0  0.97807  0.14603  0.05249999999999999  1.0000
  C   C139      1.0  0.72246  0.21098  0.05657  1.0000
  C   C140      1.0  0.75572  0.12916  0.11406999999999998  1.0000
  C   C141      1.0  0.8452600000000001  0.10633000000000002  0.15144999999999997  1.0000
  C   C142      1.0  0.77052  0.06170000000000001  0.17664  1.0000
  C   C143      1.0  0.60255  0.03901  0.16544  1.0000
  C   C144      1.0  0.51205  0.06214  0.12857  1.0000
  C   C145      1.0  0.5877  0.10637  0.10294999999999997  1.0000
  C   C146      1.0  0.5232  0.98973  0.19162  1.0000
  C   C147      1.0  0.55605  0.3321  0.30207  1.0000
  C   C148      1.0  0.64115  0.28522  0.32795  1.0000
  C   C149      1.0  0.80543  0.26436  0.31516  1.0000
  C   C150      1.0  0.8792899999999999  0.22019  0.33958  1.0000
  C   C151      1.0  0.7931300000000002  0.19625  0.3777  1.0000
  C   C152      1.0  0.62947  0.21763  0.39063  1.0000
  C   C153      1.0  0.55466  0.26109  0.36575999999999986  1.0000
  C   C154      1.0  0.88789  0.15049  0.40522  1.0000
  C   C155      1.0  0.75697  0.11335000000000002  0.4346399999999999  1.0000
  C   C156      1.0  0.01567  0.18278  0.43869  1.0000
  C   C157      1.0  0.98454  0.10904000000000001  0.37391  1.0000
  C   C158      1.0  0.89026  0.08476  0.33713  1.0000
  C   C159      1.0  0.96676  0.04478000000000001  0.30891  1.0000
  C   C160      1.0  0.14126  0.02866000000000001  0.31646  1.0000
  C   C161      1.0  0.23584  0.053000000000000005  0.35287  1.0000
  C   C162      1.0  0.15854  0.09232000000000003  0.38152  1.0000
  C   C163      1.0  0.22603000000000004  0.9851800000000002  0.28694999999999987  1.0000
  C   C164      1.0  0.91537  0.4245200000000001  0.35878  1.0000
  C   C165      1.0  0.06927  0.35225  0.37851999999999997  1.0000
  C   C166      1.0  0.94381  0.35780000000000006  0.41184  1.0000
  C   C167      1.0  0.7065  0.42779  0.42502  1.0000
  C   C168      1.0  0.52688  0.41932000000000014  0.41899  1.0000
  C   C169      1.0  0.42747  0.44998  0.45101  1.0000
  C   C170      1.0  0.52937  0.4818700000000001  0.48166  1.0000
  C   C171      1.0  0.94728  0.41401  0.10801  1.0000
  C   C172      1.0  0.8294300000000001  0.4145400000000001  0.147  1.0000
  S   S1        1.0  0.75418  0.9735300000000002  0.02963  1.0000
  S   S2        1.0  0.24583  0.52647  0.52963  1.0000
  S   S3        1.0  0.24582  0.02647  0.97037  1.0000
  S   S4        1.0  0.75417  0.47353000000000006  0.47037  1.0000
  N   N1        1.0  0.050810000000000015  0.89395  0.15432  1.0000
  N   N2        1.0  0.8455100000000001  0.9043200000000002  0.10072999999999999  1.0000
  N   N3        1.0  0.7334099999999999  0.91525  0.32188  1.0000
  N   N4        1.0  0.94919  0.60605  0.65432  1.0000
  N   N5        1.0  0.15449  0.59568  0.60073  1.0000
  N   N6        1.0  0.26659  0.58475  0.82188  1.0000
  N   N7        1.0  0.94919  0.10605000000000002  0.84568  1.0000
  N   N8        1.0  0.15449  0.09568  0.89927  1.0000
  N   N9        1.0  0.26659  0.08475000000000002  0.67812  1.0000
  N   N10       1.0  0.0508  0.39395  0.34568  1.0000
  N   N11       1.0  0.84551  0.40432000000000007  0.39927  1.0000
  N   N12       1.0  0.73341  0.41525  0.17812  1.0000
  O   O1        1.0  0.14182  0.8462  0.25174  1.0000
  O   O2        1.0  0.3707300000000001  0.8543700000000001  0.30239  1.0000
  O   O3        1.0  0.61746  0.46978  0.27636  1.0000
  O   O4        1.0  0.36904  0.47185  0.32051  1.0000
  O   O5        1.0  0.41157  0.85033  0.18169  1.0000
  O   O6        1.0  0.63421  0.8501300000000002  0.23393999999999995  1.0000
  O   O7        1.0  0.1348  0.46480000000000005  0.24598999999999993  1.0000
  O   O8        1.0  0.38378000000000007  0.47246000000000005  0.20202  1.0000
  O   O9        1.0  0.85818  0.6538  0.75174  1.0000
  O   O10       1.0  0.62927  0.64563  0.80239  1.0000
  O   O11       1.0  0.38254  0.03022  0.77636  1.0000
  O   O12       1.0  0.63096  0.028150000000000005  0.82051  1.0000
  O   O13       1.0  0.58843  0.6496700000000001  0.68169  1.0000
  O   O14       1.0  0.36579  0.64987  0.73394  1.0000
  O   O15       1.0  0.8652  0.0352  0.7459899999999998  1.0000
  O   O16       1.0  0.61622  0.02754  0.70202  1.0000
  O   O17       1.0  0.85818  0.1538  0.7482599999999998  1.0000
  O   O18       1.0  0.62927  0.14563  0.69761  1.0000
  O   O19       1.0  0.38254  0.53022  0.72364  1.0000
  O   O20       1.0  0.63096  0.52815  0.67949  1.0000
  O   O21       1.0  0.58843  0.14967  0.81831  1.0000
  O   O22       1.0  0.36579  0.14987  0.76606  1.0000
  O   O23       1.0  0.8652  0.5352  0.75401  1.0000
  O   O24       1.0  0.61622  0.52754  0.79798  1.0000
  O   O25       1.0  0.14182  0.34620000000000006  0.24825999999999995  1.0000
  O   O26       1.0  0.3707300000000001  0.35437000000000013  0.19761  1.0000
  O   O27       1.0  0.61746  0.96978  0.22364  1.0000
  O   O28       1.0  0.36904000000000003  0.97185  0.17949  1.0000
  O   O29       1.0  0.41157  0.35033000000000003  0.3183099999999999  1.0000
  O   O30       1.0  0.63421  0.35013  0.26606  1.0000
  O   O31       1.0  0.1348  0.9648  0.25401  1.0000
  O   O32       1.0  0.38378000000000007  0.97246  0.29798  1.0000
  F   F1        1.0  0.10879000000000004  0.6197600000000001  0.42479  1.0000
  F   F2        1.0  0.05842000000000002  0.6830200000000002  0.4774  1.0000
  F   F3        1.0  0.89258  0.60556  0.4727599999999999  1.0000
  F   F4        1.0  0.8042900000000002  0.75765  0.4614599999999999  1.0000
  F   F5        1.0  0.6513  0.68145  0.47934  1.0000
  F   F6        1.0  0.5844  0.7288800000000001  0.41776  1.0000
  F   F7        1.0  0.83931  0.56784  0.04775  1.0000
  F   F8        1.0  0.68691  0.6407  0.02916  1.0000
  F   F9        1.0  0.61671  0.59405  0.09094  1.0000
  F   F10       1.0  0.92877  0.72331  0.03837  1.0000
  F   F11       1.0  0.08907000000000001  0.6486100000000001  0.02939  1.0000
  F   F12       1.0  0.15263  0.70864  0.08418  1.0000
  F   F13       1.0  0.89121  0.8802400000000001  0.92479  1.0000
  F   F14       1.0  0.9415800000000002  0.81698  0.9774  1.0000
  F   F15       1.0  0.10742  0.89444  0.97276  1.0000
  F   F16       1.0  0.19571  0.74235  0.96146  1.0000
  F   F17       1.0  0.34871  0.8185500000000001  0.97935  1.0000
  F   F18       1.0  0.4156  0.77112  0.91776  1.0000
  F   F19       1.0  0.16069000000000003  0.9321600000000002  0.5477499999999998  1.0000
  F   F20       1.0  0.31309  0.8593000000000002  0.52916  1.0000
  F   F21       1.0  0.38329000000000013  0.9059500000000003  0.5909399999999998  1.0000
  F   F22       1.0  0.07123  0.7767  0.53837  1.0000
  F   F23       1.0  0.91093  0.8513900000000001  0.52939  1.0000
  F   F24       1.0  0.84737  0.79137  0.5841799999999999  1.0000
  F   F25       1.0  0.89121  0.38024  0.57521  1.0000
  F   F26       1.0  0.9415800000000002  0.31698  0.5226  1.0000
  F   F27       1.0  0.10741  0.39444  0.52724  1.0000
  F   F28       1.0  0.19571  0.24235000000000007  0.53854  1.0000
  F   F29       1.0  0.3487  0.31855  0.52066  1.0000
  F   F30       1.0  0.4156  0.2711200000000001  0.58224  1.0000
  F   F31       1.0  0.16069  0.4321600000000001  0.95225  1.0000
  F   F32       1.0  0.31309  0.35930000000000006  0.97085  1.0000
  F   F33       1.0  0.38329000000000013  0.4059500000000001  0.90906  1.0000
  F   F34       1.0  0.07123  0.2767  0.96163  1.0000
  F   F35       1.0  0.91093  0.35139  0.9706099999999999  1.0000
  F   F36       1.0  0.84736  0.29136  0.91582  1.0000
  F   F37       1.0  0.10879  0.11976000000000002  0.07521  1.0000
  F   F38       1.0  0.05842000000000001  0.18302  0.0226  1.0000
  F   F39       1.0  0.89258  0.10556000000000001  0.027239999999999997  1.0000
  F   F40       1.0  0.8042900000000002  0.25765  0.03854  1.0000
  F   F41       1.0  0.65129  0.18145  0.02066  1.0000
  F   F42       1.0  0.5844  0.22888  0.08224  1.0000
  F   F43       1.0  0.83931  0.06784000000000001  0.45225  1.0000
  F   F44       1.0  0.68691  0.1407  0.47085  1.0000
  F   F45       1.0  0.61671  0.09405  0.40905999999999987  1.0000
  F   F46       1.0  0.92877  0.22331  0.4616299999999999  1.0000
  F   F47       1.0  0.08907  0.14861000000000002  0.47061  1.0000
  F   F48       1.0  0.15263  0.20864000000000002  0.41582  1.0000
