data_image0
_chemical_formula_structural       Co4H88C140N8O24
_chemical_formula_sum              "Co4 H88 C140 N8 O24"
_cell_length_a       12.12271
_cell_length_b       14.02817
_cell_length_c       17.89037
_cell_angle_alpha    90.01686
_cell_angle_beta     89.90425
_cell_angle_gamma    97.72712

_space_group_name_H-M_alt    "P 1"
_space_group_IT_number       1

loop_
  _space_group_symop_operation_xyz
  'x, y, z'

loop_
  _atom_site_type_symbol
  _atom_site_label
  _atom_site_symmetry_multiplicity
  _atom_site_fract_x
  _atom_site_fract_y
  _atom_site_fract_z
  _atom_site_occupancy
  Co  Co1       1.0  0.9986399999999999  6e-05  0.00045999999999999996  1.0000
  Co  Co2       1.0  0.49820999999999993  0.49966  0.50002  1.0000
  Co  Co3       1.0  0.000949999999999999  0.50001  0.50053  1.0000
  Co  Co4       1.0  0.49958  0.99978  0.99972  1.0000
  H   H1        1.0  0.38746  0.9305699999999999  0.26365  1.0000
  H   H2        1.0  0.73791  0.41994  0.9493899999999998  1.0000
  H   H3        1.0  0.97534  0.46571  0.33878  1.0000
  H   H4        1.0  0.6127  0.06932  0.73678  1.0000
  H   H5        1.0  0.8354  0.6436799999999998  0.48860999999999993  1.0000
  H   H6        1.0  0.34056  0.98311  0.44026  1.0000
  H   H7        1.0  0.59347  0.39108  0.76149  1.0000
  H   H8        1.0  0.90535  0.04906999999999999  0.26802  1.0000
  H   H9        1.0  0.6588  0.51798  0.94153  1.0000
  H   H10       1.0  0.3489  0.04638  0.74338  1.0000
  H   H11       1.0  0.82644  0.36839  0.0567  1.0000
  H   H12       1.0  0.86735  0.049619999999999984  0.67825  1.0000
  H   H13       1.0  0.82745  0.86633  0.44067999999999996  1.0000
  H   H14       1.0  0.7568199999999999  0.7284599999999998  0.38828  1.0000
  H   H15       1.0  0.74406  0.32154  0.19952  1.0000
  H   H16       1.0  0.51373  0.20258  0.36254999999999993  1.0000
  H   H17       1.0  0.2622  0.74916  0.59389  1.0000
  H   H18       1.0  0.20857  0.32751  0.81864  1.0000
  H   H19       1.0  0.26164  0.08079  0.45024  1.0000
  H   H20       1.0  0.12788  0.62132  0.1418  1.0000
  H   H21       1.0  0.97592  0.9656899999999998  0.15982  1.0000
  H   H22       1.0  0.7918999999999998  0.17226999999999995  0.3181  1.0000
  H   H23       1.0  0.26254999999999995  0.24885999999999994  0.9065  1.0000
  H   H24       1.0  0.61401  0.12050999999999998  0.45752  1.0000
  H   H25       1.0  0.95671  0.25695  0.91957  1.0000
  H   H26       1.0  0.55746  0.03215  0.15745  1.0000
  H   H27       1.0  0.5765899999999999  0.7191399999999998  0.82039  1.0000
  H   H28       1.0  0.59389  0.89135  0.73748  1.0000
  H   H29       1.0  0.25603999999999993  0.6786699999999998  0.80068  1.0000
  H   H30       1.0  0.25623  0.17827999999999997  0.69989  1.0000
  H   H31       1.0  0.65146  0.9545599999999997  0.25664  1.0000
  H   H32       1.0  0.1327  0.44996999999999987  0.1755  1.0000
  H   H33       1.0  0.243  0.27149  0.6122  1.0000
  H   H34       1.0  0.021510000000000005  0.67503  0.8645599999999999  1.0000
  H   H35       1.0  0.61484  0.61926  0.04337  1.0000
  H   H36       1.0  0.42485  0.78072  0.32081  1.0000
  H   H37       1.0  0.83602  0.14392  0.01068  1.0000
  H   H38       1.0  0.173  0.13287  0.55852  1.0000
  H   H39       1.0  0.34821  0.6595199999999998  0.49826  1.0000
  H   H40       1.0  0.38434  0.38057  0.95668  1.0000
  H   H41       1.0  0.26171  0.57982  0.0511  1.0000
  H   H42       1.0  0.12656  0.12131999999999998  0.35611  1.0000
  H   H43       1.0  0.041069999999999995  0.24253999999999995  0.41737  1.0000
  H   H44       1.0  0.09488999999999999  0.44989  0.76847  1.0000
  H   H45       1.0  0.38660999999999995  0.8802699999999998  0.54216  1.0000
  H   H46       1.0  0.42381  0.28086999999999995  0.17995  1.0000
  H   H47       1.0  0.55748  0.53194  0.34265  1.0000
  H   H48       1.0  0.13343  0.95042  0.32185  1.0000
  H   H49       1.0  0.86707  0.55033  0.8247499999999998  1.0000
  H   H50       1.0  0.65161  0.45362  0.24294  1.0000
  H   H51       1.0  0.97852  0.32508999999999993  0.13561  1.0000
  H   H52       1.0  0.16327  0.85625  0.9897599999999999  1.0000
  H   H53       1.0  0.65088  0.83962  0.99791  1.0000
  H   H54       1.0  0.6129  0.56896  0.7624299999999999  1.0000
  H   H55       1.0  0.7383099999999999  0.25108  0.40627  1.0000
  H   H56       1.0  0.40572  0.60881  0.23826000000000003  1.0000
  H   H57       1.0  0.6511899999999999  0.34063999999999994  0.50187  1.0000
  H   H58       1.0  0.87376  0.87835  0.64385  1.0000
  H   H59       1.0  0.17354  0.63211  0.9427599999999999  1.0000
  H   H60       1.0  0.4423  0.96772  0.8423  1.0000
  H   H61       1.0  0.16479000000000002  0.35526  0.51116  1.0000
  H   H62       1.0  0.38660999999999995  0.43097  0.23763  1.0000
  H   H63       1.0  0.34798999999999997  0.16012  0.00232  1.0000
  H   H64       1.0  0.75712  0.22836999999999993  0.11125  1.0000
  H   H65       1.0  0.66047  0.01712  0.55987  1.0000
  H   H66       1.0  0.8724300000000001  0.37893  0.85812  1.0000
  H   H67       1.0  0.09450999999999996  0.9511899999999998  0.7325  1.0000
  H   H68       1.0  0.57621  0.22  0.67867  1.0000
  H   H69       1.0  0.73762  0.75119  0.09317  1.0000
  H   H70       1.0  0.04271999999999998  0.7435499999999999  0.07941  1.0000
  H   H71       1.0  0.24257  0.77209  0.88915  1.0000
  H   H72       1.0  0.20798999999999998  0.8279  0.68225  1.0000
  H   H73       1.0  0.020139999999999998  0.17488  0.6367399999999999  1.0000
  H   H74       1.0  0.51469  0.70183  0.13806  1.0000
  H   H75       1.0  0.98081  0.8245499999999998  0.36262  1.0000
  H   H76       1.0  0.34124  0.48224  0.0594  1.0000
  H   H77       1.0  0.02325  0.03422  0.84052  1.0000
  H   H78       1.0  0.95751  0.75699  0.5810799999999999  1.0000
  H   H79       1.0  0.48491  0.29796  0.86195  1.0000
  H   H80       1.0  0.73822  0.9189399999999999  0.55032  1.0000
  H   H81       1.0  0.40582  0.10858  0.26249  1.0000
  H   H82       1.0  0.74353  0.82197  0.3001  1.0000
  H   H83       1.0  0.024549999999999975  0.5339099999999999  0.66096  1.0000
  H   H84       1.0  0.44201999999999997  0.46785999999999994  0.6572599999999998  1.0000
  H   H85       1.0  0.79163  0.6724999999999999  0.18137  1.0000
  H   H86       1.0  0.9055200000000001  0.54967  0.23105999999999996  1.0000
  H   H87       1.0  0.34834  0.54634  0.75716  1.0000
  H   H88       1.0  0.48561999999999994  0.7973599999999998  0.63751  1.0000
  C   C1        1.0  0.29906999999999995  0.6859699999999997  0.61023  1.0000
  C   C2        1.0  0.43268  0.92158  0.5861  1.0000
  C   C3        1.0  0.82818  0.15070999999999996  0.20052  1.0000
  C   C4        1.0  0.44653999999999994  0.07190999999999999  0.30573  1.0000
  C   C5        1.0  0.023600000000000003  0.60039  0.87991  1.0000
  C   C6        1.0  0.90798  0.8250299999999999  0.99746  1.0000
  C   C7        1.0  0.25309  0.21068999999999993  0.75522  1.0000
  C   C8        1.0  0.024839999999999994  0.80937  0.56014  1.0000
  C   C9        1.0  0.10982999999999998  0.5757199999999999  0.9234599999999998  1.0000
  C   C10       1.0  0.7472299999999998  0.28916  0.25477  1.0000
  C   C11       1.0  0.48879  0.37572  0.86064  1.0000
  C   C12       1.0  0.9393000000000002  0.93431  0.62571  1.0000
  C   C13       1.0  0.88835  0.57317  0.2872  1.0000
  C   C14       1.0  0.06340999999999997  0.4701399999999999  0.14332  1.0000
  C   C15       1.0  0.49433999999999995  0.42297999999999997  0.14247  1.0000
  C   C16       1.0  0.50474  0.57688  0.85728  1.0000
  C   C17       1.0  0.89021  0.92343  0.42106  1.0000
  C   C18       1.0  0.35008  0.13574  0.9447000000000001  1.0000
  C   C19       1.0  0.56835  0.57736  0.0868  1.0000
  C   C20       1.0  0.07092  0.4737  0.65212  1.0000
  C   C21       1.0  0.93685  0.02971  0.6458  1.0000
  C   C22       1.0  0.02560999999999996  0.9072899999999998  0.5810799999999999  1.0000
  C   C23       1.0  0.38143  0.67783  0.96167  1.0000
  C   C24       1.0  0.02351  0.10019  0.62191  1.0000
  C   C25       1.0  0.9386399999999999  0.4345  0.87594  1.0000
  C   C26       1.0  0.1136  0.47849  0.9455100000000001  1.0000
  C   C27       1.0  0.09150999999999998  0.67472  0.49647  1.0000
  C   C28       1.0  0.43113  0.42219  0.91318  1.0000
  C   C29       1.0  0.8510199999999999  0.62408  0.4313  1.0000
  C   C30       1.0  0.07005  0.97413  0.84881  1.0000
  C   C31       1.0  0.48984  0.87522  0.6388699999999999  1.0000
  C   C32       1.0  0.488  0.3352699999999999  0.58905  1.0000
  C   C33       1.0  0.48264  0.32088  0.14157  1.0000
  C   C34       1.0  0.8014199999999999  0.049  0.4906  1.0000
  C   C35       1.0  0.17211999999999997  0.34911  0.70102  1.0000
  C   C36       1.0  0.92908  0.0258  0.15174999999999997  1.0000
  C   C37       1.0  0.39746  0.52794  0.6443099999999999  1.0000
  C   C38       1.0  0.92906  0.52599  0.3474  1.0000
  C   C39       1.0  0.89557  0.72034  0.01457  1.0000
  C   C40       1.0  0.85097  0.12426  0.06805  1.0000
  C   C41       1.0  0.60189  0.47183  0.35571  1.0000
  C   C42       1.0  0.8006799999999998  0.5503199999999999  0.008829999999999998  1.0000
  C   C43       1.0  0.6273499999999999  0.9276699999999998  0.46305999999999997  1.0000
  C   C44       1.0  0.64992  0.364  0.44412  1.0000
  C   C45       1.0  0.51799  0.17908  0.64054  1.0000
  C   C46       1.0  0.37256  0.07208  0.53746  1.0000
  C   C47       1.0  0.4881900000000001  0.83545  0.91062  1.0000
  C   C48       1.0  0.8884799999999999  0.07293  0.212  1.0000
  C   C49       1.0  0.78728  0.20369  0.2625  1.0000
  C   C50       1.0  0.34644  0.07403  0.8  1.0000
  C   C51       1.0  0.97741  0.89915  0.37781  1.0000
  C   C52       1.0  0.25288  0.71104  0.74545  1.0000
  C   C53       1.0  0.1995  0.9497799999999998  0.50968  1.0000
  C   C54       1.0  0.51008  0.12479999999999998  0.36128  1.0000
  C   C55       1.0  0.53914  0.27102  0.09133  1.0000
  C   C56       1.0  0.80762  0.6732799999999998  0.3736499999999999  1.0000
  C   C57       1.0  0.8028699999999998  0.6512599999999997  0.98662  1.0000
  C   C58       1.0  0.43754  0.9722999999999999  0.30567  1.0000
  C   C59       1.0  0.80789  0.17332999999999996  0.12583  1.0000
  C   C60       1.0  0.44643999999999995  0.57193  0.19492  1.0000
  C   C61       1.0  0.78707  0.70391  0.23702  1.0000
  C   C62       1.0  0.10282  0.27947  0.98642  1.0000
  C   C63       1.0  0.38082  0.17681  0.5396  1.0000
  C   C64       1.0  0.89576  0.22004  0.48528  1.0000
  C   C65       1.0  0.49421  0.9234099999999997  0.3587699999999999  1.0000
  C   C66       1.0  0.3982  0.027979999999999994  0.856  1.0000
  C   C67       1.0  0.97531  0.59259  0.0795  1.0000
  C   C68       1.0  0.93654  0.53001  0.8565899999999999  1.0000
  C   C69       1.0  0.7004899999999998  0.8142699999999998  0.10963999999999999  1.0000
  C   C70       1.0  0.10459999999999996  0.7793399999999998  0.51465  1.0000
  C   C71       1.0  0.5065600000000001  0.07685  0.64126  1.0000
  C   C72       1.0  0.29788  0.15727  0.81517  1.0000
  C   C73       1.0  0.02497000000000001  0.40738  0.9203  1.0000
  C   C74       1.0  0.9758399999999998  0.6903599999999998  0.05921  1.0000
  C   C75       1.0  0.2993  0.18547  0.8904999999999998  1.0000
  C   C76       1.0  0.65378  0.42581  0.29954  1.0000
  C   C77       1.0  0.06409  0.96994  0.35447  1.0000
  C   C78       1.0  0.023729999999999973  0.3094499999999999  0.94072  1.0000
  C   C79       1.0  0.56461  0.4757999999999999  0.08778  1.0000
  C   C80       1.0  0.7016  0.84256  0.18497  1.0000
  C   C81       1.0  0.82814  0.651  0.29888999999999993  1.0000
  C   C82       1.0  0.97433  0.1899  0.43886  1.0000
  C   C83       1.0  0.19508  0.3491899999999999  0.01466  1.0000
  C   C84       1.0  0.97627  0.39975  0.12007000000000001  1.0000
  C   C85       1.0  0.29435  0.52161  0.02006  1.0000
  C   C86       1.0  0.8864399999999999  0.52176  0.054349999999999996  1.0000
  C   C87       1.0  0.11127  0.92734  0.78854  1.0000
  C   C88       1.0  0.56783  0.07875  0.41386999999999996  1.0000
  C   C89       1.0  0.70635  0.97769  0.51979  1.0000
  C   C90       1.0  0.61838  0.82278  0.46101000000000003  1.0000
  C   C91       1.0  0.29751  0.65747  0.68548  1.0000
  C   C92       1.0  0.56264  0.52759  0.80475  1.0000
  C   C93       1.0  0.46085  0.22860999999999995  0.59127  1.0000
  C   C94       1.0  0.4825  0.82128  0.35939  1.0000
  C   C95       1.0  0.55319  0.42793  0.80504  1.0000
  C   C96       1.0  0.62784  0.4268799999999999  0.03729  1.0000
  C   C97       1.0  0.70214  0.34244  0.31468  1.0000
  C   C98       1.0  0.19171999999999995  0.8271099999999998  0.8746299999999999  1.0000
  C   C99       1.0  0.17174  0.8496099999999999  0.79989  1.0000
  C   C100      1.0  0.14912  0.37533  0.56836  1.0000
  C   C101      1.0  0.1976  0.8489299999999997  0.48717  1.0000
  C   C102      1.0  0.19238  0.32676  0.62632  1.0000
  C   C103      1.0  0.43703  0.4721  0.19532  1.0000
  C   C104      1.0  0.34928  0.63586  0.55591  1.0000
  C   C105      1.0  0.19907  0.45  0.99127  1.0000
  C   C106      1.0  0.06189  0.56564  0.12356  1.0000
  C   C107      1.0  0.34638  0.57432  0.70061  1.0000
  C   C108      1.0  0.51084  0.62406  0.13954  1.0000
  C   C109      1.0  0.46098  0.72852  0.90901  1.0000
  C   C110      1.0  0.29397  0.02189  0.48059999999999997  1.0000
  C   C111      1.0  0.5530599999999999  0.9281299999999998  0.69441  1.0000
  C   C112      1.0  0.14804  0.87589  0.9324299999999999  1.0000
  C   C113      1.0  0.21251  0.79642  0.73784  1.0000
  C   C114      1.0  0.51033  0.6648699999999999  0.41047  1.0000
  C   C115      1.0  0.56274  0.02793  0.69446  1.0000
  C   C116      1.0  0.88572  0.020489999999999998  0.44352  1.0000
  C   C117      1.0  0.21279  0.2961  0.763  1.0000
  C   C118      1.0  0.53832  0.77144  0.40909  1.0000
  C   C119      1.0  0.11429999999999997  0.9784399999999998  0.55579  1.0000
  C   C120      1.0  0.0903  0.17477999999999994  0.00302  1.0000
  C   C121      1.0  0.51667  0.67892  0.85806  1.0000
  C   C122      1.0  0.89021  0.42457  0.07625  1.0000
  C   C123      1.0  0.10991  0.07578999999999998  0.57788  1.0000
  C   C124      1.0  0.37232  0.57286  0.9631400000000001  1.0000
  C   C125      1.0  0.70104  0.31417999999999996  0.38999999999999996  1.0000
  C   C126      1.0  0.70568  0.47819  0.9805399999999999  1.0000
  C   C127      1.0  0.60158  0.97187  0.14399  1.0000
  C   C128      1.0  0.43602  0.02316  0.58725  1.0000
  C   C129      1.0  0.43446999999999997  0.52392  0.9121599999999999  1.0000
  C   C130      1.0  0.65341  0.9261099999999998  0.20016  1.0000
  C   C131      1.0  0.61891  0.32163  0.038489999999999996  1.0000
  C   C132      1.0  0.7470199999999999  0.7894499999999999  0.24483  1.0000
  C   C133      1.0  0.9092799999999999  0.32476  0.50253  1.0000
  C   C134      1.0  0.97396  0.09195  0.41819  1.0000
  C   C135      1.0  0.64945  0.86392  0.05549  1.0000
  C   C136      1.0  0.51044  0.16399999999999995  0.08967  1.0000
  C   C137      1.0  0.8047799999999999  0.14969999999999997  0.51475  1.0000
  C   C138      1.0  0.11182  0.4267899999999999  0.71229  1.0000
  C   C139      1.0  0.06076999999999999  0.06535999999999999  0.37385  1.0000
  C   C140      1.0  0.56457  0.97696  0.41296  1.0000
  N   N1        1.0  0.59653  0.44124  0.42801  1.0000
  N   N2        1.0  0.08527  0.94805  0.9208999999999999  1.0000
  N   N3        1.0  0.40322  0.05851  0.92824  1.0000
  N   N4        1.0  0.59626  0.9411099999999999  0.07183  1.0000
  N   N5        1.0  0.08612  0.4475  0.57997  1.0000
  N   N6        1.0  0.91324  0.05183  0.07974999999999999  1.0000
  N   N7        1.0  0.91389  0.5518499999999998  0.41969  1.0000
  N   N8        1.0  0.40163  0.55798  0.57192  1.0000
  O   O1        1.0  0.55258  0.37983  0.63576  1.0000
  O   O2        1.0  0.27634  0.8235899999999998  0.4487499999999999  1.0000
  O   O3        1.0  0.44792  0.87829  0.96763  1.0000
  O   O4        1.0  0.72839  0.17293  0.55604  1.0000
  O   O5        1.0  0.55108  0.62355  0.46793  1.0000
  O   O6        1.0  0.31875  0.7226  0.00164  1.0000
  O   O7        1.0  0.02645000000000002  0.62117  0.54485  1.0000
  O   O8        1.0  0.13167  0.1366  0.057260000000000005  1.0000
  O   O9        1.0  0.97589  0.37793  0.45524  1.0000
  O   O10       1.0  0.97211  0.8791899999999999  0.04564  1.0000
  O   O11       1.0  0.024449999999999996  0.12126999999999998  0.9554299999999999  1.0000
  O   O12       1.0  0.68026  0.27763  0.99707  1.0000
  O   O13       1.0  0.7241  0.6778899999999999  0.9493300000000001  1.0000
  O   O14       1.0  0.44509  0.3763599999999999  0.5324  1.0000
  O   O15       1.0  0.27207  0.32338  0.05415  1.0000
  O   O16       1.0  0.68358  0.78052  0.50045  1.0000
  O   O17       1.0  0.13194  0.63739  0.44132  1.0000
  O   O18       1.0  0.86738  0.8627999999999998  0.94277  1.0000
  O   O19       1.0  0.55011  0.8784499999999998  0.86261  1.0000
  O   O20       1.0  0.31571  0.21862  0.49982  1.0000
  O   O21       1.0  0.5492100000000001  0.12138  0.03214  1.0000
  O   O22       1.0  0.44931  0.12144  0.13815  1.0000
  O   O23       1.0  0.44766  0.6214899999999999  0.36227  1.0000
  O   O24       1.0  0.8671  0.36279  0.55655  1.0000
