data_image0
_chemical_formula_structural       Cu12H96C168N8O48
_chemical_formula_sum              "Cu12 H96 C168 N8 O48"
_cell_length_a       20.40429
_cell_length_b       26.23684
_cell_length_c       26.23684
_cell_angle_alpha    81.41397
_cell_angle_beta     67.29685
_cell_angle_gamma    67.29685

_space_group_name_H-M_alt    "P 1"
_space_group_IT_number       1

loop_
  _space_group_symop_operation_xyz
  'x, y, z'

loop_
  _atom_site_type_symbol
  _atom_site_label
  _atom_site_symmetry_multiplicity
  _atom_site_fract_x
  _atom_site_fract_y
  _atom_site_fract_z
  _atom_site_occupancy
  Cu  Cu1       1.0  0.9390300000000003  0.49592  0.00841  1.0000
  Cu  Cu2       1.0  0.44399  0.50373  0.99111  1.0000
  Cu  Cu3       1.0  0.06096000000000003  0.9915899999999999  0.50408  1.0000
  Cu  Cu4       1.0  0.556  0.00889  0.49627000000000004  1.0000
  Cu  Cu5       1.0  0.0609599999999999  0.50408  0.9915900000000001  1.0000
  Cu  Cu6       1.0  0.5560000000000003  0.49627  0.00889  1.0000
  Cu  Cu7       1.0  0.9390300000000003  0.00841  0.4959200000000001  1.0000
  Cu  Cu8       1.0  0.4439999999999999  0.9911099999999998  0.50373  1.0000
  Cu  Cu9       1.0  0.035129999999999974  0.46446999999999994  0.46446000000000004  1.0000
  Cu  Cu10      1.0  0.96486  0.53554  0.53553  1.0000
  Cu  Cu11      1.0  0.49998999999999993  0.03549  0.9645100000000001  1.0000
  Cu  Cu12      1.0  0.5000000000000001  0.9644999999999999  0.03549000000000001  1.0000
  H   H1        1.0  0.03218000000000002  0.54363  0.15301000000000003  1.0000
  H   H2        1.0  0.1867000000000001  0.3454199999999999  0.03874  1.0000
  H   H3        1.0  0.9869  0.57447  0.25009  1.0000
  H   H4        1.0  0.23756000000000016  0.24864999999999998  0.07053  1.0000
  H   H5        1.0  0.9797300000000001  0.32416  0.05938  1.0000
  H   H6        1.0  0.92973  0.53127  0.34454  1.0000
  H   H7        1.0  0.8059700000000002  0.55714  0.17627  1.0000
  H   H8        1.0  0.75988  0.58886  0.27306  1.0000
  H   H9        1.0  0.030430000000000016  0.22715999999999997  0.08976  1.0000
  H   H10       1.0  0.77036  0.67873  0.27159  1.0000
  H   H11       1.0  0.04106000000000004  0.22732999999999995  0.17733  1.0000
  H   H12       1.0  0.27358  0.15538  0.030350000000000005  1.0000
  H   H13       1.0  0.7284499999999998  0.457  0.84805  1.0000
  H   H14       1.0  0.57052  0.65495  0.96107  1.0000
  H   H15       1.0  0.81108  0.4262  0.7509100000000001  1.0000
  H   H16       1.0  0.5560499999999999  0.75184  0.92907  1.0000
  H   H17       1.0  0.36354  0.67479  0.9402400000000002  1.0000
  H   H18       1.0  0.80539  0.46924999999999994  0.65664  1.0000
  H   H19       1.0  0.5399799999999998  0.44273999999999997  0.8236700000000002  1.0000
  H   H20       1.0  0.6222300000000001  0.4110799999999999  0.72692  1.0000
  H   H21       1.0  0.3472599999999999  0.77198  0.9096600000000002  1.0000
  H   H22       1.0  0.7206200000000004  0.32156  0.72877  1.0000
  H   H23       1.0  0.44519  0.7721499999999999  0.8221400000000001  1.0000
  H   H24       1.0  0.45877999999999997  0.84435  0.9694800000000001  1.0000
  H   H25       1.0  0.9678100000000001  0.84699  0.45637000000000005  1.0000
  H   H26       1.0  0.8132999999999998  0.9612699999999998  0.65457  1.0000
  H   H27       1.0  0.013090000000000018  0.7499099999999997  0.4255300000000001  1.0000
  H   H28       1.0  0.76243  0.92947  0.75135  1.0000
  H   H29       1.0  0.020260000000000042  0.94063  0.67584  1.0000
  H   H30       1.0  0.07026000000000003  0.65546  0.4687300000000001  1.0000
  H   H31       1.0  0.19403000000000004  0.8237299999999999  0.44286  1.0000
  H   H32       1.0  0.2401099999999999  0.7269399999999999  0.41113000000000005  1.0000
  H   H33       1.0  0.9695600000000001  0.91024  0.77284  1.0000
  H   H34       1.0  0.22963  0.72841  0.32126  1.0000
  H   H35       1.0  0.9589399999999999  0.82267  0.77267  1.0000
  H   H36       1.0  0.72641  0.9696499999999999  0.8446200000000001  1.0000
  H   H37       1.0  0.27153999999999995  0.15195  0.543  1.0000
  H   H38       1.0  0.42947  0.03893  0.34505  1.0000
  H   H39       1.0  0.18891  0.24909  0.5738  1.0000
  H   H40       1.0  0.44394000000000006  0.07093  0.24816  1.0000
  H   H41       1.0  0.6364499999999998  0.059759999999999994  0.32521  1.0000
  H   H42       1.0  0.1946  0.34336  0.5307500000000002  1.0000
  H   H43       1.0  0.4600100000000001  0.17633  0.55726  1.0000
  H   H44       1.0  0.3777700000000003  0.27308  0.58892  1.0000
  H   H45       1.0  0.65273  0.09034  0.22802000000000006  1.0000
  H   H46       1.0  0.27937  0.27123  0.6784500000000002  1.0000
  H   H47       1.0  0.5547999999999998  0.17786  0.22785000000000002  1.0000
  H   H48       1.0  0.5412100000000001  0.030519999999999995  0.15565  1.0000
  H   H49       1.0  0.9678099999999998  0.45637  0.8469900000000002  1.0000
  H   H50       1.0  0.81329  0.65458  0.9612600000000001  1.0000
  H   H51       1.0  0.013089999999999932  0.4255299999999999  0.7499100000000001  1.0000
  H   H52       1.0  0.7624299999999999  0.7513499999999997  0.9294600000000002  1.0000
  H   H53       1.0  0.02025999999999991  0.6758399999999999  0.9406200000000002  1.0000
  H   H54       1.0  0.07025999999999999  0.46872999999999987  0.6554600000000002  1.0000
  H   H55       1.0  0.1940299999999998  0.44286  0.8237300000000002  1.0000
  H   H56       1.0  0.2401099999999999  0.41114  0.7269400000000001  1.0000
  H   H57       1.0  0.9695600000000001  0.77285  0.9102300000000001  1.0000
  H   H58       1.0  0.22962999999999997  0.32127  0.7284100000000001  1.0000
  H   H59       1.0  0.9589400000000002  0.77267  0.82267  1.0000
  H   H60       1.0  0.7263999999999998  0.84463  0.9696400000000002  1.0000
  H   H61       1.0  0.2715399999999999  0.543  0.15194000000000002  1.0000
  H   H62       1.0  0.42947  0.34505  0.038930000000000006  1.0000
  H   H63       1.0  0.18891  0.5738  0.24908000000000005  1.0000
  H   H64       1.0  0.44394000000000006  0.24815999999999994  0.07093  1.0000
  H   H65       1.0  0.6364499999999998  0.32521  0.05976000000000001  1.0000
  H   H66       1.0  0.19460000000000002  0.53076  0.34336000000000005  1.0000
  H   H67       1.0  0.46000999999999964  0.55726  0.17633000000000001  1.0000
  H   H68       1.0  0.3777700000000003  0.58892  0.27308  1.0000
  H   H69       1.0  0.6527300000000001  0.22802  0.09034  1.0000
  H   H70       1.0  0.27937  0.67845  0.27123  1.0000
  H   H71       1.0  0.5547999999999998  0.22785  0.17786  1.0000
  H   H72       1.0  0.5412099999999999  0.15564  0.03052  1.0000
  H   H73       1.0  0.03217999999999999  0.15301  0.5436300000000001  1.0000
  H   H74       1.0  0.18670000000000003  0.03874  0.34542  1.0000
  H   H75       1.0  0.9869  0.25009  0.57447  1.0000
  H   H76       1.0  0.23756000000000002  0.07054  0.24865000000000007  1.0000
  H   H77       1.0  0.9797300000000001  0.05938  0.32416  1.0000
  H   H78       1.0  0.92973  0.34454  0.53127  1.0000
  H   H79       1.0  0.80597  0.17627  0.5571400000000001  1.0000
  H   H80       1.0  0.7598800000000001  0.27306  0.5888600000000002  1.0000
  H   H81       1.0  0.030430000000000026  0.08975999999999998  0.22715  1.0000
  H   H82       1.0  0.77036  0.27159  0.67873  1.0000
  H   H83       1.0  0.041059999999999985  0.17733  0.22733000000000003  1.0000
  H   H84       1.0  0.27358999999999994  0.030349999999999995  0.15538000000000002  1.0000
  H   H85       1.0  0.72845  0.84806  0.457  1.0000
  H   H86       1.0  0.5705200000000001  0.96107  0.65495  1.0000
  H   H87       1.0  0.81108  0.75092  0.4262000000000001  1.0000
  H   H88       1.0  0.5560499999999999  0.92907  0.75184  1.0000
  H   H89       1.0  0.3635499999999998  0.94024  0.6747900000000001  1.0000
  H   H90       1.0  0.80539  0.65664  0.46924000000000005  1.0000
  H   H91       1.0  0.53998  0.82367  0.44273  1.0000
  H   H92       1.0  0.6222299999999998  0.7269199999999999  0.4110800000000001  1.0000
  H   H93       1.0  0.34726000000000007  0.90966  0.77198  1.0000
  H   H94       1.0  0.7206200000000004  0.72877  0.32155  1.0000
  H   H95       1.0  0.44519  0.8221399999999998  0.77214  1.0000
  H   H96       1.0  0.4587800000000001  0.9694799999999998  0.8443600000000001  1.0000
  C   C1        1.0  0.97284  0.55343  0.17969000000000004  1.0000
  C   C2        1.0  0.15305000000000002  0.31914999999999993  0.0501  1.0000
  C   C3        1.0  0.8701500000000001  0.58435  0.26829000000000003  1.0000
  C   C4        1.0  0.9473200000000002  0.57059  0.23391000000000006  1.0000
  C   C5        1.0  0.18133  0.26506  0.0676  1.0000
  C   C6        1.0  0.13756000000000004  0.23102  0.08293000000000003  1.0000
  C   C7        1.0  0.03596000000000001  0.30737  0.062160000000000014  1.0000
  C   C8        1.0  0.07974  0.34105  0.04769000000000002  1.0000
  C   C9        1.0  0.88556  0.57126  0.3591200000000001  1.0000
  C   C10       1.0  0.17029000000000002  0.17392  0.10204000000000003  1.0000
  C   C11       1.0  0.24382000000000004  0.14058999999999996  0.07021000000000001  1.0000
  C   C12       1.0  0.8458800000000001  0.6033499999999999  0.32544000000000006  1.0000
  C   C13       1.0  0.8449900000000001  0.5615299999999999  0.19267  1.0000
  C   C14       1.0  0.81941  0.57942  0.24678000000000005  1.0000
  C   C15       1.0  0.9217499999999997  0.54895  0.15853000000000003  1.0000
  C   C16       1.0  0.06451999999999997  0.25307  0.07953000000000002  1.0000
  C   C17       1.0  0.049320000000000044  0.39956  0.030260000000000002  1.0000
  C   C18       1.0  0.94921  0.53107  0.10028000000000001  1.0000
  C   C19       1.0  0.70587  0.4470299999999999  0.82106  1.0000
  C   C20       1.0  0.5220599999999997  0.681  0.9496300000000001  1.0000
  C   C21       1.0  0.7227400000000002  0.41603  0.73224  1.0000
  C   C22       1.0  0.7516499999999997  0.4299399999999999  0.7668900000000002  1.0000
  C   C23       1.0  0.5135299999999999  0.73509  0.9319900000000001  1.0000
  C   C24       1.0  0.4510600000000001  0.7686999999999998  0.9166300000000002  1.0000
  C   C25       1.0  0.4055000000000001  0.69198  0.9374600000000002  1.0000
  C   C26       1.0  0.4684000000000001  0.65881  0.95206  1.0000
  C   C27       1.0  0.8155700000000002  0.4293399999999999  0.64179  1.0000
  C   C28       1.0  0.44555000000000006  0.82586  0.8976400000000002  1.0000
  C   C29       1.0  0.4539800000000001  0.8592699999999998  0.92963  1.0000
  C   C30       1.0  0.77441  0.3971  0.6751600000000002  1.0000
  C   C31       1.0  0.59956  0.43851  0.80745  1.0000
  C   C32       1.0  0.64587  0.4207  0.7534000000000002  1.0000
  C   C33       1.0  0.6294699999999998  0.45125  0.8418400000000003  1.0000
  C   C34       1.0  0.3969299999999999  0.74629  0.9199700000000001  1.0000
  C   C35       1.0  0.4790399999999999  0.60039  0.9696100000000001  1.0000
  C   C36       1.0  0.5808699999999999  0.46904  0.9000100000000002  1.0000
  C   C37       1.0  0.027159999999999948  0.82031  0.4465700000000001  1.0000
  C   C38       1.0  0.8469399999999998  0.9498999999999997  0.6808400000000001  1.0000
  C   C39       1.0  0.12985000000000002  0.73171  0.41564  1.0000
  C   C40       1.0  0.05268000000000004  0.76609  0.42941  1.0000
  C   C41       1.0  0.8186699999999997  0.9324  0.7349300000000002  1.0000
  C   C42       1.0  0.8624399999999999  0.91707  0.7689800000000001  1.0000
  C   C43       1.0  0.9640299999999999  0.93784  0.69262  1.0000
  C   C44       1.0  0.92025  0.95231  0.65895  1.0000
  C   C45       1.0  0.11443000000000003  0.64088  0.42874  1.0000
  C   C46       1.0  0.8296999999999999  0.89796  0.82608  1.0000
  C   C47       1.0  0.75617  0.9297899999999999  0.8594100000000001  1.0000
  C   C48       1.0  0.15411  0.67456  0.39665  1.0000
  C   C49       1.0  0.15499999999999992  0.80733  0.43847  1.0000
  C   C50       1.0  0.18059  0.7532199999999999  0.42058000000000006  1.0000
  C   C51       1.0  0.07825000000000007  0.8414699999999999  0.45105000000000006  1.0000
  C   C52       1.0  0.9354700000000001  0.9204699999999999  0.7469300000000001  1.0000
  C   C53       1.0  0.9506800000000007  0.9697399999999998  0.60044  1.0000
  C   C54       1.0  0.050789999999999905  0.89972  0.46893000000000007  1.0000
  C   C55       1.0  0.29411999999999994  0.17894  0.5529700000000001  1.0000
  C   C56       1.0  0.47794  0.05036999999999999  0.319  1.0000
  C   C57       1.0  0.2772500000000002  0.26776  0.58397  1.0000
  C   C58       1.0  0.24834  0.23311  0.57006  1.0000
  C   C59       1.0  0.48646000000000006  0.06801  0.26491  1.0000
  C   C60       1.0  0.54893  0.08336  0.2313  1.0000
  C   C61       1.0  0.59449  0.06254  0.30802000000000007  1.0000
  C   C62       1.0  0.5316  0.04793  0.34119  1.0000
  C   C63       1.0  0.18442999999999998  0.3582099999999999  0.5706600000000001  1.0000
  C   C64       1.0  0.55444  0.10235999999999999  0.17414  1.0000
  C   C65       1.0  0.54602  0.07035999999999999  0.14074  1.0000
  C   C66       1.0  0.22558999999999993  0.32484  0.6029000000000001  1.0000
  C   C67       1.0  0.40043000000000006  0.19255  0.56149  1.0000
  C   C68       1.0  0.3541200000000001  0.2466  0.5793000000000001  1.0000
  C   C69       1.0  0.37052  0.15816  0.5487500000000001  1.0000
  C   C70       1.0  0.60306  0.08003  0.25371  1.0000
  C   C71       1.0  0.52095  0.03039  0.39962  1.0000
  C   C72       1.0  0.41912  0.09998999999999997  0.53096  1.0000
  C   C73       1.0  0.027159999999999903  0.44656999999999997  0.8203100000000002  1.0000
  C   C74       1.0  0.84694  0.68085  0.9499  1.0000
  C   C75       1.0  0.12985000000000008  0.41564999999999996  0.73171  1.0000
  C   C76       1.0  0.05268000000000004  0.42941  0.76609  1.0000
  C   C77       1.0  0.8186599999999999  0.73494  0.9324000000000002  1.0000
  C   C78       1.0  0.8624300000000001  0.7689799999999999  0.91707  1.0000
  C   C79       1.0  0.9640300000000003  0.6926299999999999  0.93784  1.0000
  C   C80       1.0  0.92025  0.65895  0.9523100000000001  1.0000
  C   C81       1.0  0.11442999999999999  0.42874  0.64088  1.0000
  C   C82       1.0  0.8297000000000002  0.8260899999999998  0.89796  1.0000
  C   C83       1.0  0.7561700000000005  0.85941  0.92979  1.0000
  C   C84       1.0  0.15411000000000008  0.39664999999999995  0.67455  1.0000
  C   C85       1.0  0.1549999999999999  0.43847  0.8073300000000002  1.0000
  C   C86       1.0  0.18058  0.42059  0.7532200000000002  1.0000
  C   C87       1.0  0.07824999999999985  0.45105  0.8414600000000002  1.0000
  C   C88       1.0  0.9354699999999999  0.74693  0.9204700000000002  1.0000
  C   C89       1.0  0.9506799999999997  0.6004399999999999  0.9697300000000002  1.0000
  C   C90       1.0  0.05077999999999994  0.46893  0.8997200000000002  1.0000
  C   C91       1.0  0.29412000000000005  0.55297  0.17894  1.0000
  C   C92       1.0  0.47794  0.319  0.050370000000000005  1.0000
  C   C93       1.0  0.27725  0.58397  0.26776  1.0000
  C   C94       1.0  0.24834  0.57006  0.23311000000000007  1.0000
  C   C95       1.0  0.48646000000000006  0.26491  0.068  1.0000
  C   C96       1.0  0.54893  0.23129  0.08336  1.0000
  C   C97       1.0  0.59449  0.30802  0.06254  1.0000
  C   C98       1.0  0.5316  0.34119  0.04793  1.0000
  C   C99       1.0  0.18443000000000004  0.57066  0.3582  1.0000
  C   C100      1.0  0.55444  0.17413999999999996  0.10235000000000002  1.0000
  C   C101      1.0  0.54602  0.14071999999999998  0.07037  1.0000
  C   C102      1.0  0.22558999999999996  0.6029  0.32484  1.0000
  C   C103      1.0  0.40043000000000006  0.56149  0.19255  1.0000
  C   C104      1.0  0.35412000000000005  0.5793  0.2466  1.0000
  C   C105      1.0  0.37052  0.54875  0.15815000000000004  1.0000
  C   C106      1.0  0.60306  0.25371  0.08003000000000002  1.0000
  C   C107      1.0  0.52095  0.39961  0.03039  1.0000
  C   C108      1.0  0.41912  0.53096  0.09999  1.0000
  C   C109      1.0  0.97284  0.17968999999999996  0.55343  1.0000
  C   C110      1.0  0.15304999999999996  0.050099999999999985  0.31915000000000004  1.0000
  C   C111      1.0  0.8701400000000001  0.26829  0.58435  1.0000
  C   C112      1.0  0.9473200000000002  0.23390999999999998  0.57059  1.0000
  C   C113      1.0  0.18133  0.0676  0.26506  1.0000
  C   C114      1.0  0.13756000000000004  0.08292999999999999  0.23102  1.0000
  C   C115      1.0  0.03596000000000002  0.062159999999999986  0.30737  1.0000
  C   C116      1.0  0.07974  0.047689999999999996  0.34105  1.0000
  C   C117      1.0  0.88556  0.35912  0.5712600000000001  1.0000
  C   C118      1.0  0.17029  0.10204  0.17391  1.0000
  C   C119      1.0  0.24382000000000004  0.07021  0.14059  1.0000
  C   C120      1.0  0.8458800000000001  0.32545  0.60335  1.0000
  C   C121      1.0  0.8449900000000001  0.19267  0.5615300000000001  1.0000
  C   C122      1.0  0.81941  0.24678  0.5794100000000001  1.0000
  C   C123      1.0  0.9217499999999997  0.15854  0.54895  1.0000
  C   C124      1.0  0.06452  0.07953  0.25307  1.0000
  C   C125      1.0  0.04930999999999997  0.03027  0.3995600000000001  1.0000
  C   C126      1.0  0.94921  0.10028  0.53107  1.0000
  C   C127      1.0  0.70587  0.82106  0.44703000000000004  1.0000
  C   C128      1.0  0.5220600000000001  0.94964  0.6810000000000003  1.0000
  C   C129      1.0  0.7227400000000002  0.73224  0.41602000000000006  1.0000
  C   C130      1.0  0.7516499999999999  0.7668899999999998  0.4299400000000001  1.0000
  C   C131      1.0  0.5135300000000002  0.9319999999999998  0.73509  1.0000
  C   C132      1.0  0.4510599999999999  0.91664  0.7687000000000003  1.0000
  C   C133      1.0  0.4054999999999999  0.9374599999999997  0.6919800000000003  1.0000
  C   C134      1.0  0.46840000000000004  0.95207  0.6588100000000001  1.0000
  C   C135      1.0  0.81557  0.6418  0.42934000000000005  1.0000
  C   C136      1.0  0.4455499999999999  0.89765  0.82586  1.0000
  C   C137      1.0  0.45398000000000005  0.92963  0.8592700000000002  1.0000
  C   C138      1.0  0.77441  0.67516  0.3971  1.0000
  C   C139      1.0  0.59956  0.80745  0.43851  1.0000
  C   C140      1.0  0.6458800000000001  0.7533999999999998  0.42070000000000013  1.0000
  C   C141      1.0  0.6294700000000001  0.84184  0.45125  1.0000
  C   C142      1.0  0.39693  0.9199699999999998  0.74629  1.0000
  C   C143      1.0  0.4790400000000001  0.9696099999999999  0.6003800000000001  1.0000
  C   C144      1.0  0.58087  0.90001  0.46904000000000007  1.0000
  C   C145      1.0  0.87023  0.58938  0.41150000000000003  1.0000
  C   C146      1.0  0.7879000000000002  0.65565  0.34479000000000004  1.0000
  C   C147      1.0  0.9139800000000001  0.55511  0.4461100000000001  1.0000
  C   C148      1.0  0.87023  0.4115  0.5893800000000001  1.0000
  C   C149      1.0  0.7879000000000002  0.3448  0.65565  1.0000
  C   C150      1.0  0.9139800000000001  0.44611  0.5551100000000001  1.0000
  C   C151      1.0  0.12976000000000004  0.5885  0.41062  1.0000
  C   C152      1.0  0.21209000000000008  0.65521  0.34434  1.0000
  C   C153      1.0  0.08600999999999996  0.55389  0.44489  1.0000
  C   C154      1.0  0.12976000000000007  0.41061999999999993  0.5885  1.0000
  C   C155      1.0  0.21209000000000008  0.34434999999999993  0.6552000000000001  1.0000
  C   C156      1.0  0.08601000000000018  0.44488999999999995  0.55389  1.0000
  C   C157      1.0  0.28099  0.08832  0.08831000000000003  1.0000
  C   C158      1.0  0.13164  0.15432  0.15431  1.0000
  C   C159      1.0  0.3597699999999999  0.05423  0.054210000000000015  1.0000
  C   C160      1.0  0.4571500000000001  0.9115399999999999  0.91155  1.0000
  C   C161      1.0  0.43953000000000014  0.8453399999999999  0.8453400000000002  1.0000
  C   C162      1.0  0.4686  0.94545  0.9454800000000001  1.0000
  C   C163      1.0  0.7189999999999998  0.91169  0.9116800000000003  1.0000
  C   C164      1.0  0.8683500000000003  0.8456899999999998  0.84568  1.0000
  C   C165      1.0  0.64022  0.9457899999999999  0.9457700000000002  1.0000
  C   C166      1.0  0.54285  0.08844999999999999  0.08846  1.0000
  C   C167      1.0  0.56047  0.15466  0.15466000000000002  1.0000
  C   C168      1.0  0.5313900000000001  0.05451  0.054550000000000015  1.0000
  N   N1        1.0  0.7469800000000001  0.68778  0.31255000000000005  1.0000
  N   N2        1.0  0.7469800000000001  0.31255  0.68778  1.0000
  N   N3        1.0  0.25301000000000007  0.68745  0.31222  1.0000
  N   N4        1.0  0.25301000000000007  0.31222  0.6874500000000002  1.0000
  N   N5        1.0  0.05860999999999999  0.18637  0.18637000000000006  1.0000
  N   N6        1.0  0.43061999999999995  0.81313  0.81312  1.0000
  N   N7        1.0  0.9413800000000007  0.81363  0.81363  1.0000
  N   N8        1.0  0.56937  0.18686999999999998  0.18687000000000004  1.0000
  O   O1        1.0  0.9030299999999999  0.52028  0.08539  1.0000
  O   O2        1.0  0.39129000000000014  0.07424999999999998  0.007550000000000002  1.0000
  O   O3        1.0  0.9642100000000002  0.50796  0.42658  1.0000
  O   O4        1.0  0.9805000000000001  0.41879  0.031810000000000005  1.0000
  O   O5        1.0  0.09471000000000004  0.4263799999999999  0.01518  1.0000
  O   O6        1.0  0.017119999999999965  0.52787  0.06949  1.0000
  O   O7        1.0  0.5093299999999996  0.47979  0.91439  1.0000
  O   O8        1.0  0.4739000000000002  0.9252  0.99206  1.0000
  O   O9        1.0  0.8993200000000001  0.49256  0.5755000000000001  1.0000
  O   O10       1.0  0.4312900000000004  0.58095  0.96764  1.0000
  O   O11       1.0  0.53573  0.57385  0.9851700000000002  1.0000
  O   O12       1.0  0.61438  0.4722199999999999  0.9313  1.0000
  O   O13       1.0  0.09696000000000013  0.91461  0.4797200000000001  1.0000
  O   O14       1.0  0.60871  0.99245  0.9257400000000002  1.0000
  O   O15       1.0  0.03578  0.57341  0.49204  1.0000
  O   O16       1.0  0.019489999999999966  0.9681899999999999  0.5812100000000001  1.0000
  O   O17       1.0  0.90528  0.9848199999999999  0.57362  1.0000
  O   O18       1.0  0.98287  0.93051  0.47212  1.0000
  O   O19       1.0  0.49065999999999993  0.08560999999999998  0.52022  1.0000
  O   O20       1.0  0.52609  0.00794  0.07481000000000002  1.0000
  O   O21       1.0  0.10067999999999994  0.4245  0.50744  1.0000
  O   O22       1.0  0.5686999999999999  0.03236  0.41905000000000003  1.0000
  O   O23       1.0  0.46426999999999996  0.01483  0.42615  1.0000
  O   O24       1.0  0.38561  0.0687  0.52778  1.0000
  O   O25       1.0  0.09696000000000013  0.47971999999999987  0.91461  1.0000
  O   O26       1.0  0.6087100000000001  0.92581  0.99246  1.0000
  O   O27       1.0  0.03578000000000004  0.49204999999999993  0.57341  1.0000
  O   O28       1.0  0.019489999999999966  0.58121  0.9681800000000002  1.0000
  O   O29       1.0  0.9052799999999998  0.57362  0.9848200000000003  1.0000
  O   O30       1.0  0.98287  0.47213  0.9305100000000002  1.0000
  O   O31       1.0  0.4906600000000003  0.52022  0.08561  1.0000
  O   O32       1.0  0.52616  0.07472  0.00795  1.0000
  O   O33       1.0  0.10067999999999994  0.50744  0.4245  1.0000
  O   O34       1.0  0.5687  0.41905  0.03236000000000001  1.0000
  O   O35       1.0  0.46426999999999996  0.42615  0.014830000000000001  1.0000
  O   O36       1.0  0.3856099999999999  0.52778  0.0687  1.0000
  O   O37       1.0  0.9030300000000001  0.08539  0.52028  1.0000
  O   O38       1.0  0.39127999999999996  0.00754  0.0742  1.0000
  O   O39       1.0  0.96421  0.42659  0.50795  1.0000
  O   O40       1.0  0.9804999999999999  0.03182  0.41879  1.0000
  O   O41       1.0  0.09470999999999997  0.01518  0.42638000000000004  1.0000
  O   O42       1.0  0.017119999999999972  0.06949  0.52787  1.0000
  O   O43       1.0  0.5093299999999997  0.91439  0.4797800000000001  1.0000
  O   O44       1.0  0.47383  0.9920499999999998  0.9252700000000003  1.0000
  O   O45       1.0  0.8993200000000001  0.5755  0.4925600000000001  1.0000
  O   O46       1.0  0.4312899999999999  0.96764  0.5809500000000001  1.0000
  O   O47       1.0  0.5357300000000002  0.9851699999999999  0.57385  1.0000
  O   O48       1.0  0.6143800000000003  0.9312999999999998  0.4722200000000001  1.0000
