data_image0
_chemical_formula_structural       Ni6H72C108N24O24
_chemical_formula_sum              "Ni6 H72 C108 N24 O24"
_cell_length_a       14.34448
_cell_length_b       14.3531
_cell_length_c       15.973569999999999
_cell_angle_alpha    90.66502
_cell_angle_beta     90.67377
_cell_angle_gamma    91.57437

_space_group_name_H-M_alt    "P 1"
_space_group_IT_number       1

loop_
  _space_group_symop_operation_xyz
  'x, y, z'

loop_
  _atom_site_type_symbol
  _atom_site_label
  _atom_site_symmetry_multiplicity
  _atom_site_fract_x
  _atom_site_fract_y
  _atom_site_fract_z
  _atom_site_occupancy
  Ni  Ni1       1.0  0.8228299999999997  0.5188300000000002  0.6193599999999998  1.0000
  Ni  Ni2       1.0  0.48145  0.17703000000000005  0.8806099999999998  1.0000
  Ni  Ni3       1.0  0.17717  0.4811700000000001  0.38063999999999987  1.0000
  Ni  Ni4       1.0  0.5185499999999998  0.82297  0.11938  1.0000
  Ni  Ni5       1.0  0.8794399999999998  0.12015  0.75071  1.0000
  Ni  Ni6       1.0  0.12057  0.8798500000000002  0.24928999999999996  1.0000
  H   H1        1.0  0.9634899999999997  0.6387000000000002  0.7154  1.0000
  H   H2        1.0  0.009909999999999997  0.27062  0.86061  1.0000
  H   H3        1.0  0.72984  0.9365400000000003  0.9355699999999998  1.0000
  H   H4        1.0  0.7186099999999999  0.25201  0.8238699999999998  1.0000
  H   H5        1.0  0.8385799999999998  0.78391  0.72731  1.0000
  H   H6        1.0  0.6706399999999998  0.64181  0.9106999999999997  1.0000
  H   H7        1.0  0.3878399999999999  0.6835300000000002  0.01156  1.0000
  H   H8        1.0  0.39828999999999987  0.9783300000000003  0.0194  1.0000
  H   H9        1.0  0.27200999999999986  0.9198300000000003  0.8967199999999997  1.0000
  H   H10       1.0  0.9731  0.34773  0.68087  1.0000
  H   H11       1.0  0.05675  0.3377200000000001  0.0009299999999999998  1.0000
  H   H12       1.0  0.13131999999999994  0.4064500000000001  0.76979  1.0000
  H   H13       1.0  0.8586499999999998  0.5381800000000001  0.9160999999999998  1.0000
  H   H14       1.0  0.76114  0.4089000000000001  0.9216699999999998  1.0000
  H   H15       1.0  0.02463  0.7027400000000001  0.83052  1.0000
  H   H16       1.0  0.35853  0.6238200000000003  0.8625199999999997  1.0000
  H   H17       1.0  0.25025  0.51641  0.7836  1.0000
  H   H18       1.0  0.13341  0.80954  0.90855  1.0000
  H   H19       1.0  0.36114999999999997  0.03665  0.7843699999999998  1.0000
  H   H20       1.0  0.7290499999999998  0.98967  0.6403399999999998  1.0000
  H   H21       1.0  0.06268999999999998  0.27013  0.5652099999999998  1.0000
  H   H22       1.0  0.74801  0.28083  0.67671  1.0000
  H   H23       1.0  0.21608  0.1615  0.77311  1.0000
  H   H24       1.0  0.35781  0.3289200000000001  0.58917  1.0000
  H   H25       1.0  0.3167799999999999  0.6122  0.4884099999999999  1.0000
  H   H26       1.0  0.021820000000000003  0.6013800000000002  0.4804599999999999  1.0000
  H   H27       1.0  0.08014999999999997  0.7277500000000002  0.6030899999999998  1.0000
  H   H28       1.0  0.65218  0.0267  0.8195399999999998  1.0000
  H   H29       1.0  0.66224  0.9428600000000003  0.49930999999999987  1.0000
  H   H30       1.0  0.59346  0.8686200000000002  0.7305199999999997  1.0000
  H   H31       1.0  0.4619999999999999  0.14129  0.58392  1.0000
  H   H32       1.0  0.59162  0.23846  0.57809  1.0000
  H   H33       1.0  0.29705  0.9752700000000002  0.66933  1.0000
  H   H34       1.0  0.37634  0.6416300000000003  0.63753  1.0000
  H   H35       1.0  0.4836499999999999  0.74995  0.71649  1.0000
  H   H36       1.0  0.19035999999999995  0.8664300000000005  0.59126  1.0000
  H   H37       1.0  0.036520000000000004  0.3613000000000001  0.2845999999999999  1.0000
  H   H38       1.0  0.9900999999999998  0.7293800000000003  0.13939  1.0000
  H   H39       1.0  0.27016  0.06346000000000002  0.06442999999999997  1.0000
  H   H40       1.0  0.28138999999999986  0.74799  0.17612999999999995  1.0000
  H   H41       1.0  0.16142  0.21609000000000006  0.27268  1.0000
  H   H42       1.0  0.32936  0.35818  0.0893  1.0000
  H   H43       1.0  0.6121599999999998  0.31647  0.9884399999999998  1.0000
  H   H44       1.0  0.6017099999999999  0.021670000000000005  0.9806  1.0000
  H   H45       1.0  0.728  0.08017  0.10327999999999997  1.0000
  H   H46       1.0  0.026900000000000004  0.6522700000000002  0.31912  1.0000
  H   H47       1.0  0.9432499999999998  0.6622800000000002  0.9990699999999999  1.0000
  H   H48       1.0  0.86868  0.59355  0.23019999999999993  1.0000
  H   H49       1.0  0.14135  0.46182  0.08389999999999997  1.0000
  H   H50       1.0  0.23886999999999994  0.5911000000000001  0.07831999999999997  1.0000
  H   H51       1.0  0.9753799999999998  0.29726000000000014  0.16947  1.0000
  H   H52       1.0  0.64147  0.3761800000000001  0.13748  1.0000
  H   H53       1.0  0.7497499999999999  0.4835900000000001  0.21639999999999995  1.0000
  H   H54       1.0  0.86659  0.19046  0.09144999999999998  1.0000
  H   H55       1.0  0.6388499999999998  0.9633500000000003  0.21562999999999993  1.0000
  H   H56       1.0  0.27094999999999997  0.01033  0.35965999999999987  1.0000
  H   H57       1.0  0.9373099999999998  0.72987  0.43478  1.0000
  H   H58       1.0  0.2519899999999999  0.71917  0.3232899999999999  1.0000
  H   H59       1.0  0.7839299999999998  0.8385  0.22688999999999995  1.0000
  H   H60       1.0  0.6421899999999998  0.67107  0.4108199999999999  1.0000
  H   H61       1.0  0.68323  0.3878  0.5115799999999998  1.0000
  H   H62       1.0  0.9781899999999998  0.3986200000000001  0.5195299999999998  1.0000
  H   H63       1.0  0.9198499999999997  0.27225  0.3969099999999999  1.0000
  H   H64       1.0  0.34782  0.9733000000000003  0.18045999999999995  1.0000
  H   H65       1.0  0.33777  0.05714000000000002  0.5006899999999997  1.0000
  H   H66       1.0  0.40655  0.13138000000000002  0.2694799999999999  1.0000
  H   H67       1.0  0.5380099999999999  0.8587100000000002  0.41608  1.0000
  H   H68       1.0  0.4083799999999999  0.7615400000000002  0.4219099999999999  1.0000
  H   H69       1.0  0.7029499999999997  0.02473  0.33067  1.0000
  H   H70       1.0  0.62366  0.3583700000000001  0.36247  1.0000
  H   H71       1.0  0.51635  0.2500500000000001  0.2835  1.0000
  H   H72       1.0  0.8096499999999998  0.13357000000000005  0.4087399999999999  1.0000
  C   C1        1.0  0.9867299999999999  0.56786  0.7190199999999998  1.0000
  C   C2        1.0  0.83103  0.9588200000000002  0.79713  1.0000
  C   C3        1.0  0.6262899999999998  0.7945  0.00057  1.0000
  C   C4        1.0  0.93662  0.28578  0.86391  1.0000
  C   C5        1.0  0.13054  0.6026500000000001  0.8015799999999997  1.0000
  C   C6        1.0  0.7378599999999998  0.87091  0.9022799999999997  1.0000
  C   C7        1.0  0.7913099999999997  0.8692600000000003  0.8296099999999997  1.0000
  C   C8        1.0  0.7855199999999998  0.2795300000000001  0.8459599999999998  1.0000
  C   C9        1.0  0.2524  0.7232900000000002  0.8899599999999998  1.0000
  C   C10       1.0  0.6928099999999998  0.7896800000000003  0.93022  1.0000
  C   C11       1.0  0.80039  0.7851000000000002  0.7857099999999998  1.0000
  C   C12       1.0  0.7588299999999998  0.70256  0.8157699999999998  1.0000
  C   C13       1.0  0.7051999999999998  0.7049900000000002  0.8881699999999998  1.0000
  C   C14       1.0  0.3737399999999999  0.7555900000000002  0.9987099999999999  1.0000
  C   C15       1.0  0.37597  0.90802  0.0016199999999999995  1.0000
  C   C16       1.0  0.31363  0.8806  0.9399099999999998  1.0000
  C   C17       1.0  0.9520099999999999  0.43026  0.9538699999999998  1.0000
  C   C18       1.0  0.7683799999999997  0.61231  0.7685999999999998  1.0000
  C   C19       1.0  0.9950599999999997  0.4173400000000001  0.7012099999999998  1.0000
  C   C20       1.0  0.03247  0.4088900000000001  0.9995699999999998  1.0000
  C   C21       1.0  0.07362999999999997  0.44537  0.74558  1.0000
  C   C22       1.0  0.91955  0.52154  0.9541799999999998  1.0000
  C   C23       1.0  0.80491  0.35601  0.8958099999999998  1.0000
  C   C24       1.0  0.09793999999999997  0.6859900000000002  0.8356999999999998  1.0000
  C   C25       1.0  0.2853  0.64043  0.8557399999999997  1.0000
  C   C26       1.0  0.22434999999999994  0.5800300000000002  0.8114599999999997  1.0000
  C   C27       1.0  0.15884999999999994  0.7462800000000003  0.8796399999999998  1.0000
  C   C28       1.0  0.4320099999999999  0.01335  0.7808799999999998  1.0000
  C   C29       1.0  0.04082999999999999  0.16898000000000005  0.7037799999999997  1.0000
  C   C30       1.0  0.2052  0.37347  0.4995499999999999  1.0000
  C   C31       1.0  0.7139899999999998  0.06293  0.6369099999999998  1.0000
  C   C32       1.0  0.39726999999999996  0.86951  0.6983999999999998  1.0000
  C   C33       1.0  0.12852999999999998  0.26211  0.5982499999999997  1.0000
  C   C34       1.0  0.13037999999999997  0.20868000000000003  0.6709799999999998  1.0000
  C   C35       1.0  0.72046  0.21396000000000007  0.6546299999999998  1.0000
  C   C36       1.0  0.27675  0.74759  0.60993  1.0000
  C   C37       1.0  0.20978  0.30702  0.57002  1.0000
  C   C38       1.0  0.21472999999999995  0.19962  0.7146799999999998  1.0000
  C   C39       1.0  0.29727  0.24109  0.6844  1.0000
  C   C40       1.0  0.29463  0.2945200000000001  0.6119  1.0000
  C   C41       1.0  0.24463999999999994  0.62619  0.50124  1.0000
  C   C42       1.0  0.09213  0.6237600000000001  0.4982799999999999  1.0000
  C   C43       1.0  0.11946  0.6861800000000002  0.55993  1.0000
  C   C44       1.0  0.5698199999999998  0.04776  0.54628  1.0000
  C   C45       1.0  0.3876999999999999  0.23157000000000005  0.7314499999999998  1.0000
  C   C46       1.0  0.58257  0.004819999999999997  0.7990399999999998  1.0000
  C   C47       1.0  0.59109  0.96732  0.5005599999999998  1.0000
  C   C48       1.0  0.5545299999999999  0.92631  0.75465  1.0000
  C   C49       1.0  0.47856  0.08042  0.54583  1.0000
  C   C50       1.0  0.64426  0.19466  0.60436  1.0000
  C   C51       1.0  0.31388  0.9020100000000002  0.6641899999999997  1.0000
  C   C52       1.0  0.35965999999999987  0.71481  0.64425  1.0000
  C   C53       1.0  0.41998999999999986  0.7757800000000002  0.6885699999999998  1.0000
  C   C54       1.0  0.25366  0.8410700000000001  0.62021  1.0000
  C   C55       1.0  0.013279999999999998  0.43213  0.2809699999999999  1.0000
  C   C56       1.0  0.16897  0.04118000000000001  0.20286999999999994  1.0000
  C   C57       1.0  0.37371  0.20550000000000004  0.9994299999999999  1.0000
  C   C58       1.0  0.06338999999999997  0.7142200000000002  0.13609  1.0000
  C   C59       1.0  0.8694599999999998  0.3973500000000001  0.19841  1.0000
  C   C60       1.0  0.26213999999999993  0.12909  0.09771  1.0000
  C   C61       1.0  0.20868999999999996  0.13074000000000005  0.17039  1.0000
  C   C62       1.0  0.21447999999999995  0.7204600000000001  0.15403999999999995  1.0000
  C   C63       1.0  0.7476  0.27670000000000006  0.11003999999999997  1.0000
  C   C64       1.0  0.30719  0.21032  0.06976999999999997  1.0000
  C   C65       1.0  0.1996199999999999  0.2149  0.21428999999999995  1.0000
  C   C66       1.0  0.24117999999999995  0.2974400000000001  0.18421999999999994  1.0000
  C   C67       1.0  0.2948  0.29501  0.11181999999999997  1.0000
  C   C68       1.0  0.62626  0.24440000000000006  0.00129  1.0000
  C   C69       1.0  0.6240299999999998  0.09198  0.9983799999999999  1.0000
  C   C70       1.0  0.6863699999999998  0.11939  0.060089999999999984  1.0000
  C   C71       1.0  0.04799  0.56974  0.046129999999999984  1.0000
  C   C72       1.0  0.23161999999999996  0.38769  0.23139999999999994  1.0000
  C   C73       1.0  0.004939999999999999  0.58266  0.2987899999999999  1.0000
  C   C74       1.0  0.9675299999999998  0.5911100000000001  0.00042  1.0000
  C   C75       1.0  0.9263699999999998  0.5546300000000002  0.25442  1.0000
  C   C76       1.0  0.08046  0.4784600000000001  0.045819999999999986  1.0000
  C   C77       1.0  0.1951  0.6439900000000002  0.10418999999999998  1.0000
  C   C78       1.0  0.90206  0.3140100000000001  0.16429999999999995  1.0000
  C   C79       1.0  0.71471  0.35957  0.14426  1.0000
  C   C80       1.0  0.7756599999999998  0.4199700000000001  0.18853999999999996  1.0000
  C   C81       1.0  0.84115  0.25372000000000006  0.12035999999999997  1.0000
  C   C82       1.0  0.5679899999999999  0.9866500000000001  0.21911999999999995  1.0000
  C   C83       1.0  0.9591799999999998  0.83102  0.29622  1.0000
  C   C84       1.0  0.7947999999999997  0.62653  0.50045  1.0000
  C   C85       1.0  0.28601  0.9370700000000001  0.3630899999999999  1.0000
  C   C86       1.0  0.60273  0.13049000000000002  0.30159999999999987  1.0000
  C   C87       1.0  0.8714799999999998  0.7378900000000003  0.4017399999999999  1.0000
  C   C88       1.0  0.8696199999999997  0.7913200000000002  0.32902  1.0000
  C   C89       1.0  0.27954  0.7860400000000002  0.34536  1.0000
  C   C90       1.0  0.72325  0.2524  0.39007  1.0000
  C   C91       1.0  0.7902199999999998  0.6929800000000003  0.42997999999999986  1.0000
  C   C92       1.0  0.7852699999999998  0.8003800000000002  0.2853199999999999  1.0000
  C   C93       1.0  0.70274  0.75891  0.3156  1.0000
  C   C94       1.0  0.7053799999999998  0.70548  0.3881  1.0000
  C   C95       1.0  0.75536  0.37381  0.49876  1.0000
  C   C96       1.0  0.9078699999999997  0.37624000000000013  0.50172  1.0000
  C   C97       1.0  0.8805399999999999  0.3138200000000001  0.4400699999999999  1.0000
  C   C98       1.0  0.4301799999999999  0.9522400000000001  0.4537199999999999  1.0000
  C   C99       1.0  0.6122999999999997  0.7684300000000002  0.26855  1.0000
  C   C100      1.0  0.41743  0.9951800000000002  0.20095999999999994  1.0000
  C   C101      1.0  0.4089099999999999  0.032670000000000005  0.4994399999999999  1.0000
  C   C102      1.0  0.44546999999999987  0.07368  0.24534  1.0000
  C   C103      1.0  0.5214399999999999  0.9195800000000001  0.4541699999999999  1.0000
  C   C104      1.0  0.3557399999999999  0.8053300000000002  0.39562999999999987  1.0000
  C   C105      1.0  0.6861199999999997  0.09799000000000001  0.3358099999999999  1.0000
  C   C106      1.0  0.6403499999999998  0.2851900000000001  0.3557499999999999  1.0000
  C   C107      1.0  0.5800099999999998  0.22422000000000006  0.3114299999999999  1.0000
  C   C108      1.0  0.7463499999999997  0.15893  0.3797899999999999  1.0000
  N   N1        1.0  0.8679899999999999  0.23702000000000006  0.8254999999999998  1.0000
  N   N2        1.0  0.9011699999999998  0.3596000000000001  0.9076399999999998  1.0000
  N   N3        1.0  0.41203  0.8293200000000002  0.03829  1.0000
  N   N4        1.0  0.31287  0.7834900000000002  0.9381099999999998  1.0000
  N   N5        1.0  0.9418499999999997  0.4944100000000001  0.6851299999999998  1.0000
  N   N6        1.0  0.06755  0.54154  0.7572199999999998  1.0000
  N   N7        1.0  0.76265  0.13147000000000006  0.6755  1.0000
  N   N8        1.0  0.6405199999999998  0.09843000000000003  0.5926699999999998  1.0000
  N   N9        1.0  0.17092999999999997  0.5877700000000002  0.46168  1.0000
  N   N10       1.0  0.21663  0.68708  0.5617499999999997  1.0000
  N   N11       1.0  0.5055  0.05811000000000001  0.8148999999999997  1.0000
  N   N12       1.0  0.45835  0.9325099999999998  0.7427999999999998  1.0000
  N   N13       1.0  0.13200999999999993  0.7629800000000002  0.1745  1.0000
  N   N14       1.0  0.09882999999999999  0.6404  0.09235999999999997  1.0000
  N   N15       1.0  0.5879699999999998  0.17068000000000005  0.96171  1.0000
  N   N16       1.0  0.6871399999999998  0.21651000000000004  0.06188999999999999  1.0000
  N   N17       1.0  0.058149999999999986  0.50559  0.31486999999999987  1.0000
  N   N18       1.0  0.9324599999999997  0.4584600000000001  0.24277999999999994  1.0000
  N   N19       1.0  0.23735999999999993  0.8685300000000002  0.3245  1.0000
  N   N20       1.0  0.35948  0.9015600000000003  0.4073299999999999  1.0000
  N   N21       1.0  0.8290699999999999  0.4122300000000001  0.5383199999999998  1.0000
  N   N22       1.0  0.7833699999999998  0.31292  0.4382399999999999  1.0000
  N   N23       1.0  0.4945  0.9418900000000002  0.18509  1.0000
  N   N24       1.0  0.54166  0.06748  0.2571999999999999  1.0000
  O   O1        1.0  0.8191699999999997  0.03321000000000001  0.84108  1.0000
  O   O2        1.0  0.87126  0.9624100000000002  0.7265  1.0000
  O   O3        1.0  0.6113099999999998  0.87536  0.03338999999999999  1.0000
  O   O4        1.0  0.58281  0.72197  0.025489999999999992  1.0000
  O   O5        1.0  0.7546599999999998  0.5358500000000002  0.8038999999999997  1.0000
  O   O6        1.0  0.79202  0.6245100000000002  0.6913699999999998  1.0000
  O   O7        1.0  0.9662299999999999  0.18096  0.6601199999999998  1.0000
  O   O8        1.0  0.037469999999999976  0.12867000000000003  0.7743799999999997  1.0000
  O   O9        1.0  0.12441  0.38862  0.4665699999999999  1.0000
  O   O10       1.0  0.27789  0.41679  0.47465  1.0000
  O   O11       1.0  0.4641599999999999  0.24529  0.6960699999999997  1.0000
  O   O12       1.0  0.3756099999999999  0.2079  0.8086699999999998  1.0000
  O   O13       1.0  0.18083  0.96679  0.15890999999999994  1.0000
  O   O14       1.0  0.12873999999999994  0.03759  0.2734899999999999  1.0000
  O   O15       1.0  0.3886999999999999  0.12463000000000002  0.9666  1.0000
  O   O16       1.0  0.4171899999999999  0.27802  0.9745099999999998  1.0000
  O   O17       1.0  0.24533999999999995  0.46415  0.19609999999999994  1.0000
  O   O18       1.0  0.20797999999999994  0.37549  0.3086299999999999  1.0000
  O   O19       1.0  0.03378  0.8190400000000002  0.3398699999999999  1.0000
  O   O20       1.0  0.9625299999999998  0.8713300000000003  0.22561999999999993  1.0000
  O   O21       1.0  0.8755999999999998  0.61138  0.5334299999999997  1.0000
  O   O22       1.0  0.7221199999999998  0.5832100000000002  0.52535  1.0000
  O   O23       1.0  0.53584  0.75471  0.30392  1.0000
  O   O24       1.0  0.6243899999999999  0.7921000000000002  0.19132  1.0000
