data_image0
_chemical_formula_structural       Cu9H72C108N18O36
_chemical_formula_sum              "Cu9 H72 C108 N18 O36"
_cell_length_a       15.67031
_cell_length_b       15.67038
_cell_length_c       17.10315
_cell_angle_alpha    89.98848
_cell_angle_beta     89.99151
_cell_angle_gamma    120.31749999999998

_space_group_name_H-M_alt    "P 1"
_space_group_IT_number       1

loop_
  _space_group_symop_operation_xyz
  'x, y, z'

loop_
  _atom_site_type_symbol
  _atom_site_label
  _atom_site_symmetry_multiplicity
  _atom_site_fract_x
  _atom_site_fract_y
  _atom_site_fract_z
  _atom_site_occupancy
  Cu  Cu1       1.0  0.83766  0.64871  0.78421  1.0000
  Cu  Cu2       1.0  0.15818  0.84368  0.44996000000000014  1.0000
  Cu  Cu3       1.0  0.47879  0.9822799999999998  0.7881200000000002  1.0000
  Cu  Cu4       1.0  0.8111500000000003  0.16215  0.45086  1.0000
  Cu  Cu5       1.0  0.6859999999999999  0.8421799999999998  0.11663000000000003  1.0000
  Cu  Cu6       1.0  0.5035700000000002  0.5210299999999999  0.45479  1.0000
  Cu  Cu7       1.0  0.3513900000000001  0.18902999999999995  0.11751  1.0000
  Cu  Cu8       1.0  0.15616999999999995  0.3141099999999999  0.7833300000000002  1.0000
  Cu  Cu9       1.0  0.017709999999999993  0.49655  0.12141999999999999  1.0000
  H   H1        1.0  0.6317700000000003  0.53628  0.73727  1.0000
  H   H2        1.0  0.4684  0.51481  0.77993  1.0000
  H   H3        1.0  0.4663000000000002  0.61501  0.89362  1.0000
  H   H4        1.0  0.7828800000000002  0.74317  0.9108100000000002  1.0000
  H   H5        1.0  0.9366800000000002  0.54139  0.8373700000000002  1.0000
  H   H6        1.0  0.08161000000000004  0.52407  0.7964100000000002  1.0000
  H   H7        1.0  0.17772  0.61662  0.67719  1.0000
  H   H8        1.0  0.9825700000000002  0.7339199999999998  0.6548700000000002  1.0000
  H   H9        1.0  0.30581  0.9042599999999997  0.5768600000000002  1.0000
  H   H10       1.0  0.4774600000000001  0.22271  0.56965  1.0000
  H   H11       1.0  0.37333  0.21741999999999997  0.45616  1.0000
  H   H12       1.0  0.23919000000000007  0.05118999999999999  0.40838  1.0000
  H   H13       1.0  0.42296  0.07262  0.91693  1.0000
  H   H14       1.0  0.11033000000000003  0.9605399999999998  0.89083  1.0000
  H   H15       1.0  0.11235000000000002  0.86427  0.77416  1.0000
  H   H16       1.0  0.27403  0.87848  0.73566  1.0000
  H   H17       1.0  0.69352  0.20546999999999999  0.02022  1.0000
  H   H18       1.0  0.79244  0.20420999999999997  0.13528  1.0000
  H   H19       1.0  0.7857300000000003  0.04495999999999999  0.16949  1.0000
  H   H20       1.0  0.5925700000000003  0.8956599999999998  0.9876700000000002  1.0000
  H   H21       1.0  0.56395  0.86123  0.83283  1.0000
  H   H22       1.0  0.7001800000000002  0.83306  0.78674  1.0000
  H   H23       1.0  0.80463  0.9335399999999998  0.67277  1.0000
  H   H24       1.0  0.6289200000000003  0.07407999999999997  0.6629300000000001  1.0000
  H   H25       1.0  0.9041900000000002  0.36759999999999987  0.404  1.0000
  H   H26       1.0  0.04683999999999994  0.53169  0.44708  1.0000
  H   H27       1.0  0.14947  0.53424  0.56071  1.0000
  H   H28       1.0  0.9600500000000002  0.21726999999999994  0.5769700000000001  1.0000
  H   H29       1.0  0.6048800000000002  0.06298  0.50351  1.0000
  H   H30       1.0  0.44137000000000004  0.9173299999999999  0.46262  1.0000
  H   H31       1.0  0.43773  0.8214599999999997  0.34383  1.0000
  H   H32       1.0  0.75227  0.0181  0.32185  1.0000
  H   H33       1.0  0.5986799999999998  0.6936099999999997  0.24395  1.0000
  H   H34       1.0  0.7448199999999999  0.5233099999999999  0.23623000000000002  1.0000
  H   H35       1.0  0.84412  0.62769  0.12225  1.0000
  H   H36       1.0  0.81265  0.7611899999999998  0.07455  1.0000
  H   H37       1.0  0.6493900000000002  0.57707  0.58313  1.0000
  H   H38       1.0  0.8510499999999999  0.8903299999999997  0.55792  1.0000
  H   H39       1.0  0.75243  0.8878799999999999  0.44133  1.0000
  H   H40       1.0  0.6041400000000002  0.7253699999999998  0.40246  1.0000
  H   H41       1.0  0.512  0.30701  0.68645  1.0000
  H   H42       1.0  0.41121000000000013  0.20780999999999997  0.80187  1.0000
  H   H43       1.0  0.25852  0.21402999999999994  0.83654  1.0000
  H   H44       1.0  0.30349  0.40694999999999987  0.65457  1.0000
  H   H45       1.0  0.2975500000000001  0.4356699999999999  0.49899000000000004  1.0000
  H   H46       1.0  0.13187  0.2988  0.4528400000000001  1.0000
  H   H47       1.0  0.12767999999999996  0.19458999999999999  0.33938  1.0000
  H   H48       1.0  0.44599000000000016  0.37170999999999993  0.32999  1.0000
  H   H49       1.0  0.46402  0.09618999999999998  0.07015  1.0000
  H   H50       1.0  0.4848499999999999  0.9542099999999998  0.11324  1.0000
  H   H51       1.0  0.3843699999999999  0.8513499999999998  0.22738  1.0000
  H   H52       1.0  0.25743  0.03928  0.24398  1.0000
  H   H53       1.0  0.45841000000000015  0.39573  0.17032  1.0000
  H   H54       1.0  0.47625000000000006  0.5584599999999998  0.12978000000000006  1.0000
  H   H55       1.0  0.38388000000000017  0.56166  0.010920000000000001  1.0000
  H   H56       1.0  0.26556  0.24768999999999997  0.98806  1.0000
  H   H57       1.0  0.09602000000000002  0.40199999999999997  0.91065  1.0000
  H   H58       1.0  0.7777000000000002  0.25452  0.9025  1.0000
  H   H59       1.0  0.7825  0.15546999999999997  0.78901  1.0000
  H   H60       1.0  0.9481500000000003  0.18765  0.74167  1.0000
  H   H61       1.0  0.9279100000000002  0.3498999999999999  0.2500800000000001  1.0000
  H   H62       1.0  0.038949999999999985  0.1498  0.22458  1.0000
  H   H63       1.0  0.13544999999999993  0.24867999999999996  0.10755  1.0000
  H   H64       1.0  0.12176  0.3962399999999999  0.06859  1.0000
  H   H65       1.0  0.7938500000000002  0.4871499999999999  0.35318  1.0000
  H   H66       1.0  0.7955100000000003  0.58767  0.46813  1.0000
  H   H67       1.0  0.9556600000000001  0.7410899999999998  0.5026600000000001  1.0000
  H   H68       1.0  0.10438999999999989  0.6972699999999997  0.32147  1.0000
  H   H69       1.0  0.13848999999999995  0.7031199999999997  0.16572  1.0000
  H   H70       1.0  0.1673599999999999  0.8681699999999998  0.12000000000000001  1.0000
  H   H71       1.0  0.06711999999999989  0.8718399999999997  0.00651  1.0000
  H   H72       1.0  0.9252999999999998  0.5537899999999998  0.99619  1.0000
  C   C1        1.0  0.62607  0.57686  0.78651  1.0000
  C   C2        1.0  0.5362800000000002  0.5659599999999999  0.81038  1.0000
  C   C3        1.0  0.53528  0.6217199999999998  0.87356  1.0000
  C   C4        1.0  0.6243699999999999  0.6864399999999998  0.91132  1.0000
  C   C5        1.0  0.7116800000000002  0.69335  0.88408  1.0000
  C   C6        1.0  0.9811700000000004  0.57949  0.78651  1.0000
  C   C7        1.0  0.06149999999999998  0.5708599999999999  0.76349  1.0000
  C   C8        1.0  0.1153199999999999  0.6225699999999997  0.6975  1.0000
  C   C9        1.0  0.08680000000000003  0.6818  0.6568  1.0000
  C   C10       1.0  0.006039999999999885  0.6877099999999998  0.68409  1.0000
  C   C11       1.0  0.13923999999999995  0.7350299999999999  0.58305  1.0000
  C   C12       1.0  0.32314999999999994  0.9749699999999998  0.5521  1.0000
  C   C13       1.0  0.3987100000000001  0.0636  0.58287  1.0000
  C   C14       1.0  0.41828  0.15256  0.54779  1.0000
  C   C15       1.0  0.3608  0.14983  0.48447  1.0000
  C   C16       1.0  0.28615999999999997  0.058669999999999986  0.45755  1.0000
  C   C17       1.0  0.4545800000000001  0.06344  0.65462  1.0000
  C   C18       1.0  0.35282  0.027129999999999994  0.88744  1.0000
  C   C19       1.0  0.26657  0.023929999999999993  0.91283  1.0000
  C   C20       1.0  0.17852000000000004  0.96491  0.87177  1.0000
  C   C21       1.0  0.17945000000000008  0.91094  0.80727  1.0000
  C   C22       1.0  0.26817999999999986  0.9176799999999998  0.78568  1.0000
  C   C23       1.0  0.57991  0.05081  0.92316  1.0000
  C   C24       1.0  0.6359800000000002  0.05086  0.9946400000000001  1.0000
  C   C25       1.0  0.69242  0.13812  0.03731  1.0000
  C   C26       1.0  0.7475900000000002  0.13768999999999998  0.10106  1.0000
  C   C27       1.0  0.74473  0.05011  0.12043  1.0000
  C   C28       1.0  0.63631  0.96555  0.01799  1.0000
  C   C29       1.0  0.6109799999999999  0.9015899999999998  0.78372  1.0000
  C   C30       1.0  0.6867299999999998  0.8869699999999998  0.75766  1.0000
  C   C31       1.0  0.7443900000000002  0.94244  0.69456  1.0000
  C   C32       1.0  0.7239400000000002  0.010599999999999997  0.65874  1.0000
  C   C33       1.0  0.6468  0.02137  0.68816  1.0000
  C   C34       1.0  0.7807800000000004  0.06702  0.58762  1.0000
  C   C35       1.0  0.26724  0.07977  0.98468  1.0000
  C   C36       1.0  0.62447  0.74354  0.9820900000000001  1.0000
  C   C37       1.0  0.9508200000000003  0.37382  0.4532  1.0000
  C   C38       1.0  0.02999999999999996  0.46383999999999986  0.47733000000000003  1.0000
  C   C39       1.0  0.08692999999999994  0.4650899999999999  0.54049  1.0000
  C   C40       1.0  0.06248999999999996  0.37608999999999987  0.57811  1.0000
  C   C41       1.0  0.9818300000000002  0.28859  0.55062  1.0000
  C   C42       1.0  0.59808  0.018329999999999992  0.45283  1.0000
  C   C43       1.0  0.5086200000000001  0.9377399999999999  0.4298000000000001  1.0000
  C   C44       1.0  0.5066  0.88406  0.36396  1.0000
  C   C45       1.0  0.59485  0.9129099999999998  0.32336  1.0000
  C   C46       1.0  0.6819799999999999  0.9939399999999998  0.35069  1.0000
  C   C47       1.0  0.5954199999999998  0.8604399999999998  0.24969  1.0000
  C   C48       1.0  0.6521300000000001  0.6769399999999999  0.21875  1.0000
  C   C49       1.0  0.66495  0.60157  0.24939  1.0000
  C   C50       1.0  0.73424  0.58232  0.21418  1.0000
  C   C51       1.0  0.7890799999999999  0.6399199999999998  0.15071  1.0000
  C   C52       1.0  0.7728500000000003  0.71436  0.12388000000000002  1.0000
  C   C53       1.0  0.6087400000000002  0.54575  0.32122  1.0000
  C   C54       1.0  0.6744900000000001  0.6473999999999998  0.55402  1.0000
  C   C55       1.0  0.7578500000000002  0.73386  0.57966  1.0000
  C   C56       1.0  0.78696  0.8219099999999998  0.53874  1.0000
  C   C57       1.0  0.73187  0.82075  0.47426  1.0000
  C   C58       1.0  0.6495399999999999  0.7317499999999998  0.45244  1.0000
  C   C59       1.0  0.47112  0.4201399999999999  0.58973  1.0000
  C   C60       1.0  0.4150300000000001  0.36392  0.66128  1.0000
  C   C61       1.0  0.4456399999999999  0.3077199999999999  0.70387  1.0000
  C   C62       1.0  0.38972000000000007  0.25252  0.7677500000000002  1.0000
  C   C63       1.0  0.3048900000000001  0.25507  0.7873600000000002  1.0000
  C   C64       1.0  0.32935  0.3633199999999999  0.68486  1.0000
  C   C65       1.0  0.2904100000000001  0.38847999999999994  0.45004  1.0000
  C   C66       1.0  0.19955  0.3125399999999999  0.42391  1.0000
  C   C67       1.0  0.19737000000000002  0.255  0.36098  1.0000
  C   C68       1.0  0.28639  0.27577  0.32527  1.0000
  C   C69       1.0  0.37478999999999996  0.3531099999999999  0.35479  1.0000
  C   C70       1.0  0.28572  0.21889999999999996  0.25428  1.0000
  C   C71       1.0  0.8131000000000003  0.73338  0.65159  1.0000
  C   C72       1.0  0.11956999999999997  0.3761599999999999  0.64889  1.0000
  C   C73       1.0  0.42336  0.04972999999999999  0.11953000000000001  1.0000
  C   C74       1.0  0.43388  0.9707499999999998  0.14362  1.0000
  C   C75       1.0  0.37812000000000007  0.9136999999999998  0.20696  1.0000
  C   C76       1.0  0.31367  0.93783  0.24466  1.0000
  C   C77       1.0  0.3071100000000001  0.01826  0.21723  1.0000
  C   C78       1.0  0.42038  0.40199999999999997  0.11959000000000002  1.0000
  C   C79       1.0  0.42930999999999997  0.49120999999999987  0.09679  1.0000
  C   C80       1.0  0.37759  0.4930099999999999  0.03095  1.0000
  C   C81       1.0  0.3181400000000001  0.4047399999999999  0.99023  1.0000
  C   C82       1.0  0.3119500000000001  0.3178  0.01729  1.0000
  C   C83       1.0  0.2649800000000001  0.4039899999999999  0.91668  1.0000
  C   C84       1.0  0.02535999999999999  0.34835  0.88555  1.0000
  C   C85       1.0  0.9368299999999999  0.3351699999999999  0.91606  1.0000
  C   C86       1.0  0.8477299999999999  0.2655799999999999  0.88082  1.0000
  C   C87       1.0  0.8501600000000001  0.21070999999999995  0.81751  1.0000
  C   C88       1.0  0.94117  0.22735  0.7908500000000002  1.0000
  C   C89       1.0  0.9373700000000003  0.3913599999999999  0.98777  1.0000
  C   C90       1.0  0.9732500000000003  0.32553  0.22061  1.0000
  C   C91       1.0  0.9761700000000002  0.24244999999999994  0.24624000000000001  1.0000
  C   C92       1.0  0.034949999999999995  0.21369  0.20522  1.0000
  C   C93       1.0  0.08892999999999998  0.26892  0.14058  1.0000
  C   C94       1.0  0.08250999999999992  0.3509899999999999  0.11874999999999998  1.0000
  C   C95       1.0  0.94858  0.52858  0.25639  1.0000
  C   C96       1.0  0.94872  0.58467  0.32787000000000005  1.0000
  C   C97       1.0  0.8614300000000003  0.55371  0.3704  1.0000
  C   C98       1.0  0.8620800000000003  0.60948  0.43410000000000004  1.0000
  C   C99       1.0  0.94996  0.6945799999999998  0.45367  1.0000
  C   C100      1.0  0.034279999999999894  0.6706399999999998  0.35142  1.0000
  C   C101      1.0  0.09822999999999985  0.7097299999999997  0.11676  1.0000
  C   C102      1.0  0.11326  0.8004299999999998  0.09089  1.0000
  C   C103      1.0  0.05778999999999987  0.8023199999999998  0.02796  1.0000
  C   C104      1.0  0.98934  0.71315  0.99211  1.0000
  C   C105      1.0  0.9781899999999999  0.6248899999999998  0.02136  1.0000
  C   C106      1.0  0.93305  0.7136699999999998  0.9211600000000002  1.0000
  C   C107      1.0  0.9202000000000002  0.18715  0.31822  1.0000
  C   C108      1.0  0.25644  0.88074  0.31554  1.0000
  N   N1        1.0  0.7121700000000002  0.63989  0.8224400000000002  1.0000
  N   N2        1.0  0.6897100000000003  0.96557  0.07975  1.0000
  N   N3        1.0  0.26844999999999986  0.9727699999999998  0.49044000000000004  1.0000
  N   N4        1.0  0.35340999999999984  0.9750099999999998  0.82498  1.0000
  N   N5        1.0  0.5917900000000001  0.9679799999999998  0.7495500000000002  1.0000
  N   N6        1.0  0.95396  0.63734  0.74762  1.0000
  N   N7        1.0  0.92783  0.2878899999999999  0.48897  1.0000
  N   N8        1.0  0.27563000000000004  0.30989999999999995  0.74669  1.0000
  N   N9        1.0  0.70479  0.7319299999999997  0.157  1.0000
  N   N10       1.0  0.6216900000000001  0.6466199999999998  0.4915900000000001  1.0000
  N   N11       1.0  0.37629000000000007  0.4077999999999999  0.41611  1.0000
  N   N12       1.0  0.68351  0.04577  0.4141100000000001  1.0000
  N   N13       1.0  0.36059000000000013  0.07255  0.1555  1.0000
  N   N14       1.0  0.03442999999999999  0.72408  0.41314  1.0000
  N   N15       1.0  0.02731  0.2957  0.82388  1.0000
  N   N16       1.0  0.025369999999999934  0.3785999999999999  0.15807  1.0000
  N   N17       1.0  0.031539999999999915  0.6236299999999998  0.08269000000000003  1.0000
  N   N18       1.0  0.3623400000000001  0.31645  0.08074  1.0000
  O   O1        1.0  0.7108100000000003  0.80966  0.008060000000000001  1.0000
  O   O2        1.0  0.5440999999999998  0.7247599999999997  0.01245  1.0000
  O   O3        1.0  0.18747999999999998  0.058829999999999986  0.01672  1.0000
  O   O4        1.0  0.35495  0.14708  0.00825  1.0000
  O   O5        1.0  0.11655000000000001  0.8002  0.55938  1.0000
  O   O6        1.0  0.19741999999999996  0.71441  0.54979  1.0000
  O   O7        1.0  0.51412  0.14249  0.68684  1.0000
  O   O8        1.0  0.43269  0.9755  0.67856  1.0000
  O   O9        1.0  0.51451  0.96429  0.89685  1.0000
  O   O10       1.0  0.59962  0.13127  0.8926100000000002  1.0000
  O   O11       1.0  0.7573900000000002  0.12973999999999997  0.55988  1.0000
  O   O12       1.0  0.84387  0.05  0.55824  1.0000
  O   O13       1.0  0.09899000000000001  0.28981999999999997  0.67472  1.0000
  O   O14       1.0  0.18153999999999995  0.4566199999999999  0.6792800000000002  1.0000
  O   O15       1.0  0.8720499999999999  0.8130399999999999  0.6838  1.0000
  O   O16       1.0  0.79241  0.6456399999999998  0.6749300000000003  1.0000
  O   O17       1.0  0.68374  0.88338  0.22609  1.0000
  O   O18       1.0  0.5162700000000002  0.80223  0.21658  1.0000
  O   O19       1.0  0.6280400000000003  0.4862199999999999  0.35357  1.0000
  O   O20       1.0  0.5428600000000002  0.5673099999999999  0.34526  1.0000
  O   O21       1.0  0.4498200000000001  0.485  0.56351  1.0000
  O   O22       1.0  0.5322  0.40117999999999987  0.5591000000000002  1.0000
  O   O23       1.0  0.37219  0.24257  0.22654  1.0000
  O   O24       1.0  0.20501  0.15563999999999995  0.22512  1.0000
  O   O25       1.0  0.19073999999999997  0.9010299999999999  0.34137  1.0000
  O   O26       1.0  0.27458  0.8189599999999998  0.34609  1.0000
  O   O27       1.0  0.94058  0.12823999999999997  0.35057  1.0000
  O   O28       1.0  0.85326  0.20752  0.34159  1.0000
  O   O29       1.0  0.1994  0.3157799999999999  0.89274  1.0000
  O   O30       1.0  0.2860400000000001  0.48332  0.8839000000000002  1.0000
  O   O31       1.0  0.8581999999999999  0.3714899999999999  0.02009  1.0000
  O   O32       1.0  0.025249999999999988  0.45779  0.01184  1.0000
  O   O33       1.0  0.03507  0.55011  0.23018000000000005  1.0000
  O   O34       1.0  0.86802  0.4675  0.22585000000000005  1.0000
  O   O35       1.0  0.86994  0.6272599999999998  0.89319  1.0000
  O   O36       1.0  0.9506900000000003  0.79431  0.89214  1.0000
