data_image0
_chemical_formula_structural       Co12H96C168O60
_chemical_formula_sum              "Co12 H96 C168 O60"
_cell_length_a       13.86968
_cell_length_b       20.6159
_cell_length_c       25.27396
_cell_angle_alpha    87.38127999999999
_cell_angle_beta     74.2542
_cell_angle_gamma    80.64491

_space_group_name_H-M_alt    "P 1"
_space_group_IT_number       1

loop_
  _space_group_symop_operation_xyz
  'x, y, z'

loop_
  _atom_site_type_symbol
  _atom_site_label
  _atom_site_symmetry_multiplicity
  _atom_site_fract_x
  _atom_site_fract_y
  _atom_site_fract_z
  _atom_site_occupancy
  Co  Co1       1.0  0.8408699999999997  0.6210100000000001  0.62338  1.0000
  Co  Co2       1.0  0.1919  0.68603  0.21908  1.0000
  Co  Co3       1.0  0.5351399999999997  0.8784300000000002  0.62354  1.0000
  Co  Co4       1.0  0.58575  0.8138500000000002  0.22177  1.0000
  Co  Co5       1.0  0.15872999999999993  0.37859  0.37674  1.0000
  Co  Co6       1.0  0.8072599999999999  0.31392  0.78091  1.0000
  Co  Co7       1.0  0.46437  0.12026  0.37691  1.0000
  Co  Co8       1.0  0.41454999999999986  0.18437  0.77986  1.0000
  Co  Co9       1.0  0.4038599999999998  0.74982  0.19037  1.0000
  Co  Co10      1.0  0.6835299999999999  0.7499100000000001  0.63362  1.0000
  Co  Co11      1.0  0.5942200000000001  0.24877  0.81052  1.0000
  Co  Co12      1.0  0.31658  0.24977  0.36653  1.0000
  H   H1        1.0  0.43918999999999997  0.69468  0.31189999999999996  1.0000
  H   H2        1.0  0.55059  0.67786  0.53243  1.0000
  H   H3        1.0  0.45879999999999993  0.62969  0.47487  1.0000
  H   H4        1.0  0.5480999999999999  0.64047  0.37045  1.0000
  H   H5        1.0  0.49159  0.68726  0.7810299999999998  1.0000
  H   H6        1.0  0.2791499999999999  0.52865  0.335  1.0000
  H   H7        1.0  0.8008199999999998  0.5205400000000001  0.4852199999999999  1.0000
  H   H8        1.0  0.3869399999999999  0.47508  0.39440999999999987  1.0000
  H   H9        1.0  0.88784  0.97656  0.27867  1.0000
  H   H10       1.0  0.26220000000000004  0.9335300000000001  0.20093  1.0000
  H   H11       1.0  0.13583000000000006  0.16364  0.3681899999999999  1.0000
  H   H12       1.0  0.5471200000000003  0.61706  0.9386399999999998  1.0000
  H   H13       1.0  0.17289  0.04848  0.22183  1.0000
  H   H14       1.0  0.29719999999999996  0.50919  0.99245  1.0000
  H   H15       1.0  0.7045500000000001  0.50737  0.75577  1.0000
  H   H16       1.0  0.3988099999999999  0.6448  0.8723199999999999  1.0000
  H   H17       1.0  0.08020999999999995  0.06872  0.33273  1.0000
  H   H18       1.0  0.49600999999999995  0.67351  0.030199999999999998  1.0000
  H   H19       1.0  0.24435999999999994  0.56767  0.08341  1.0000
  H   H20       1.0  0.6112899999999998  0.46498000000000006  0.8462399999999999  1.0000
  H   H21       1.0  0.9905299999999998  0.29656000000000005  0.26683999999999997  1.0000
  H   H22       1.0  0.7114399999999999  0.47400000000000003  0.4247699999999999  1.0000
  H   H23       1.0  0.97876  0.8607  0.2577  1.0000
  H   H24       1.0  0.9400999999999998  0.2001  0.22837999999999994  1.0000
  H   H25       1.0  0.24411  0.80661  0.31344  1.0000
  H   H26       1.0  0.9181999999999999  0.8229100000000001  0.53228  1.0000
  H   H27       1.0  0.0655  0.87242  0.47498  1.0000
  H   H28       1.0  0.07748000000000001  0.86184  0.37078  1.0000
  H   H29       1.0  0.72629  0.81104  0.78054  1.0000
  H   H30       1.0  0.38345999999999997  0.9713800000000001  0.33689  1.0000
  H   H31       1.0  0.7119200000000001  0.9794300000000001  0.48595999999999995  1.0000
  H   H32       1.0  0.21699  0.02603  0.39516  1.0000
  H   H33       1.0  0.83369  0.52314  0.27924  1.0000
  H   H34       1.0  0.53655  0.56587  0.20113999999999999  1.0000
  H   H35       1.0  0.49424000000000007  0.3368  0.36911999999999995  1.0000
  H   H36       1.0  0.5156600000000002  0.88117  0.9391399999999999  1.0000
  H   H37       1.0  0.60521  0.45104000000000005  0.22216  1.0000
  H   H38       1.0  0.7113999999999997  0.98903  0.99375  1.0000
  H   H39       1.0  0.5396800000000002  0.99217  0.75658  1.0000
  H   H40       1.0  0.7304800000000001  0.8518900000000003  0.8719399999999998  1.0000
  H   H41       1.0  0.5863599999999998  0.4312  0.33386999999999994  1.0000
  H   H42       1.0  0.47254999999999997  0.8263  0.03144  1.0000
  H   H43       1.0  0.6703599999999997  0.9321200000000002  0.08547  1.0000
  H   H44       1.0  0.5449699999999998  0.03297  0.84729  1.0000
  H   H45       1.0  0.73838  0.20328000000000002  0.26808  1.0000
  H   H46       1.0  0.85973  0.02736  0.4256  1.0000
  H   H47       1.0  0.7634  0.6389300000000001  0.25793  1.0000
  H   H48       1.0  0.8284399999999997  0.29903  0.22978999999999997  1.0000
  H   H49       1.0  0.5587699999999998  0.3065300000000001  0.68824  1.0000
  H   H50       1.0  0.45101  0.32298  0.4677299999999999  1.0000
  H   H51       1.0  0.54196  0.37205000000000005  0.52515  1.0000
  H   H52       1.0  0.45092  0.36093  0.62942  1.0000
  H   H53       1.0  0.5059200000000001  0.31173  0.21952  1.0000
  H   H54       1.0  0.7197599999999998  0.47205  0.66561  1.0000
  H   H55       1.0  0.19956999999999997  0.47951000000000005  0.51399  1.0000
  H   H56       1.0  0.6136999999999999  0.52562  0.60548  1.0000
  H   H57       1.0  0.11302999999999999  0.023889999999999998  0.7209  1.0000
  H   H58       1.0  0.7388099999999999  0.06617  0.79939  1.0000
  H   H59       1.0  0.86358  0.83641  0.63193  1.0000
  H   H60       1.0  0.4526699999999998  0.38161  0.06156  1.0000
  H   H61       1.0  0.8282199999999998  0.95143  0.7778999999999999  1.0000
  H   H62       1.0  0.70272  0.48956  0.00771  1.0000
  H   H63       1.0  0.2948699999999999  0.4923  0.24406999999999998  1.0000
  H   H64       1.0  0.60005  0.35347  0.12826  1.0000
  H   H65       1.0  0.9200899999999999  0.93128  0.66685  1.0000
  H   H66       1.0  0.5031699999999998  0.32580000000000003  0.96975  1.0000
  H   H67       1.0  0.7546000000000002  0.4317  0.9165199999999998  1.0000
  H   H68       1.0  0.38933  0.53417  0.15352  1.0000
  H   H69       1.0  0.009200000000000035  0.70365  0.7332  1.0000
  H   H70       1.0  0.28777  0.52706  0.57436  1.0000
  H   H71       1.0  0.021659999999999957  0.13957  0.74242  1.0000
  H   H72       1.0  0.06045999999999997  0.8  0.77111  1.0000
  H   H73       1.0  0.75399  0.19361000000000003  0.68739  1.0000
  H   H74       1.0  0.08426  0.17754  0.46756  1.0000
  H   H75       1.0  0.9354099999999999  0.12939  0.52497  1.0000
  H   H76       1.0  0.9209799999999997  0.13952  0.62929  1.0000
  H   H77       1.0  0.27174  0.18759  0.21865999999999994  1.0000
  H   H78       1.0  0.6175  0.027120000000000002  0.66466  1.0000
  H   H79       1.0  0.28756  0.020090000000000004  0.51506  1.0000
  H   H80       1.0  0.7843699999999999  0.97381  0.60553  1.0000
  H   H81       1.0  0.16730999999999996  0.47457000000000005  0.7197199999999999  1.0000
  H   H82       1.0  0.4635799999999999  0.43239000000000005  0.79826  1.0000
  H   H83       1.0  0.50419  0.66346  0.63133  1.0000
  H   H84       1.0  0.48375000000000007  0.11544  0.06228999999999999  1.0000
  H   H85       1.0  0.39564999999999995  0.54704  0.7767199999999999  1.0000
  H   H86       1.0  0.2871799999999999  0.00877  0.007279999999999998  1.0000
  H   H87       1.0  0.45934  0.007910000000000002  0.2449  1.0000
  H   H88       1.0  0.2689699999999999  0.14472000000000002  0.12758  1.0000
  H   H89       1.0  0.4133299999999999  0.56819  0.6655299999999997  1.0000
  H   H90       1.0  0.5263299999999997  0.17132  0.97045  1.0000
  H   H91       1.0  0.32744999999999996  0.06674  0.9160899999999997  1.0000
  H   H92       1.0  0.4558799999999999  0.9651700000000001  0.15448  1.0000
  H   H93       1.0  0.2577400000000001  0.795  0.73282  1.0000
  H   H94       1.0  0.13801999999999998  0.9734900000000001  0.57552  1.0000
  H   H95       1.0  0.23719  0.3589  0.74138  1.0000
  H   H96       1.0  0.16916999999999996  0.6982400000000001  0.77026  1.0000
  C   C1        1.0  0.35272  0.6152000000000001  0.31967  1.0000
  C   C2        1.0  0.12583999999999995  0.8904100000000001  0.22759  1.0000
  C   C3        1.0  0.36670999999999976  0.6244800000000001  0.06205999999999999  1.0000
  C   C4        1.0  0.6815  0.60227  0.51208  1.0000
  C   C5        1.0  0.6621499999999999  0.6269  0.7101999999999998  1.0000
  C   C6        1.0  0.42808999999999997  0.64675  0.33025  1.0000
  C   C7        1.0  0.6038700000000001  0.60021  0.7627399999999998  1.0000
  C   C8        1.0  0.4727500000000001  0.5547800000000002  0.38562999999999986  1.0000
  C   C9        1.0  0.5852699999999997  0.6333200000000001  0.50871  1.0000
  C   C10       1.0  0.5343500000000001  0.60693  0.47647  1.0000
  C   C11       1.0  0.42343000000000003  0.56083  0.96072  1.0000
  C   C12       1.0  0.48844999999999994  0.6168  0.36311  1.0000
  C   C13       1.0  0.5173799999999998  0.63889  0.7957699999999999  1.0000
  C   C14       1.0  0.3373300000000001  0.55323  0.3431  1.0000
  C   C15       1.0  0.5006700000000001  0.55268  0.86389  1.0000
  C   C16       1.0  0.33639  0.6588300000000001  0.11577  1.0000
  C   C17       1.0  0.7304099999999998  0.6287  0.55017  1.0000
  C   C18       1.0  0.06600999999999999  0.23549  0.31969  1.0000
  C   C19       1.0  0.7267699999999998  0.5444700000000001  0.48201  1.0000
  C   C20       1.0  0.39736999999999983  0.52295  0.37589999999999996  1.0000
  C   C21       1.0  0.9695799999999999  0.96599  0.26168  1.0000
  C   C22       1.0  0.5813799999999998  0.54981  0.44621  1.0000
  C   C23       1.0  0.18042999999999995  0.9433700000000003  0.21797  1.0000
  C   C24       1.0  0.09248999999999999  0.17120000000000002  0.33786  1.0000
  C   C25       1.0  0.4810100000000001  0.6066600000000001  0.9704399999999997  1.0000
  C   C26       1.0  0.13083  0.00737  0.22968999999999995  1.0000
  C   C27       1.0  0.007340000000000028  0.13004  0.2785599999999999  1.0000
  C   C28       1.0  0.33908999999999995  0.54565  0.00133  1.0000
  C   C29       1.0  0.6372  0.53723  0.78094  1.0000
  C   C30       1.0  0.4657200000000001  0.61542  0.8463399999999999  1.0000
  C   C31       1.0  0.06255999999999999  0.11832  0.31787  1.0000
  C   C32       1.0  0.025370000000000007  0.01804  0.25109  1.0000
  C   C33       1.0  0.4525  0.6380000000000001  0.02126  1.0000
  C   C34       1.0  0.31058  0.5779000000000001  0.05159999999999999  1.0000
  C   C35       1.0  0.58572  0.51325  0.83134  1.0000
  C   C36       1.0  0.010250000000000004  0.24649000000000001  0.2804  1.0000
  C   C37       1.0  0.67739  0.51838  0.44872999999999996  1.0000
  C   C38       1.0  0.020220000000000047  0.90211  0.24982999999999994  1.0000
  C   C39       1.0  0.98204  0.19364000000000003  0.25933  1.0000
  C   C40       1.0  0.18147999999999995  0.8227700000000001  0.21511  1.0000
  C   C41       1.0  0.29254  0.64598  0.28307  1.0000
  C   C42       1.0  0.09554000000000001  0.29062  0.34256  1.0000
  C   C43       1.0  0.32433000000000006  0.88536  0.32124  1.0000
  C   C44       1.0  0.64616  0.6092100000000001  0.22798  1.0000
  C   C45       1.0  0.57002  0.8751500000000001  0.06358  1.0000
  C   C46       1.0  0.8060100000000001  0.8979300000000001  0.51255  1.0000
  C   C47       1.0  0.6261  0.87289  0.71032  1.0000
  C   C48       1.0  0.23769000000000004  0.85459  0.33144999999999997  1.0000
  C   C49       1.0  0.63239  0.89863  0.7630899999999998  1.0000
  C   C50       1.0  0.13840000000000002  0.9472300000000002  0.38602999999999993  1.0000
  C   C51       1.0  0.9060899999999997  0.8677300000000001  0.50894  1.0000
  C   C52       1.0  0.98818  0.89495  0.47677  1.0000
  C   C53       1.0  0.6174700000000001  0.93715  0.96148  1.0000
  C   C54       1.0  0.14468999999999999  0.8852000000000001  0.36366  1.0000
  C   C55       1.0  0.6863  0.85924  0.79576  1.0000
  C   C56       1.0  0.31678999999999985  0.9473300000000002  0.34452  1.0000
  C   C57       1.0  0.6371799999999999  0.9445700000000002  0.8643099999999998  1.0000
  C   C58       1.0  0.5458699999999997  0.84096  0.11736999999999999  1.0000
  C   C59       1.0  0.7206499999999998  0.8695800000000001  0.55028  1.0000
  C   C60       1.0  0.6112100000000001  0.26455000000000006  0.32088  1.0000
  C   C61       1.0  0.78939  0.9559900000000002  0.48277  1.0000
  C   C62       1.0  0.22413999999999992  0.9783000000000001  0.37669  1.0000
  C   C63       1.0  0.76878  0.53352  0.26219  1.0000
  C   C64       1.0  0.97007  0.95215  0.44658999999999993  1.0000
  C   C65       1.0  0.60133  0.55617  0.21829  1.0000
  C   C66       1.0  0.5677099999999999  0.32898000000000005  0.33889999999999987  1.0000
  C   C67       1.0  0.5493899999999998  0.8918500000000003  0.97123  1.0000
  C   C68       1.0  0.63937  0.49217000000000005  0.23009  1.0000
  C   C69       1.0  0.7127399999999998  0.36964  0.27976  1.0000
  C   C70       1.0  0.66017  0.9528900000000001  0.0025499999999999997  1.0000
  C   C71       1.0  0.5818599999999997  0.9616000000000002  0.78157  1.0000
  C   C72       1.0  0.6888099999999999  0.8818600000000001  0.84641  1.0000
  C   C73       1.0  0.6184899999999998  0.38161  0.31901  1.0000
  C   C74       1.0  0.72349  0.4814300000000001  0.25165  1.0000
  C   C75       1.0  0.5256699999999999  0.8613600000000002  0.022429999999999995  1.0000
  C   C76       1.0  0.6369199999999998  0.92147  0.05324  1.0000
  C   C77       1.0  0.5843099999999997  0.9846800000000002  0.83206  1.0000
  C   C78       1.0  0.70588  0.25334  0.28168  1.0000
  C   C79       1.0  0.8710499999999999  0.98291  0.44948  1.0000
  C   C80       1.0  0.7298200000000001  0.59743  0.25019  1.0000
  C   C81       1.0  0.75594  0.30588  0.26072  1.0000
  C   C82       1.0  0.60208  0.67699  0.21606  1.0000
  C   C83       1.0  0.42111999999999994  0.85403  0.28519  1.0000
  C   C84       1.0  0.55907  0.20936000000000002  0.34406  1.0000
  C   C85       1.0  0.6452099999999998  0.38596  0.68116  1.0000
  C   C86       1.0  0.8747800000000001  0.10961  0.7724899999999998  1.0000
  C   C87       1.0  0.63229  0.37492000000000003  0.93797  1.0000
  C   C88       1.0  0.31981  0.39801  0.48748  1.0000
  C   C89       1.0  0.33532  0.37301  0.28981  1.0000
  C   C90       1.0  0.5701300000000001  0.35453  0.6700899999999997  1.0000
  C   C91       1.0  0.39437  0.39909000000000006  0.23727  1.0000
  C   C92       1.0  0.5263599999999999  0.4467  0.61449  1.0000
  C   C93       1.0  0.4161299999999999  0.3676600000000001  0.49117  1.0000
  C   C94       1.0  0.46647000000000005  0.39467  0.52337  1.0000
  C   C95       1.0  0.57616  0.43815000000000004  0.03944  1.0000
  C   C96       1.0  0.5102900000000001  0.38467  0.6369799999999999  1.0000
  C   C97       1.0  0.48078999999999983  0.36011000000000004  0.20449999999999993  1.0000
  C   C98       1.0  0.66133  0.4477300000000001  0.65751  1.0000
  C   C99       1.0  0.49901  0.44619000000000003  0.13622  1.0000
  C   C100      1.0  0.66257  0.34069  0.88423  1.0000
  C   C101      1.0  0.27164999999999995  0.36988  0.44977  1.0000
  C   C102      1.0  0.93348  0.76449  0.68026  1.0000
  C   C103      1.0  0.2737899999999998  0.45595  0.51726  1.0000
  C   C104      1.0  0.60211  0.47807  0.62432  1.0000
  C   C105      1.0  0.03127999999999998  0.03418  0.73811  1.0000
  C   C106      1.0  0.41873000000000005  0.45183  0.55346  1.0000
  C   C107      1.0  0.8205100000000001  0.0565  0.7821  1.0000
  C   C108      1.0  0.9073599999999997  0.82884  0.66206  1.0000
  C   C109      1.0  0.5185299999999999  0.39232  0.029719999999999993  1.0000
  C   C110      1.0  0.8702499999999997  0.9925700000000001  0.7701899999999999  1.0000
  C   C111      1.0  0.9933700000000001  0.87005  0.72103  1.0000
  C   C112      1.0  0.6604600000000002  0.45336  0.9988099999999999  1.0000
  C   C113      1.0  0.36198999999999987  0.46219  0.21897999999999998  1.0000
  C   C114      1.0  0.53323  0.3833  0.15394  1.0000
  C   C115      1.0  0.93798  0.88172  0.68177  1.0000
  C   C116      1.0  0.97571  0.98198  0.7487699999999999  1.0000
  C   C117      1.0  0.5467199999999999  0.36122  0.9787999999999999  1.0000
  C   C118      1.0  0.6885799999999997  0.42138000000000003  0.94843  1.0000
  C   C119      1.0  0.41412  0.48586000000000007  0.16862  1.0000
  C   C120      1.0  0.9896600000000001  0.7536  0.71939  1.0000
  C   C121      1.0  0.3226  0.48266000000000003  0.55056  1.0000
  C   C122      1.0  0.9804099999999998  0.09804  0.7501399999999998  1.0000
  C   C123      1.0  0.018509999999999905  0.8064000000000001  0.74017  1.0000
  C   C124      1.0  0.8185500000000001  0.17719000000000001  0.7848399999999998  1.0000
  C   C125      1.0  0.70491  0.3552600000000001  0.7180599999999999  1.0000
  C   C126      1.0  0.9042800000000001  0.70908  0.65735  1.0000
  C   C127      1.0  0.67543  0.11389  0.67987  1.0000
  C   C128      1.0  0.3538599999999998  0.38889  0.7717799999999999  1.0000
  C   C129      1.0  0.42879999999999996  0.12297  0.93795  1.0000
  C   C130      1.0  0.19482000000000002  0.10186  0.4880299999999999  1.0000
  C   C131      1.0  0.3717099999999999  0.12705000000000002  0.28985  1.0000
  C   C132      1.0  0.7611599999999996  0.14561  0.6692499999999999  1.0000
  C   C133      1.0  0.36565  0.1005  0.23732  1.0000
  C   C134      1.0  0.8610599999999999  0.05369  0.61418  1.0000
  C   C135      1.0  0.09529999999999998  0.13287  0.49127  1.0000
  C   C136      1.0  0.01240999999999998  0.10645000000000002  0.52347  1.0000
  C   C137      1.0  0.38186999999999993  0.05988  0.03968  1.0000
  C   C138      1.0  0.8541600000000001  0.11576  0.63655  1.0000
  C   C139      1.0  0.31193  0.13915  0.20415  1.0000
  C   C140      1.0  0.6835599999999998  0.05183000000000001  0.65662  1.0000
  C   C141      1.0  0.3623699999999999  0.05266  0.13656  1.0000
  C   C142      1.0  0.4534199999999998  0.15724  0.88415  1.0000
  C   C143      1.0  0.28129999999999994  0.12853  0.45002999999999993  1.0000
  C   C144      1.0  0.38602000000000003  0.73474  0.6799899999999999  1.0000
  C   C145      1.0  0.21036  0.04397  0.51814  1.0000
  C   C146      1.0  0.7762  0.02171  0.62393  1.0000
  C   C147      1.0  0.23203  0.46421000000000007  0.73689  1.0000
  C   C148      1.0  0.02955000000000002  0.04923  0.5537899999999999  1.0000
  C   C149      1.0  0.3987499999999999  0.4420700000000001  0.7811299999999999  1.0000
  C   C150      1.0  0.43061000000000016  0.67064  0.66145  1.0000
  C   C151      1.0  0.4498399999999999  0.10522000000000001  0.030129999999999997  1.0000
  C   C152      1.0  0.3610500000000001  0.50604  0.7689399999999997  1.0000
  C   C153      1.0  0.28623000000000004  0.62868  0.7197699999999999  1.0000
  C   C154      1.0  0.33851000000000003  0.04486  0.9986799999999999  1.0000
  C   C155      1.0  0.41699999999999987  0.03752  0.21948  1.0000
  C   C156      1.0  0.3102  0.11549000000000001  0.15370999999999999  1.0000
  C   C157      1.0  0.38069000000000003  0.61756  0.68073  1.0000
  C   C158      1.0  0.27706000000000003  0.51651  0.74723  1.0000
  C   C159      1.0  0.4733000000000001  0.13623  0.9791799999999998  1.0000
  C   C160      1.0  0.36149  0.07686  0.9482  1.0000
  C   C161      1.0  0.41545999999999994  0.013420000000000001  0.16918999999999998  1.0000
  C   C162      1.0  0.2910700000000001  0.74512  0.7189699999999998  1.0000
  C   C163      1.0  0.128  0.017859999999999997  0.55138  1.0000
  C   C164      1.0  0.2706799999999999  0.40040000000000003  0.74919  1.0000
  C   C165      1.0  0.24183000000000002  0.69203  0.73942  1.0000
  C   C166      1.0  0.39749999999999996  0.32142000000000004  0.78467  1.0000
  C   C167      1.0  0.57892  0.14450000000000002  0.71632  1.0000
  C   C168      1.0  0.43806999999999996  0.7902700000000001  0.65761  1.0000
  O   O1        1.0  0.31412999999999974  0.69775  0.25464  1.0000
  O   O2        1.0  0.6329100000000001  0.68514  0.6961899999999999  1.0000
  O   O3        1.0  0.21449999999999994  0.62259  0.27793999999999996  1.0000
  O   O4        1.0  0.68743  0.68232  0.5745799999999999  1.0000
  O   O5        1.0  0.39474  0.69388  0.12678999999999999  1.0000
  O   O6        1.0  0.12772999999999998  0.7752400000000003  0.22750999999999996  1.0000
  O   O7        1.0  0.53362  0.51883  0.41533  1.0000
  O   O8        1.0  0.24866  0.6495500000000001  0.14823  1.0000
  O   O9        1.0  0.74124  0.58801  0.68264  1.0000
  O   O10       1.0  0.8120600000000001  0.59367  0.55817  1.0000
  O   O11       1.0  0.44831999999999994  0.52558  0.9123299999999999  1.0000
  O   O12       1.0  0.9694799999999998  0.08096  0.25911  1.0000
  O   O13       1.0  0.27601999999999993  0.8153500000000001  0.19329  1.0000
  O   O14       1.0  0.15726  0.27948  0.37400999999999995  1.0000
  O   O15       1.0  0.06241999999999997  0.3508800000000001  0.33441  1.0000
  O   O16       1.0  0.42781  0.80235  0.25672  1.0000
  O   O17       1.0  0.6674000000000001  0.8145900000000003  0.6960099999999999  1.0000
  O   O18       1.0  0.50438  0.87713  0.28056  1.0000
  O   O19       1.0  0.7422999999999998  0.8158600000000001  0.5741  1.0000
  O   O20       1.0  0.47706999999999994  0.8055500000000001  0.1274  1.0000
  O   O21       1.0  0.6438299999999999  0.72457  0.2281  1.0000
  O   O22       1.0  0.04783000000000003  0.98356  0.4152699999999999  1.0000
  O   O23       1.0  0.59962  0.8505100000000001  0.15069999999999997  1.0000
  O   O24       1.0  0.57629  0.9126300000000002  0.68222  1.0000
  O   O25       1.0  0.62996  0.9029  0.5578999999999998  1.0000
  O   O26       1.0  0.64275  0.97134  0.91257  1.0000
  O   O27       1.0  0.77091  0.41828  0.25971  1.0000
  O   O28       1.0  0.52783  0.68449  0.19531  1.0000
  O   O29       1.0  0.46649  0.22003  0.37568  1.0000
  O   O30       1.0  0.60062  0.1491  0.33594  1.0000
  O   O31       1.0  0.68517  0.30236  0.74529  1.0000
  O   O32       1.0  0.36251  0.3146900000000001  0.30423999999999995  1.0000
  O   O33       1.0  0.78106  0.37991  0.72442  1.0000
  O   O34       1.0  0.31561000000000006  0.31594  0.42622999999999994  1.0000
  O   O35       1.0  0.6047  0.30527  0.8732499999999999  1.0000
  O   O36       1.0  0.8720700000000001  0.22486  0.7724899999999998  1.0000
  O   O37       1.0  0.4658900000000002  0.48309  0.5846099999999999  1.0000
  O   O38       1.0  0.7499299999999997  0.35037  0.85175  1.0000
  O   O39       1.0  0.25715999999999994  0.41251000000000004  0.31752  1.0000
  O   O40       1.0  0.18916  0.40381  0.44185  1.0000
  O   O41       1.0  0.5512799999999998  0.47353  0.08782999999999998  1.0000
  O   O42       1.0  0.031479999999999966  0.9189500000000002  0.7406899999999998  1.0000
  O   O43       1.0  0.7239500000000001  0.18444  0.8064099999999997  1.0000
  O   O44       1.0  0.8429900000000001  0.71982  0.62556  1.0000
  O   O45       1.0  0.93762  0.64894  0.66573  1.0000
  O   O46       1.0  0.5717400000000001  0.19728000000000004  0.7435899999999998  1.0000
  O   O47       1.0  0.32825999999999994  0.18512  0.30384  1.0000
  O   O48       1.0  0.49645999999999996  0.11992000000000001  0.7222699999999999  1.0000
  O   O49       1.0  0.26226  0.18211  0.42549999999999993  1.0000
  O   O50       1.0  0.5238899999999997  0.19137  0.87329  1.0000
  O   O51       1.0  0.35709  0.2733  0.7723  1.0000
  O   O52       1.0  0.9515899999999996  0.01786  0.5847  1.0000
  O   O53       1.0  0.3981999999999999  0.14898000000000003  0.85131  1.0000
  O   O54       1.0  0.4234800000000001  0.08798000000000002  0.31744999999999995  1.0000
  O   O55       1.0  0.37096000000000007  0.09367  0.4422  1.0000
  O   O56       1.0  0.3574800000000001  0.025230000000000002  0.08840999999999997  1.0000
  O   O57       1.0  0.22909999999999991  0.57919  0.73828  1.0000
  O   O58       1.0  0.4701799999999999  0.31485  0.8067299999999998  1.0000
  O   O59       1.0  0.53117  0.7794500000000001  0.62652  1.0000
  O   O60       1.0  0.3967199999999999  0.8505100000000001  0.66576  1.0000
