data_image0
_chemical_formula_structural       Cu24H144C264O120
_chemical_formula_sum              "Cu24 H144 C264 O120"
_cell_length_a       29.69127
_cell_length_b       29.69096
_cell_length_c       29.69095
_cell_angle_alpha    59.9967
_cell_angle_beta     59.99627
_cell_angle_gamma    59.99681

_space_group_name_H-M_alt    "P 1"
_space_group_IT_number       1

loop_
  _space_group_symop_operation_xyz
  'x, y, z'

loop_
  _atom_site_type_symbol
  _atom_site_label
  _atom_site_symmetry_multiplicity
  _atom_site_fract_x
  _atom_site_fract_y
  _atom_site_fract_z
  _atom_site_occupancy
  Cu  Cu1       1.0  0.003440000000000005  0.35649  0.64351  1.0000
  Cu  Cu2       1.0  0.0023000000000000255  0.27418000000000003  0.72582  1.0000
  Cu  Cu3       1.0  0.35648  0.003440000000000075  0.9965199999999999  1.0000
  Cu  Cu4       1.0  0.2741200000000002  0.0023099999999999735  0.99771  1.0000
  Cu  Cu5       1.0  0.9965599999999999  0.64351  0.35649  1.0000
  Cu  Cu6       1.0  0.99771  0.72581  0.27418  1.0000
  Cu  Cu7       1.0  0.6435199999999998  0.9965600000000002  0.00348  1.0000
  Cu  Cu8       1.0  0.7258800000000002  0.9976900000000002  0.00229  1.0000
  Cu  Cu9       1.0  0.99656  0.003490000000000018  0.64352  1.0000
  Cu  Cu10      1.0  0.9977000000000004  0.002290000000000003  0.72589  1.0000
  Cu  Cu11      1.0  0.6435100000000001  0.35649  0.9965499999999999  1.0000
  Cu  Cu12      1.0  0.7258200000000001  0.27417  0.99771  1.0000
  Cu  Cu13      1.0  0.0034399999999998555  0.9965100000000002  0.35649  1.0000
  Cu  Cu14      1.0  0.0022999999999999358  0.9977100000000001  0.27412  1.0000
  Cu  Cu15      1.0  0.35649  0.64351  0.00345  1.0000
  Cu  Cu16      1.0  0.27418  0.72582  0.00229  1.0000
  Cu  Cu17      1.0  0.35648999999999986  0.9965600000000002  0.64352  1.0000
  Cu  Cu18      1.0  0.27416999999999986  0.9977  0.72583  1.0000
  Cu  Cu19      1.0  0.0034799999999999285  0.6435200000000001  0.99657  1.0000
  Cu  Cu20      1.0  0.0022899999999998876  0.7258900000000003  0.9977  1.0000
  Cu  Cu21      1.0  0.64351  0.0034399999999999886  0.35649  1.0000
  Cu  Cu22      1.0  0.7258300000000002  0.0022999999999999883  0.27417  1.0000
  Cu  Cu23      1.0  0.9965200000000001  0.35648  0.00343  1.0000
  Cu  Cu24      1.0  0.9977100000000004  0.27411  0.00231  1.0000
  H   H1        1.0  0.9880299999999999  0.1654000000000001  0.67999  1.0000
  H   H2        1.0  0.9612600000000001  0.17753000000000002  0.54411  1.0000
  H   H3        1.0  0.9665799999999999  0.31948000000000015  0.54597  1.0000
  H   H4        1.0  0.9125200000000003  0.25461  0.48  1.0000
  H   H5        1.0  0.98591  0.23030000000000006  0.4525  1.0000
  H   H6        1.0  0.94812  0.25807000000000013  0.37303  1.0000
  H   H7        1.0  0.16544  0.98799  0.1666  1.0000
  H   H8        1.0  0.17748999999999973  0.9612900000000004  0.31715  1.0000
  H   H9        1.0  0.31948  0.96658  0.16794  1.0000
  H   H10       1.0  0.25465000000000015  0.91249  0.35287999999999997  1.0000
  H   H11       1.0  0.23035999999999993  0.9859200000000002  0.33127  1.0000
  H   H12       1.0  0.2580799999999999  0.9481300000000001  0.42095  1.0000
  H   H13       1.0  0.16661999999999974  0.6799600000000005  0.16541  1.0000
  H   H14       1.0  0.31716  0.5440700000000002  0.1775  1.0000
  H   H15       1.0  0.16801999999999984  0.5459900000000002  0.31946  1.0000
  H   H16       1.0  0.3528999999999999  0.48000000000000015  0.2546  1.0000
  H   H17       1.0  0.33131999999999995  0.4524800000000001  0.2303  1.0000
  H   H18       1.0  0.42088999999999993  0.37296  0.25808  1.0000
  H   H19       1.0  0.6800000000000003  0.16662000000000002  0.98801  1.0000
  H   H20       1.0  0.5440100000000001  0.31718  0.9613099999999999  1.0000
  H   H21       1.0  0.54608  0.16796999999999998  0.96656  1.0000
  H   H22       1.0  0.48006000000000015  0.35286000000000006  0.9125099999999999  1.0000
  H   H23       1.0  0.45257000000000014  0.3313  0.9859  1.0000
  H   H24       1.0  0.3729100000000002  0.42094  0.94809  1.0000
  H   H25       1.0  0.16660999999999987  0.9880100000000003  0.68001  1.0000
  H   H26       1.0  0.31718  0.9613100000000001  0.54402  1.0000
  H   H27       1.0  0.16795999999999986  0.9665600000000002  0.54609  1.0000
  H   H28       1.0  0.35287000000000013  0.9125100000000002  0.48006  1.0000
  H   H29       1.0  0.33129  0.9859  0.45258  1.0000
  H   H30       1.0  0.42096000000000044  0.94808  0.3729  1.0000
  H   H31       1.0  0.67997  0.16543000000000005  0.16659  1.0000
  H   H32       1.0  0.5441  0.17748  0.31715  1.0000
  H   H33       1.0  0.54603  0.31946  0.16798  1.0000
  H   H34       1.0  0.48001  0.2546000000000001  0.3529  1.0000
  H   H35       1.0  0.45248000000000005  0.2303  0.33131  1.0000
  H   H36       1.0  0.37292  0.25809  0.42093  1.0000
  H   H37       1.0  0.9880000000000001  0.16659  0.16544  1.0000
  H   H38       1.0  0.9612999999999999  0.3171400000000001  0.17747  1.0000
  H   H39       1.0  0.9665900000000003  0.16791000000000006  0.31947  1.0000
  H   H40       1.0  0.91249  0.35287999999999997  0.25465  1.0000
  H   H41       1.0  0.9859299999999999  0.33126000000000005  0.23036  1.0000
  H   H42       1.0  0.9481299999999999  0.42097  0.25808  1.0000
  H   H43       1.0  0.16542  0.6799900000000001  0.9880399999999999  1.0000
  H   H44       1.0  0.17752  0.5441200000000002  0.9612599999999999  1.0000
  H   H45       1.0  0.31948  0.54599  0.96659  1.0000
  H   H46       1.0  0.25460999999999995  0.48000000000000015  0.91252  1.0000
  H   H47       1.0  0.23029999999999987  0.4525000000000002  0.98592  1.0000
  H   H48       1.0  0.25807  0.373  0.9481199999999999  1.0000
  H   H49       1.0  0.16544000000000011  0.16659000000000004  0.6799599999999999  1.0000
  H   H50       1.0  0.17752000000000004  0.31715  0.54407  1.0000
  H   H51       1.0  0.31947000000000003  0.16801000000000005  0.546  1.0000
  H   H52       1.0  0.25459  0.3529  0.48002  1.0000
  H   H53       1.0  0.23029999999999998  0.3313  0.45249  1.0000
  H   H54       1.0  0.25808000000000003  0.42091  0.37294  1.0000
  H   H55       1.0  0.9880099999999999  0.68  0.1666  1.0000
  H   H56       1.0  0.9612999999999999  0.544  0.31718  1.0000
  H   H57       1.0  0.9665499999999998  0.5460700000000002  0.16798  1.0000
  H   H58       1.0  0.9125100000000002  0.48007  0.35286  1.0000
  H   H59       1.0  0.9859  0.45258  0.33129  1.0000
  H   H60       1.0  0.9480900000000001  0.37291  0.42095  1.0000
  H   H61       1.0  0.6800000000000004  0.9880300000000001  0.16542  1.0000
  H   H62       1.0  0.54412  0.9612500000000002  0.17753  1.0000
  H   H63       1.0  0.5459799999999999  0.96658  0.31948  1.0000
  H   H64       1.0  0.48002  0.9125200000000001  0.2546  1.0000
  H   H65       1.0  0.45251  0.98591  0.2303  1.0000
  H   H66       1.0  0.3730099999999998  0.9481200000000002  0.25807  1.0000
  H   H67       1.0  0.16659  0.16545000000000004  0.988  1.0000
  H   H68       1.0  0.31715  0.17749  0.96129  1.0000
  H   H69       1.0  0.16793000000000005  0.31947  0.96658  1.0000
  H   H70       1.0  0.35288  0.25464  0.9125  1.0000
  H   H71       1.0  0.33126  0.23036  0.98592  1.0000
  H   H72       1.0  0.4209500000000001  0.25808000000000003  0.94813  1.0000
  H   H73       1.0  0.011969999999999965  0.8346000000000001  0.32001  1.0000
  H   H74       1.0  0.03873999999999987  0.8224700000000003  0.45589  1.0000
  H   H75       1.0  0.033420000000000005  0.68052  0.45403  1.0000
  H   H76       1.0  0.08747999999999986  0.7453900000000002  0.52  1.0000
  H   H77       1.0  0.014090000000000052  0.7697  0.54751  1.0000
  H   H78       1.0  0.05187999999999996  0.74193  0.62697  1.0000
  H   H79       1.0  0.83456  0.01200000000000001  0.8334  1.0000
  H   H80       1.0  0.82251  0.03871  0.68286  1.0000
  H   H81       1.0  0.6805300000000004  0.033420000000000026  0.83207  1.0000
  H   H82       1.0  0.7453499999999998  0.08751000000000006  0.64712  1.0000
  H   H83       1.0  0.7696400000000003  0.014079999999999997  0.66874  1.0000
  H   H84       1.0  0.74192  0.05187000000000001  0.57905  1.0000
  H   H85       1.0  0.8333799999999999  0.32004000000000016  0.8345899999999999  1.0000
  H   H86       1.0  0.68284  0.45593000000000006  0.82251  1.0000
  H   H87       1.0  0.83198  0.4540000000000001  0.68054  1.0000
  H   H88       1.0  0.6471  0.52  0.7454099999999999  1.0000
  H   H89       1.0  0.6686899999999998  0.5475200000000002  0.7697  1.0000
  H   H90       1.0  0.57911  0.62704  0.74192  1.0000
  H   H91       1.0  0.32000000000000006  0.83338  0.01199  1.0000
  H   H92       1.0  0.4559900000000001  0.68282  0.03869  1.0000
  H   H93       1.0  0.45392  0.83203  0.03345  1.0000
  H   H94       1.0  0.51995  0.64714  0.08749  1.0000
  H   H95       1.0  0.54743  0.6687  0.014099999999999998  1.0000
  H   H96       1.0  0.62709  0.5790600000000001  0.05191  1.0000
  H   H97       1.0  0.8333900000000002  0.011990000000000008  0.32  1.0000
  H   H98       1.0  0.68282  0.03869000000000003  0.45597999999999994  1.0000
  H   H99       1.0  0.83204  0.03344  0.45391  1.0000
  H   H100      1.0  0.6471399999999999  0.08749000000000003  0.51995  1.0000
  H   H101      1.0  0.66871  0.014100000000000001  0.54743  1.0000
  H   H102      1.0  0.5790400000000001  0.05192000000000006  0.62711  1.0000
  H   H103      1.0  0.32004000000000044  0.83457  0.83341  1.0000
  H   H104      1.0  0.4558999999999998  0.8225200000000003  0.68285  1.0000
  H   H105      1.0  0.45397999999999983  0.6805400000000003  0.8320299999999999  1.0000
  H   H106      1.0  0.5199899999999998  0.7454000000000002  0.6471  1.0000
  H   H107      1.0  0.54752  0.7697  0.6687  1.0000
  H   H108      1.0  0.6270800000000004  0.7419100000000001  0.57907  1.0000
  H   H109      1.0  0.01199999999999999  0.8334100000000001  0.8345599999999999  1.0000
  H   H110      1.0  0.03870999999999997  0.68286  0.82253  1.0000
  H   H111      1.0  0.033409999999999954  0.83209  0.6805299999999999  1.0000
  H   H112      1.0  0.08750999999999988  0.6471200000000003  0.74535  1.0000
  H   H113      1.0  0.014080000000000004  0.66874  0.76965  1.0000
  H   H114      1.0  0.05187000000000003  0.57903  0.74193  1.0000
  H   H115      1.0  0.83458  0.3200100000000001  0.01197  1.0000
  H   H116      1.0  0.82248  0.45587  0.03874  1.0000
  H   H117      1.0  0.6805200000000001  0.45401  0.03341  1.0000
  H   H118      1.0  0.7453900000000001  0.52  0.08748  1.0000
  H   H119      1.0  0.7697000000000004  0.5475  0.014089999999999998  1.0000
  H   H120      1.0  0.7419300000000003  0.627  0.05188  1.0000
  H   H121      1.0  0.8345600000000001  0.8334100000000001  0.32004  1.0000
  H   H122      1.0  0.8224799999999997  0.6828500000000002  0.45594  1.0000
  H   H123      1.0  0.6805300000000002  0.8319900000000002  0.45400999999999997  1.0000
  H   H124      1.0  0.74541  0.6470999999999999  0.51998  1.0000
  H   H125      1.0  0.7697000000000002  0.66869  0.54752  1.0000
  H   H126      1.0  0.7419199999999999  0.5790900000000001  0.62706  1.0000
  H   H127      1.0  0.011989999999999971  0.32  0.8334  1.0000
  H   H128      1.0  0.03869999999999998  0.456  0.6828300000000002  1.0000
  H   H129      1.0  0.03345000000000003  0.45393000000000006  0.8320299999999999  1.0000
  H   H130      1.0  0.08749000000000005  0.51993  0.64715  1.0000
  H   H131      1.0  0.014099999999999922  0.5474200000000001  0.6687099999999999  1.0000
  H   H132      1.0  0.051909999999999984  0.62709  0.57906  1.0000
  H   H133      1.0  0.32001  0.011970000000000003  0.83458  1.0000
  H   H134      1.0  0.45587999999999995  0.03874999999999997  0.82247  1.0000
  H   H135      1.0  0.4540200000000001  0.033420000000000026  0.68052  1.0000
  H   H136      1.0  0.51999  0.08748000000000002  0.7454  1.0000
  H   H137      1.0  0.5474900000000003  0.01409  0.7697  1.0000
  H   H138      1.0  0.6269900000000003  0.051880000000000016  0.74193  1.0000
  H   H139      1.0  0.83341  0.83455  0.012  1.0000
  H   H140      1.0  0.68285  0.82251  0.03871  1.0000
  H   H141      1.0  0.8320700000000001  0.68053  0.03342  1.0000
  H   H142      1.0  0.6471200000000001  0.74536  0.08751  1.0000
  H   H143      1.0  0.66874  0.76964  0.01408  1.0000
  H   H144      1.0  0.5790500000000001  0.74192  0.05187  1.0000
  C   C1        1.0  0.9776899999999998  0.24532  0.61595  1.0000
  C   C2        1.0  0.9806499999999999  0.1899  0.64085  1.0000
  C   C3        1.0  0.97515  0.16618000000000005  0.61417  1.0000
  C   C4        1.0  0.96541  0.19748000000000002  0.56345  1.0000
  C   C5        1.0  0.96167  0.25299  0.53954  1.0000
  C   C6        1.0  0.9684200000000001  0.27665  0.56551  1.0000
  C   C7        1.0  0.98105  0.10637  0.63982  1.0000
  C   C8        1.0  0.9858500000000001  0.2709500000000001  0.64245  1.0000
  C   C9        1.0  0.9494399999999998  0.26711  0.45835  1.0000
  C   C10       1.0  0.9477599999999999  0.3114  0.40304  1.0000
  C   C11       1.0  0.94764  0.29872  0.36349  1.0000
  C   C12       1.0  0.2453199999999999  0.9776900000000002  0.16106  1.0000
  C   C13       1.0  0.18990999999999988  0.9806300000000002  0.18865  1.0000
  C   C14       1.0  0.16618999999999995  0.9751200000000001  0.24456  1.0000
  C   C15       1.0  0.19748999999999992  0.9654100000000002  0.27371  1.0000
  C   C16       1.0  0.25300999999999996  0.96167  0.24583  1.0000
  C   C17       1.0  0.27665  0.9684200000000001  0.18943999999999997  1.0000
  C   C18       1.0  0.10636999999999991  0.9810100000000002  0.27284  1.0000
  C   C19       1.0  0.2709399999999999  0.9858600000000002  0.10076  1.0000
  C   C20       1.0  0.26715  0.9494200000000002  0.32513  1.0000
  C   C21       1.0  0.3113999999999999  0.9477300000000002  0.33788  1.0000
  C   C22       1.0  0.2987099999999999  0.9476300000000001  0.39023  1.0000
  C   C23       1.0  0.16106000000000004  0.61596  0.24531  1.0000
  C   C24       1.0  0.1886600000000001  0.6408300000000001  0.1899  1.0000
  C   C25       1.0  0.24456999999999995  0.6141600000000002  0.16616  1.0000
  C   C26       1.0  0.27372000000000013  0.5634200000000001  0.19745  1.0000
  C   C27       1.0  0.24583999999999995  0.53954  0.25296  1.0000
  C   C28       1.0  0.18946000000000007  0.56552  0.27663  1.0000
  C   C29       1.0  0.2728299999999999  0.6398000000000003  0.10636  1.0000
  C   C30       1.0  0.10076000000000002  0.64248  0.27091  1.0000
  C   C31       1.0  0.32513  0.45835000000000004  0.2671  1.0000
  C   C32       1.0  0.33785  0.40304000000000006  0.31139  1.0000
  C   C33       1.0  0.39020000000000005  0.36348000000000014  0.29871  1.0000
  C   C34       1.0  0.6159999999999999  0.16107000000000002  0.97771  1.0000
  C   C35       1.0  0.6408500000000001  0.18868  0.98064  1.0000
  C   C36       1.0  0.61415  0.2446  0.97512  1.0000
  C   C37       1.0  0.5634  0.27374  0.96542  1.0000
  C   C38       1.0  0.5395399999999999  0.24583  0.96169  1.0000
  C   C39       1.0  0.56555  0.18945000000000006  0.96844  1.0000
  C   C40       1.0  0.63978  0.27287  0.98101  1.0000
  C   C41       1.0  0.6425600000000004  0.10076999999999997  0.98588  1.0000
  C   C42       1.0  0.45838000000000007  0.32512  0.94944  1.0000
  C   C43       1.0  0.4030600000000001  0.33786000000000005  0.94776  1.0000
  C   C44       1.0  0.36349  0.39020999999999995  0.94764  1.0000
  C   C45       1.0  0.16107999999999995  0.9777100000000001  0.616  1.0000
  C   C46       1.0  0.1886799999999999  0.9806400000000001  0.64086  1.0000
  C   C47       1.0  0.24459999999999998  0.9751200000000001  0.61415  1.0000
  C   C48       1.0  0.27374000000000004  0.9654099999999999  0.56341  1.0000
  C   C49       1.0  0.24583000000000008  0.9616799999999999  0.53954  1.0000
  C   C50       1.0  0.1894500000000001  0.96843  0.56556  1.0000
  C   C51       1.0  0.27287000000000017  0.981  0.63979  1.0000
  C   C52       1.0  0.10076999999999996  0.98587  0.64257  1.0000
  C   C53       1.0  0.32512000000000013  0.94944  0.45837999999999995  1.0000
  C   C54       1.0  0.33786000000000005  0.94776  0.40306  1.0000
  C   C55       1.0  0.39021000000000006  0.94764  0.36349  1.0000
  C   C56       1.0  0.61596  0.24531000000000006  0.16106  1.0000
  C   C57       1.0  0.64083  0.18990000000000004  0.18865  1.0000
  C   C58       1.0  0.61416  0.16616  0.24456  1.0000
  C   C59       1.0  0.56343  0.19746000000000005  0.27371  1.0000
  C   C60       1.0  0.53954  0.2529699999999999  0.24583999999999998  1.0000
  C   C61       1.0  0.5655200000000001  0.27663000000000004  0.18945  1.0000
  C   C62       1.0  0.6398000000000003  0.10636000000000001  0.27283  1.0000
  C   C63       1.0  0.6424899999999999  0.27091000000000004  0.10076999999999998  1.0000
  C   C64       1.0  0.4583499999999998  0.26709000000000005  0.32514  1.0000
  C   C65       1.0  0.40303999999999995  0.31137999999999993  0.33786  1.0000
  C   C66       1.0  0.3634700000000001  0.2987000000000001  0.39022  1.0000
  C   C67       1.0  0.97769  0.1610600000000001  0.24531999999999995  1.0000
  C   C68       1.0  0.98064  0.18864  0.18991  1.0000
  C   C69       1.0  0.97513  0.24455000000000005  0.16619  1.0000
  C   C70       1.0  0.96541  0.27371  0.19748999999999997  1.0000
  C   C71       1.0  0.96166  0.24583  0.25302  1.0000
  C   C72       1.0  0.9684200000000001  0.18943999999999997  0.27665  1.0000
  C   C73       1.0  0.98101  0.27283  0.10637  1.0000
  C   C74       1.0  0.9858600000000001  0.10076000000000003  0.27094  1.0000
  C   C75       1.0  0.9494200000000004  0.32513  0.26714  1.0000
  C   C76       1.0  0.9477299999999999  0.33788000000000007  0.31139  1.0000
  C   C77       1.0  0.94764  0.39024  0.2987  1.0000
  C   C78       1.0  0.24532999999999996  0.61595  0.97769  1.0000
  C   C79       1.0  0.18990000000000004  0.6408500000000001  0.9806599999999999  1.0000
  C   C80       1.0  0.16618000000000002  0.61417  0.97516  1.0000
  C   C81       1.0  0.1974900000000001  0.56345  0.96542  1.0000
  C   C82       1.0  0.25300000000000017  0.53953  0.9616699999999999  1.0000
  C   C83       1.0  0.27666  0.5655  0.96842  1.0000
  C   C84       1.0  0.1063700000000002  0.63982  0.98105  1.0000
  C   C85       1.0  0.27094999999999975  0.6424500000000003  0.98585  1.0000
  C   C86       1.0  0.26711  0.4583400000000001  0.94944  1.0000
  C   C87       1.0  0.31139000000000006  0.40304000000000006  0.94776  1.0000
  C   C88       1.0  0.2987199999999999  0.36347999999999997  0.94764  1.0000
  C   C89       1.0  0.24531000000000003  0.16106999999999996  0.61596  1.0000
  C   C90       1.0  0.18990000000000004  0.18866  0.64083  1.0000
  C   C91       1.0  0.16615000000000005  0.24456  0.61416  1.0000
  C   C92       1.0  0.19746000000000005  0.27371  0.56343  1.0000
  C   C93       1.0  0.25297  0.24583  0.53955  1.0000
  C   C94       1.0  0.27664000000000005  0.18945000000000004  0.56552  1.0000
  C   C95       1.0  0.10635000000000006  0.27283  0.6398  1.0000
  C   C96       1.0  0.27090000000000014  0.10076999999999997  0.64249  1.0000
  C   C97       1.0  0.26709  0.32513  0.45836  1.0000
  C   C98       1.0  0.31137  0.33786  0.40305  1.0000
  C   C99       1.0  0.2987000000000001  0.39021  0.36349  1.0000
  C   C100      1.0  0.97771  0.616  0.16108  1.0000
  C   C101      1.0  0.9806400000000004  0.64085  0.18868  1.0000
  C   C102      1.0  0.97512  0.61415  0.2446  1.0000
  C   C103      1.0  0.96542  0.5634000000000001  0.27374  1.0000
  C   C104      1.0  0.96168  0.53955  0.24582  1.0000
  C   C105      1.0  0.96843  0.56556  0.18943999999999997  1.0000
  C   C106      1.0  0.9810099999999998  0.63978  0.27288  1.0000
  C   C107      1.0  0.98588  0.6425700000000002  0.10076999999999998  1.0000
  C   C108      1.0  0.9494400000000003  0.4583900000000001  0.32512  1.0000
  C   C109      1.0  0.9477599999999997  0.40307000000000004  0.33786  1.0000
  C   C110      1.0  0.94764  0.36349000000000004  0.39021  1.0000
  C   C111      1.0  0.61595  0.97768  0.24533  1.0000
  C   C112      1.0  0.6408499999999999  0.98066  0.1899  1.0000
  C   C113      1.0  0.6141699999999998  0.9751600000000002  0.16618  1.0000
  C   C114      1.0  0.5634499999999999  0.9654100000000002  0.19748999999999997  1.0000
  C   C115      1.0  0.53954  0.96167  0.253  1.0000
  C   C116      1.0  0.5655100000000003  0.9684100000000001  0.27666  1.0000
  C   C117      1.0  0.6398199999999999  0.98105  0.10637  1.0000
  C   C118      1.0  0.6424599999999999  0.98585  0.27095  1.0000
  C   C119      1.0  0.45835000000000004  0.94944  0.26711  1.0000
  C   C120      1.0  0.4030500000000001  0.94775  0.31139  1.0000
  C   C121      1.0  0.3634899999999999  0.94764  0.29872  1.0000
  C   C122      1.0  0.16106000000000004  0.24531999999999998  0.97769  1.0000
  C   C123      1.0  0.18865  0.1899100000000001  0.98064  1.0000
  C   C124      1.0  0.2445599999999999  0.1661900000000001  0.97513  1.0000
  C   C125      1.0  0.27370999999999995  0.19749000000000008  0.96541  1.0000
  C   C126      1.0  0.24583000000000008  0.25301  0.9616699999999999  1.0000
  C   C127      1.0  0.18943999999999994  0.27665  0.96842  1.0000
  C   C128      1.0  0.27284000000000014  0.10637  0.9810199999999999  1.0000
  C   C129      1.0  0.10075000000000003  0.27093  0.9858699999999999  1.0000
  C   C130      1.0  0.32512999999999986  0.2671400000000001  0.94942  1.0000
  C   C131      1.0  0.33788  0.31139  0.94773  1.0000
  C   C132      1.0  0.39022999999999997  0.2987  0.94764  1.0000
  C   C133      1.0  0.022309999999999927  0.7546800000000002  0.38405  1.0000
  C   C134      1.0  0.019350000000000107  0.8101  0.35914999999999997  1.0000
  C   C135      1.0  0.02485000000000006  0.8338199999999999  0.38583  1.0000
  C   C136      1.0  0.03458999999999989  0.8025200000000002  0.43656  1.0000
  C   C137      1.0  0.03832999999999999  0.74701  0.46046  1.0000
  C   C138      1.0  0.03157999999999983  0.7233500000000003  0.4345  1.0000
  C   C139      1.0  0.018959999999999845  0.8936300000000003  0.36018  1.0000
  C   C140      1.0  0.014149999999999862  0.7290500000000002  0.35755999999999993  1.0000
  C   C141      1.0  0.05055999999999995  0.73289  0.54166  1.0000
  C   C142      1.0  0.05224999999999988  0.6886000000000001  0.59696  1.0000
  C   C143      1.0  0.052360000000000115  0.7012800000000001  0.63651  1.0000
  C   C144      1.0  0.75468  0.022310000000000024  0.83894  1.0000
  C   C145      1.0  0.81009  0.019370000000000002  0.81135  1.0000
  C   C146      1.0  0.83381  0.024879999999999992  0.75544  1.0000
  C   C147      1.0  0.8025099999999998  0.03459  0.72629  1.0000
  C   C148      1.0  0.7469900000000002  0.03833000000000001  0.75417  1.0000
  C   C149      1.0  0.7233499999999999  0.031569999999999994  0.81056  1.0000
  C   C150      1.0  0.8936300000000001  0.018990000000000014  0.72717  1.0000
  C   C151      1.0  0.7290600000000003  0.014140000000000047  0.8992499999999999  1.0000
  C   C152      1.0  0.73286  0.05057999999999998  0.67488  1.0000
  C   C153      1.0  0.6886000000000001  0.05227000000000001  0.66212  1.0000
  C   C154      1.0  0.70129  0.05237000000000007  0.60977  1.0000
  C   C155      1.0  0.83894  0.38403999999999994  0.75469  1.0000
  C   C156      1.0  0.8113399999999998  0.3591700000000002  0.81011  1.0000
  C   C157      1.0  0.75544  0.38584  0.83384  1.0000
  C   C158      1.0  0.7262800000000001  0.43658  0.8025499999999999  1.0000
  C   C159      1.0  0.7541600000000002  0.4604599999999999  0.7470400000000001  1.0000
  C   C160      1.0  0.81055  0.43448000000000014  0.72338  1.0000
  C   C161      1.0  0.72717  0.3602  0.89365  1.0000
  C   C162      1.0  0.8992400000000002  0.35752  0.7291  1.0000
  C   C163      1.0  0.6748699999999996  0.54165  0.73291  1.0000
  C   C164      1.0  0.66215  0.59696  0.68862  1.0000
  C   C165      1.0  0.6098000000000002  0.63652  0.7012899999999999  1.0000
  C   C166      1.0  0.38400999999999996  0.8389300000000002  0.02229  1.0000
  C   C167      1.0  0.35915  0.8113200000000002  0.01936  1.0000
  C   C168      1.0  0.3858500000000001  0.7554  0.02488  1.0000
  C   C169      1.0  0.43659999999999993  0.72626  0.03459  1.0000
  C   C170      1.0  0.46046000000000004  0.75417  0.03831  1.0000
  C   C171      1.0  0.43444999999999995  0.81055  0.03156  1.0000
  C   C172      1.0  0.36021999999999993  0.7271300000000003  0.019  1.0000
  C   C173      1.0  0.3574399999999999  0.8992300000000001  0.01412  1.0000
  C   C174      1.0  0.54162  0.67488  0.05056  1.0000
  C   C175      1.0  0.5969400000000002  0.66214  0.05224  1.0000
  C   C176      1.0  0.6365099999999999  0.6097900000000002  0.05235999999999999  1.0000
  C   C177      1.0  0.8389300000000002  0.022290000000000004  0.384  1.0000
  C   C178      1.0  0.81132  0.01936000000000002  0.35914999999999997  1.0000
  C   C179      1.0  0.7554099999999999  0.02488000000000001  0.38585  1.0000
  C   C180      1.0  0.7262600000000002  0.03458999999999998  0.4366  1.0000
  C   C181      1.0  0.7541700000000002  0.03832000000000001  0.46046  1.0000
  C   C182      1.0  0.81055  0.031569999999999994  0.43444  1.0000
  C   C183      1.0  0.72713  0.019  0.36022  1.0000
  C   C184      1.0  0.8992300000000001  0.014120000000000025  0.3574399999999999  1.0000
  C   C185      1.0  0.6748800000000001  0.05056000000000001  0.54162  1.0000
  C   C186      1.0  0.6621399999999998  0.05224  0.59695  1.0000
  C   C187      1.0  0.60979  0.052360000000000066  0.63652  1.0000
  C   C188      1.0  0.38403999999999994  0.7546900000000002  0.83894  1.0000
  C   C189      1.0  0.3591699999999999  0.8101  0.81135  1.0000
  C   C190      1.0  0.3858399999999999  0.8338400000000002  0.75545  1.0000
  C   C191      1.0  0.4365699999999999  0.80254  0.72629  1.0000
  C   C192      1.0  0.4604699999999998  0.7470300000000002  0.75417  1.0000
  C   C193      1.0  0.43448  0.7233700000000002  0.81055  1.0000
  C   C194      1.0  0.36020000000000024  0.8936400000000001  0.72718  1.0000
  C   C195      1.0  0.3575200000000001  0.72909  0.89924  1.0000
  C   C196      1.0  0.54165  0.7329  0.67486  1.0000
  C   C197      1.0  0.59696  0.68862  0.66214  1.0000
  C   C198      1.0  0.6365300000000002  0.7013  0.60979  1.0000
  C   C199      1.0  0.022309999999999927  0.8389300000000002  0.75469  1.0000
  C   C200      1.0  0.019360000000000037  0.81136  0.8100999999999999  1.0000
  C   C201      1.0  0.024870000000000097  0.75545  0.83381  1.0000
  C   C202      1.0  0.03459000000000001  0.7262899999999999  0.80251  1.0000
  C   C203      1.0  0.03833999999999998  0.75417  0.7469899999999999  1.0000
  C   C204      1.0  0.031580000000000004  0.81056  0.72335  1.0000
  C   C205      1.0  0.01898999999999993  0.72717  0.89363  1.0000
  C   C206      1.0  0.014139999999999995  0.89924  0.7290699999999999  1.0000
  C   C207      1.0  0.05058000000000005  0.67487  0.73286  1.0000
  C   C208      1.0  0.0522700000000001  0.6621200000000002  0.6886099999999999  1.0000
  C   C209      1.0  0.05236000000000005  0.60976  0.7013  1.0000
  C   C210      1.0  0.75468  0.3840500000000001  0.02231  1.0000
  C   C211      1.0  0.8101000000000002  0.3591500000000001  0.01934  1.0000
  C   C212      1.0  0.8338299999999998  0.38583000000000006  0.02484  1.0000
  C   C213      1.0  0.80252  0.43655  0.03459  1.0000
  C   C214      1.0  0.7470000000000002  0.46047  0.03833  1.0000
  C   C215      1.0  0.7233400000000002  0.43449999999999994  0.03158  1.0000
  C   C216      1.0  0.89364  0.36018  0.01895  1.0000
  C   C217      1.0  0.72905  0.35755  0.014149999999999998  1.0000
  C   C218      1.0  0.73289  0.54166  0.05056  1.0000
  C   C219      1.0  0.6886100000000003  0.59696  0.05225  1.0000
  C   C220      1.0  0.70128  0.63652  0.05235999999999999  1.0000
  C   C221      1.0  0.7546899999999999  0.8389300000000002  0.38403999999999994  1.0000
  C   C222      1.0  0.8101000000000002  0.81134  0.35918  1.0000
  C   C223      1.0  0.83385  0.75544  0.38584  1.0000
  C   C224      1.0  0.80254  0.7262900000000002  0.43658  1.0000
  C   C225      1.0  0.74703  0.75417  0.46046  1.0000
  C   C226      1.0  0.72336  0.81055  0.43448000000000003  1.0000
  C   C227      1.0  0.8936499999999999  0.72717  0.36019999999999996  1.0000
  C   C228      1.0  0.7290999999999999  0.8992300000000002  0.35751  1.0000
  C   C229      1.0  0.73291  0.67487  0.54164  1.0000
  C   C230      1.0  0.6886300000000001  0.66214  0.59695  1.0000
  C   C231      1.0  0.7013000000000001  0.60979  0.63652  1.0000
  C   C232      1.0  0.02228999999999983  0.38400000000000034  0.8389299999999998  1.0000
  C   C233      1.0  0.019359999999999974  0.35915000000000014  0.8113199999999999  1.0000
  C   C234      1.0  0.024879999999999937  0.3858500000000001  0.75541  1.0000
  C   C235      1.0  0.03458999999999995  0.4366  0.72626  1.0000
  C   C236      1.0  0.038319999999999944  0.4604500000000001  0.75418  1.0000
  C   C237      1.0  0.03157000000000002  0.43444  0.81056  1.0000
  C   C238      1.0  0.01899000000000002  0.36022000000000004  0.72713  1.0000
  C   C239      1.0  0.014120000000000018  0.35743  0.89923  1.0000
  C   C240      1.0  0.05055999999999995  0.54161  0.67489  1.0000
  C   C241      1.0  0.05223999999999995  0.5969300000000001  0.66215  1.0000
  C   C242      1.0  0.05236000000000005  0.63651  0.60979  1.0000
  C   C243      1.0  0.3840500000000002  0.02231000000000006  0.7546799999999999  1.0000
  C   C244      1.0  0.3591500000000001  0.01934000000000003  0.8100999999999999  1.0000
  C   C245      1.0  0.38583000000000006  0.024839999999999984  0.83383  1.0000
  C   C246      1.0  0.43654999999999994  0.03459  0.80252  1.0000
  C   C247      1.0  0.4604600000000002  0.038330000000000045  0.7470099999999998  1.0000
  C   C248      1.0  0.43449  0.031590000000000035  0.7233399999999999  1.0000
  C   C249      1.0  0.36018000000000006  0.01894999999999997  0.89364  1.0000
  C   C250      1.0  0.3575499999999999  0.014150000000000015  0.72906  1.0000
  C   C251      1.0  0.54165  0.05056000000000001  0.73289  1.0000
  C   C252      1.0  0.5969600000000002  0.052250000000000074  0.6886099999999999  1.0000
  C   C253      1.0  0.6365100000000004  0.0523600000000001  0.7012899999999999  1.0000
  C   C254      1.0  0.8389399999999999  0.7546800000000002  0.02231  1.0000
  C   C255      1.0  0.8113599999999997  0.8100900000000001  0.01936  1.0000
  C   C256      1.0  0.7554500000000003  0.83381  0.024869999999999996  1.0000
  C   C257      1.0  0.7262900000000001  0.80251  0.03459  1.0000
  C   C258      1.0  0.7541700000000005  0.74699  0.03833  1.0000
  C   C259      1.0  0.8105599999999997  0.7233500000000003  0.03158  1.0000
  C   C260      1.0  0.7271699999999999  0.8936300000000003  0.01899  1.0000
  C   C261      1.0  0.8992499999999999  0.72907  0.014139999999999998  1.0000
  C   C262      1.0  0.6748800000000001  0.73286  0.05058  1.0000
  C   C263      1.0  0.66212  0.68861  0.05227  1.0000
  C   C264      1.0  0.60977  0.7013  0.05235999999999999  1.0000
  O   O1        1.0  0.98887  0.24241999999999997  0.691  1.0000
  O   O2        1.0  0.98965  0.3194000000000001  0.61417  1.0000
  O   O3        1.0  0.98466  0.08203  0.68824  1.0000
  O   O4        1.0  0.9826500000000001  0.08391999999999998  0.61144  1.0000
  O   O5        1.0  0.95206  0.28837  0.49068  1.0000
  O   O6        1.0  0.24240999999999985  0.9888600000000002  0.07773  1.0000
  O   O7        1.0  0.31937999999999994  0.9896900000000002  0.07676  1.0000
  O   O8        1.0  0.08206  0.9845800000000001  0.24514  1.0000
  O   O9        1.0  0.08388999999999983  0.9826500000000002  0.32205  1.0000
  O   O10       1.0  0.28841000000000006  0.95203  0.26892  1.0000
  O   O11       1.0  0.07770999999999982  0.6910200000000002  0.24236  1.0000
  O   O12       1.0  0.07677999999999983  0.6142300000000003  0.31937  1.0000
  O   O13       1.0  0.24514  0.68822  0.08203  1.0000
  O   O14       1.0  0.32204  0.61142  0.08388  1.0000
  O   O15       1.0  0.26893000000000006  0.4906800000000001  0.28835  1.0000
  O   O16       1.0  0.69109  0.07773000000000004  0.98896  1.0000
  O   O17       1.0  0.6143300000000005  0.07679999999999998  0.9896199999999999  1.0000
  O   O18       1.0  0.6881999999999999  0.24517000000000005  0.9845999999999999  1.0000
  O   O19       1.0  0.6114099999999999  0.32209  0.98263  1.0000
  O   O20       1.0  0.49068999999999985  0.26891000000000004  0.95206  1.0000
  O   O21       1.0  0.07772999999999987  0.9889700000000002  0.6910899999999999  1.0000
  O   O22       1.0  0.07680000000000012  0.9896000000000001  0.61434  1.0000
  O   O23       1.0  0.24515999999999985  0.9846200000000003  0.6881999999999999  1.0000
  O   O24       1.0  0.32209999999999983  0.9826000000000003  0.61143  1.0000
  O   O25       1.0  0.26890999999999987  0.9520600000000002  0.49068999999999996  1.0000
  O   O26       1.0  0.69102  0.24235000000000007  0.07772  1.0000
  O   O27       1.0  0.61423  0.31937000000000004  0.07678  1.0000
  O   O28       1.0  0.68822  0.08202999999999999  0.24512  1.0000
  O   O29       1.0  0.61143  0.08388000000000001  0.32204  1.0000
  O   O30       1.0  0.4906799999999999  0.2883500000000001  0.26893  1.0000
  O   O31       1.0  0.9888600000000001  0.07773  0.24239999999999998  1.0000
  O   O32       1.0  0.98969  0.07676000000000001  0.31938  1.0000
  O   O33       1.0  0.9846  0.24513000000000004  0.08206  1.0000
  O   O34       1.0  0.9826400000000001  0.32205000000000006  0.08388999999999999  1.0000
  O   O35       1.0  0.95203  0.26892000000000005  0.28841  1.0000
  O   O36       1.0  0.24242000000000014  0.691  0.98888  1.0000
  O   O37       1.0  0.3194  0.61418  0.9896399999999999  1.0000
  O   O38       1.0  0.08202999999999996  0.68823  0.98468  1.0000
  O   O39       1.0  0.08391999999999997  0.6114600000000001  0.98263  1.0000
  O   O40       1.0  0.28837000000000024  0.49066999999999994  0.95206  1.0000
  O   O41       1.0  0.24234999999999995  0.07772  0.69103  1.0000
  O   O42       1.0  0.31937  0.07679000000000001  0.61423  1.0000
  O   O43       1.0  0.08202000000000001  0.24514000000000008  0.68822  1.0000
  O   O44       1.0  0.08387999999999998  0.32205000000000006  0.61143  1.0000
  O   O45       1.0  0.28835000000000005  0.26892  0.49068999999999996  1.0000
  O   O46       1.0  0.98896  0.6910900000000001  0.07774  1.0000
  O   O47       1.0  0.98962  0.61433  0.0768  1.0000
  O   O48       1.0  0.9846199999999999  0.6882000000000003  0.24517  1.0000
  O   O49       1.0  0.98262  0.61141  0.3221  1.0000
  O   O50       1.0  0.95206  0.49070000000000014  0.2689  1.0000
  O   O51       1.0  0.6910099999999999  0.9888600000000002  0.24242  1.0000
  O   O52       1.0  0.6141700000000003  0.9896600000000001  0.31939  1.0000
  O   O53       1.0  0.6882400000000001  0.98466  0.08203  1.0000
  O   O54       1.0  0.6114499999999999  0.9826500000000002  0.08392  1.0000
  O   O55       1.0  0.49067999999999995  0.9520600000000002  0.28837  1.0000
  O   O56       1.0  0.07772999999999992  0.24241000000000007  0.98885  1.0000
  O   O57       1.0  0.07675000000000003  0.3193700000000001  0.9897099999999999  1.0000
  O   O58       1.0  0.24514000000000002  0.08206000000000002  0.9845999999999999  1.0000
  O   O59       1.0  0.32205000000000006  0.08389000000000002  0.98265  1.0000
  O   O60       1.0  0.26892  0.2884100000000001  0.9520399999999999  1.0000
  O   O61       1.0  0.011130000000000053  0.75758  0.309  1.0000
  O   O62       1.0  0.01034999999999989  0.6806000000000002  0.38584  1.0000
  O   O63       1.0  0.015349999999999892  0.9179700000000002  0.31177  1.0000
  O   O64       1.0  0.01735  0.91608  0.38856  1.0000
  O   O65       1.0  0.04794999999999996  0.71163  0.50933  1.0000
  O   O66       1.0  0.75759  0.011139999999999975  0.92227  1.0000
  O   O67       1.0  0.68062  0.01030999999999998  0.92325  1.0000
  O   O68       1.0  0.9179400000000003  0.015420000000000012  0.75486  1.0000
  O   O69       1.0  0.91612  0.017349999999999997  0.67796  1.0000
  O   O70       1.0  0.7115900000000001  0.04797  0.73108  1.0000
  O   O71       1.0  0.9222900000000002  0.30898000000000014  0.7576399999999999  1.0000
  O   O72       1.0  0.9232199999999999  0.3857700000000001  0.68063  1.0000
  O   O73       1.0  0.7548600000000003  0.31178  0.91797  1.0000
  O   O74       1.0  0.6779599999999999  0.38858  0.91612  1.0000
  O   O75       1.0  0.7310700000000001  0.5093100000000003  0.71166  1.0000
  O   O76       1.0  0.3089199999999999  0.92227  0.01104  1.0000
  O   O77       1.0  0.38567999999999997  0.9232000000000002  0.01039  1.0000
  O   O78       1.0  0.3118000000000001  0.75483  0.0154  1.0000
  O   O79       1.0  0.3886000000000002  0.67791  0.01737  1.0000
  O   O80       1.0  0.50931  0.7310900000000001  0.04794  1.0000
  O   O81       1.0  0.92227  0.01103  0.30891  1.0000
  O   O82       1.0  0.92321  0.01040000000000002  0.38566  1.0000
  O   O83       1.0  0.75484  0.015380000000000001  0.31181  1.0000
  O   O84       1.0  0.6778999999999998  0.01740000000000001  0.38858  1.0000
  O   O85       1.0  0.7310900000000002  0.047939999999999997  0.50931  1.0000
  O   O86       1.0  0.30898000000000003  0.75765  0.92229  1.0000
  O   O87       1.0  0.38577  0.6806300000000001  0.92322  1.0000
  O   O88       1.0  0.31178000000000006  0.9179700000000001  0.75488  1.0000
  O   O89       1.0  0.38857  0.9161200000000002  0.67796  1.0000
  O   O90       1.0  0.50932  0.71165  0.73107  1.0000
  O   O91       1.0  0.01113999999999992  0.92227  0.7576  1.0000
  O   O92       1.0  0.010319999999999985  0.92324  0.68063  1.0000
  O   O93       1.0  0.015399999999999893  0.7548700000000002  0.91794  1.0000
  O   O94       1.0  0.017369999999999858  0.6779500000000002  0.91612  1.0000
  O   O95       1.0  0.047969999999999874  0.7310800000000002  0.71159  1.0000
  O   O96       1.0  0.7575800000000003  0.309  0.011119999999999998  1.0000
  O   O97       1.0  0.6805999999999999  0.3858200000000001  0.01036  1.0000
  O   O98       1.0  0.91798  0.31177  0.01532  1.0000
  O   O99       1.0  0.9160899999999998  0.38854  0.01737  1.0000
  O   O100      1.0  0.7116300000000002  0.50933  0.04795  1.0000
  O   O101      1.0  0.7576500000000002  0.92228  0.30898  1.0000
  O   O102      1.0  0.6806400000000002  0.9232100000000002  0.38577  1.0000
  O   O103      1.0  0.9179800000000001  0.7548600000000002  0.31178  1.0000
  O   O104      1.0  0.91613  0.6779500000000002  0.38858  1.0000
  O   O105      1.0  0.7116499999999999  0.7310800000000002  0.50932  1.0000
  O   O106      1.0  0.011039999999999979  0.30891  0.92227  1.0000
  O   O107      1.0  0.010390000000000054  0.38567000000000007  0.9232  1.0000
  O   O108      1.0  0.015390000000000053  0.3118  0.75483  1.0000
  O   O109      1.0  0.017379999999999965  0.3885900000000001  0.67791  1.0000
  O   O110      1.0  0.04794000000000006  0.5093  0.7310999999999999  1.0000
  O   O111      1.0  0.30899  0.01114000000000001  0.75758  1.0000
  O   O112      1.0  0.3858300000000001  0.010339999999999988  0.68061  1.0000
  O   O113      1.0  0.31177  0.015339999999999958  0.91797  1.0000
  O   O114      1.0  0.3885500000000003  0.017349999999999997  0.9160899999999998  1.0000
  O   O115      1.0  0.5093200000000001  0.04794000000000003  0.7116299999999999  1.0000
  O   O116      1.0  0.92227  0.75759  0.01115  1.0000
  O   O117      1.0  0.92325  0.68063  0.0103  1.0000
  O   O118      1.0  0.7548600000000003  0.91794  0.01541  1.0000
  O   O119      1.0  0.67795  0.9161100000000002  0.01736  1.0000
  O   O120      1.0  0.7310900000000004  0.7115900000000002  0.04797  1.0000
