data_image0
_chemical_formula_structural       Eu4Zn38H108C108N144Cl16O72
_chemical_formula_sum              "Eu4 Zn38 H108 C108 N144 Cl16 O72"
_cell_length_a       18.37747
_cell_length_b       18.32482
_cell_length_c       24.08121
_cell_angle_alpha    90.04262
_cell_angle_beta     89.95739000000002
_cell_angle_gamma    120.27244999999999

_space_group_name_H-M_alt    "P 1"
_space_group_IT_number       1

loop_
  _space_group_symop_operation_xyz
  'x, y, z'

loop_
  _atom_site_type_symbol
  _atom_site_label
  _atom_site_symmetry_multiplicity
  _atom_site_fract_x
  _atom_site_fract_y
  _atom_site_fract_z
  _atom_site_occupancy
  Eu  Eu1       1.0  0.99968  0.99993  0.6293  1.0000
  Eu  Eu2       1.0  0.9996199999999998  0.0  0.87088  1.0000
  Eu  Eu3       1.0  0.00020999999999999998  0.00019000000000000006  0.12915  1.0000
  Eu  Eu4       1.0  6.000000000000005e-05  0.00014  0.37096999999999997  1.0000
  Zn  Zn1       1.0  0.9999600000000002  0.6626800000000003  0.09161  1.0000
  Zn  Zn2       1.0  0.21152000000000004  0.99979  0.14287  1.0000
  Zn  Zn3       1.0  0.49856  0.9999400000000002  0.50111  1.0000
  Zn  Zn4       1.0  0.6680899999999999  0.33364  0.61845  1.0000
  Zn  Zn5       1.0  0.00012999999999998042  0.5  0.50107  1.0000
  Zn  Zn6       1.0  0.6623700000000001  0.6631600000000002  0.90937  1.0000
  Zn  Zn7       1.0  0.7884199999999999  0.0003800000000000001  0.6426799999999999  1.0000
  Zn  Zn8       1.0  0.9999299999999999  0.33709  0.59278  1.0000
  Zn  Zn9       1.0  0.50129  0.50001  0.50129  1.0000
  Zn  Zn10      1.0  0.66228  0.6628500000000003  0.59316  1.0000
  Zn  Zn11      1.0  0.78845  0.00011999999999999994  0.8591399999999999  1.0000
  Zn  Zn12      1.0  0.6660700000000002  0.33339000000000013  0.8818199999999999  1.0000
  Zn  Zn13      1.0  0.00021000000000011336  0.6627700000000002  0.40939999999999993  1.0000
  Zn  Zn14      1.0  0.33361  0.66638  0.38195  1.0000
  Zn  Zn15      1.0  0.66208  7e-05  0.40967  1.0000
  Zn  Zn16      1.0  0.0001900000000000318  0.21134000000000006  0.35906  1.0000
  Zn  Zn17      1.0  0.66566  0.3332000000000001  0.11813  1.0000
  Zn  Zn18      1.0  0.9998  0.4999800000000001  0.9987799999999999  1.0000
  Zn  Zn19      1.0  0.33439  0.66686  0.61822  1.0000
  Zn  Zn20      1.0  0.33548  0.99962  0.91008  1.0000
  Zn  Zn21      1.0  0.99978  0.3371500000000001  0.9073099999999998  1.0000
  Zn  Zn22      1.0  0.00029000000000002884  0.21195000000000006  0.14098  1.0000
  Zn  Zn23      1.0  0.4987000000000001  0.5001000000000002  0.00108  1.0000
  Zn  Zn24      1.0  0.21131  0.2113  0.85947  1.0000
  Zn  Zn25      1.0  1.0000000000095153e-05  0.7889500000000003  0.8589799999999999  1.0000
  Zn  Zn26      1.0  0.50124  0.00010000000000000003  0.00117  1.0000
  Zn  Zn27      1.0  0.66571  0.3331  0.38202  1.0000
  Zn  Zn28      1.0  0.33770000000000006  0.3369300000000001  0.09284  1.0000
  Zn  Zn29      1.0  0.9999700000000001  0.7887300000000003  0.64251  1.0000
  Zn  Zn30      1.0  0.21132000000000004  0.99957  0.35926  1.0000
  Zn  Zn31      1.0  0.21148  0.21146000000000006  0.6425699999999999  1.0000
  Zn  Zn32      1.0  0.66205  0.00010999999999999998  0.09288999999999997  1.0000
  Zn  Zn33      1.0  0.33122  0.6663100000000002  0.11822999999999999  1.0000
  Zn  Zn34      1.0  0.33803999999999995  0.33701  0.40953999999999996  1.0000
  Zn  Zn35      1.0  0.78868  0.78858  0.35932  1.0000
  Zn  Zn36      1.0  0.33762  0.99997  0.59276  1.0000
  Zn  Zn37      1.0  0.33455  0.66702  0.88189  1.0000
  Zn  Zn38      1.0  0.7887200000000001  0.7886800000000003  0.14256999999999997  1.0000
  H   H1        1.0  0.4662200000000001  0.22583000000000006  0.8222999999999999  1.0000
  H   H2        1.0  0.21015999999999996  0.99818  0.49171  1.0000
  H   H3        1.0  0.24269000000000013  0.7732600000000002  0.67987  1.0000
  H   H4        1.0  0.1751500000000001  0.7848000000000003  0.3647  1.0000
  H   H5        1.0  0.21279  0.21020000000000005  0.99135  1.0000
  H   H6        1.0  0.5144  0.34213  0.56998  1.0000
  H   H7        1.0  0.6118700000000002  0.7872400000000003  0.63836  1.0000
  H   H8        1.0  0.78893  0.0016300000000000004  0.5103  1.0000
  H   H9        1.0  0.48586999999999997  0.8285000000000002  0.93411  1.0000
  H   H10       1.0  0.21585  0.82621  0.8657299999999999  1.0000
  H   H11       1.0  0.55425  0.00841  0.62839  1.0000
  H   H12       1.0  0.61839  0.6387  0.16434  1.0000
  H   H13       1.0  0.16998000000000008  0.5131100000000002  0.06583  1.0000
  H   H14       1.0  0.65812  0.17055000000000006  0.5708  1.0000
  H   H15       1.0  0.47341000000000005  0.23597000000000007  0.32516  1.0000
  H   H16       1.0  0.17162000000000008  0.6584500000000002  0.92881  1.0000
  H   H17       1.0  0.77169  0.24221  0.81992  1.0000
  H   H18       1.0  0.7735400000000001  0.24273000000000006  0.6803599999999999  1.0000
  H   H19       1.0  0.1716500000000001  0.6583600000000002  0.57113  1.0000
  H   H20       1.0  0.78521  0.17554  0.13644  1.0000
  H   H21       1.0  0.65846  0.17149000000000006  0.93026  1.0000
  H   H22       1.0  0.23214000000000012  0.4730600000000001  0.17377999999999996  1.0000
  H   H23       1.0  0.35889  0.97521  0.16463  1.0000
  H   H24       1.0  0.65661  0.48538  0.06634  1.0000
  H   H25       1.0  0.5292200000000002  0.7684200000000002  0.17814999999999995  1.0000
  H   H26       1.0  0.54559  0.55251  0.12802  1.0000
  H   H27       1.0  0.4858900000000002  0.6588900000000002  0.06919  1.0000
  H   H28       1.0  0.78879  0.7903000000000002  0.49156  1.0000
  H   H29       1.0  0.53208  0.77315  0.3218  1.0000
  H   H30       1.0  0.55457  0.00774  0.8739  1.0000
  H   H31       1.0  0.2148200000000001  0.8250900000000002  0.63587  1.0000
  H   H32       1.0  0.48644  0.82927  0.56828  1.0000
  H   H33       1.0  0.78997  0.00241  0.99181  1.0000
  H   H34       1.0  0.97651  0.3592400000000001  0.33764  1.0000
  H   H35       1.0  0.61246  0.7868500000000003  0.8623899999999999  1.0000
  H   H36       1.0  0.21112000000000006  0.9974900000000001  0.010839999999999999  1.0000
  H   H37       1.0  0.51319  0.34207  0.93103  1.0000
  H   H38       1.0  0.21181  0.21067000000000005  0.51048  1.0000
  H   H39       1.0  0.38823  0.21253000000000005  0.13634999999999997  1.0000
  H   H40       1.0  0.99858  0.21062000000000006  0.00891  1.0000
  H   H41       1.0  0.24427000000000004  0.7759  0.82107  1.0000
  H   H42       1.0  0.82531  0.61174  0.3659599999999999  1.0000
  H   H43       1.0  0.48719999999999997  0.65865  0.4319799999999999  1.0000
  H   H44       1.0  0.46822  0.22828000000000007  0.6786499999999998  1.0000
  H   H45       1.0  0.99131  0.4457300000000001  0.37356  1.0000
  H   H46       1.0  0.7622100000000002  0.5272000000000002  0.17437  1.0000
  H   H47       1.0  0.34138  0.82865  0.43011  1.0000
  H   H48       1.0  0.64119  0.02361  0.83769  1.0000
  H   H49       1.0  0.008819999999999977  0.55479  0.87241  1.0000
  H   H50       1.0  0.99784  0.21002  0.49107  1.0000
  H   H51       1.0  0.5455  0.5541000000000003  0.37415999999999994  1.0000
  H   H52       1.0  0.17572000000000004  0.38784000000000013  0.63473  1.0000
  H   H53       1.0  0.023780000000000044  0.6414  0.8366799999999999  1.0000
  H   H54       1.0  0.8284800000000001  0.48593  0.9330199999999998  1.0000
  H   H55       1.0  0.61  0.82385  0.13494  1.0000
  H   H56       1.0  0.51345  0.17045000000000005  0.06848  1.0000
  H   H57       1.0  0.34332  0.51487  0.9327499999999997  1.0000
  H   H58       1.0  0.3882  0.21365000000000006  0.36409  1.0000
  H   H59       1.0  0.3897  0.17659  0.63363  1.0000
  H   H60       1.0  0.76078  0.5268600000000002  0.32691  1.0000
  H   H61       1.0  0.34168  0.8291100000000002  0.07102  1.0000
  H   H62       1.0  0.78804  0.61257  0.63719  1.0000
  H   H63       1.0  0.6109800000000002  0.8252600000000002  0.36655  1.0000
  H   H64       1.0  0.0015100000000001109  0.7895200000000002  0.9907699999999998  1.0000
  H   H65       1.0  0.8243700000000002  0.21385000000000007  0.63618  1.0000
  H   H66       1.0  0.76797  0.52622  0.8269499999999999  1.0000
  H   H67       1.0  0.51371  0.17127000000000006  0.4333799999999999  1.0000
  H   H68       1.0  0.4547399999999999  0.4460300000000001  0.62853  1.0000
  H   H69       1.0  0.78788  0.78996  0.0102  1.0000
  H   H70       1.0  0.44484000000000007  0.9911700000000002  0.37368  1.0000
  H   H71       1.0  0.21378000000000003  0.3878600000000001  0.3651099999999999  1.0000
  H   H72       1.0  0.52664  0.7650700000000002  0.8240999999999999  1.0000
  H   H73       1.0  0.24246999999999996  0.47368  0.8267099999999998  1.0000
  H   H74       1.0  0.23401999999999998  0.47372  0.32696  1.0000
  H   H75       1.0  0.38255  0.35886  0.83746  1.0000
  H   H76       1.0  0.97601  0.3592  0.16241  1.0000
  H   H77       1.0  0.75659  0.22587  0.32123  1.0000
  H   H78       1.0  0.8248600000000001  0.6115200000000002  0.13442  1.0000
  H   H79       1.0  0.75703  0.22765  0.18015999999999996  1.0000
  H   H80       1.0  0.9904299999999999  0.44557000000000013  0.12656  1.0000
  H   H81       1.0  0.61755  0.64082  0.33821  1.0000
  H   H82       1.0  0.38322999999999996  0.3585600000000001  0.6641399999999998  1.0000
  H   H83       1.0  0.24190000000000006  0.4732300000000001  0.67321  1.0000
  H   H84       1.0  0.52519  0.76608  0.6757299999999998  1.0000
  H   H85       1.0  0.17192999999999994  0.51408  0.43479  1.0000
  H   H86       1.0  0.17519  0.78568  0.1343  1.0000
  H   H87       1.0  0.47364  0.23479  0.17509  1.0000
  H   H88       1.0  0.8279100000000001  0.3409900000000001  0.43055  1.0000
  H   H89       1.0  0.2245600000000002  0.7560600000000002  0.17905  1.0000
  H   H90       1.0  0.4460700000000001  0.9915300000000002  0.12904  1.0000
  H   H91       1.0  0.21258  0.3876600000000001  0.13535999999999998  1.0000
  H   H92       1.0  0.82408  0.21425000000000002  0.8633499999999997  1.0000
  H   H93       1.0  0.0021500000000000143  0.78971  0.51017  1.0000
  H   H94       1.0  0.7874199999999999  0.61254  0.86456  1.0000
  H   H95       1.0  0.35802  0.97509  0.33772  1.0000
  H   H96       1.0  0.65771  0.48571  0.43366  1.0000
  H   H97       1.0  0.7688500000000001  0.5259400000000002  0.6743099999999999  1.0000
  H   H98       1.0  0.38833  0.17386  0.86761  1.0000
  H   H99       1.0  0.78425  0.17374  0.3651199999999999  1.0000
  H   H100      1.0  0.34372  0.51479  0.56716  1.0000
  H   H101      1.0  0.8294100000000001  0.4860000000000001  0.56719  1.0000
  H   H102      1.0  0.45432  0.4463000000000001  0.87284  1.0000
  H   H103      1.0  0.02318999999999999  0.64069  0.66406  1.0000
  H   H104      1.0  0.8276800000000001  0.3409900000000001  0.06925  1.0000
  H   H105      1.0  0.17597000000000004  0.3880500000000001  0.86485  1.0000
  H   H106      1.0  0.008610000000000105  0.5543200000000003  0.6280799999999999  1.0000
  H   H107      1.0  0.22601  0.75596  0.32062  1.0000
  H   H108      1.0  0.64122  0.024930000000000008  0.6641599999999999  1.0000
  C   C1        1.0  0.68215  0.17828  0.38864  1.0000
  C   C2        1.0  0.56656  0.16213  0.07765  1.0000
  C   C3        1.0  0.04792999999999999  0.20668  0.61211  1.0000
  C   C4        1.0  0.5055400000000002  0.6837700000000002  0.88739  1.0000
  C   C5        1.0  0.40333  0.83769  0.42162  1.0000
  C   C6        1.0  0.7923900000000003  0.9501800000000002  0.38744  1.0000
  C   C7        1.0  0.68265  0.17904000000000006  0.1129  1.0000
  C   C8        1.0  0.43310999999999994  0.5966  0.07828  1.0000
  C   C9        1.0  0.26481  0.048930000000000015  0.25072  1.0000
  C   C10       1.0  0.95277  0.22674000000000005  0.25  1.0000
  C   C11       1.0  0.0008100000000000471  0.3577100000000001  0.41887  1.0000
  C   C12       1.0  0.77166  0.04865  0.75044  1.0000
  C   C13       1.0  0.20710000000000003  0.15783  0.39055  1.0000
  C   C14       1.0  0.56589  0.40439  0.92192  1.0000
  C   C15       1.0  0.2062  0.04919  0.8891599999999997  1.0000
  C   C16       1.0  0.17940000000000003  0.4952800000000001  0.6121599999999999  1.0000
  C   C17       1.0  0.49515999999999993  0.31651  0.38899  1.0000
  C   C18       1.0  0.95175  0.79293  0.11327  1.0000
  C   C19       1.0  0.17944000000000004  0.4953900000000001  0.88765  1.0000
  C   C20       1.0  0.20788  0.05012000000000001  0.61574  1.0000
  C   C21       1.0  0.4034900000000002  0.8377500000000002  0.07942  1.0000
  C   C22       1.0  0.5671200000000001  0.4043400000000001  0.57933  1.0000
  C   C23       1.0  0.5665000000000001  0.16245000000000007  0.42406  1.0000
  C   C24       1.0  0.049429999999999995  0.84141  0.11485  1.0000
  C   C25       1.0  0.0502  0.26479  0.24994  1.0000
  C   C26       1.0  0.26671  0.9989000000000001  0.02711  1.0000
  C   C27       1.0  0.99919  0.64236  0.5828  1.0000
  C   C28       1.0  0.35676  0.00020999999999999998  0.4189799999999999  1.0000
  C   C29       1.0  0.5052800000000001  0.6837300000000002  0.61319  1.0000
  C   C30       1.0  0.6432900000000001  0.6423300000000002  0.41944  1.0000
  C   C31       1.0  0.04798000000000002  0.20718000000000006  0.8880299999999999  1.0000
  C   C32       1.0  0.04941000000000015  0.8413000000000003  0.38538999999999995  1.0000
  C   C33       1.0  0.79248  0.95159  0.11416999999999997  1.0000
  C   C34       1.0  0.99897  0.2658  0.47506  1.0000
  C   C35       1.0  0.49490999999999996  0.31605  0.11175999999999997  1.0000
  C   C36       1.0  0.21458000000000005  0.2633200000000001  0.75046  1.0000
  C   C37       1.0  0.16152000000000005  0.5661900000000002  0.07533  1.0000
  C   C38       1.0  0.0003899999999999896  0.35783  0.08116  1.0000
  C   C39       1.0  0.16244999999999996  0.59617  0.57966  1.0000
  C   C40       1.0  0.8372  0.4032300000000001  0.4221099999999999  1.0000
  C   C41       1.0  0.83699  0.4032000000000001  0.07791999999999999  1.0000
  C   C42       1.0  0.64282  0.64184  0.08253999999999999  1.0000
  C   C43       1.0  0.15928  0.20737  0.38938999999999996  1.0000
  C   C44       1.0  0.27724  0.22942  0.75052  1.0000
  C   C45       1.0  0.68316  0.5052  0.8879699999999998  1.0000
  C   C46       1.0  0.20731000000000005  0.15827000000000005  0.11223999999999999  1.0000
  C   C47       1.0  0.5948100000000001  0.4325600000000001  0.07618999999999998  1.0000
  C   C48       1.0  0.82077  0.31723  0.88708  1.0000
  C   C49       1.0  0.35706  0.35838  0.9186099999999999  1.0000
  C   C50       1.0  0.1586200000000001  0.9520200000000002  0.6151999999999999  1.0000
  C   C51       1.0  0.3171900000000002  0.8210300000000003  0.61253  1.0000
  C   C52       1.0  0.73348  0.00064  0.52654  1.0000
  C   C53       1.0  0.16311  0.56682  0.42491  1.0000
  C   C54       1.0  0.43329  0.8374900000000002  0.92449  1.0000
  C   C55       1.0  0.26678000000000013  0.2663300000000001  0.52662  1.0000
  C   C56       1.0  0.31605000000000005  0.4953500000000001  0.11205999999999999  1.0000
  C   C57       1.0  0.59639  0.16213  0.5792299999999999  1.0000
  C   C58       1.0  0.40528  0.56765  0.9231299999999998  1.0000
  C   C59       1.0  0.43441  0.59635  0.42292999999999986  1.0000
  C   C60       1.0  0.6423100000000002  0.9993400000000001  0.58305  1.0000
  C   C61       1.0  0.001090000000000029  0.73409  0.5264  1.0000
  C   C62       1.0  0.95041  0.15848  0.6152899999999999  1.0000
  C   C63       1.0  0.9990199999999999  0.64249  0.91786  1.0000
  C   C64       1.0  0.8371  0.43303  0.9231699999999998  1.0000
  C   C65       1.0  0.31736  0.4952800000000001  0.38891  1.0000
  C   C66       1.0  0.79215  0.841  0.8875999999999997  1.0000
  C   C67       1.0  0.8209000000000002  0.5042900000000002  0.3892099999999999  1.0000
  C   C68       1.0  0.35803  0.00047  0.08347999999999998  1.0000
  C   C69       1.0  0.9991800000000001  0.2661600000000001  0.02492  1.0000
  C   C70       1.0  0.49556  0.17779  0.8882699999999999  1.0000
  C   C71       1.0  0.17881000000000005  0.6820700000000002  0.3884299999999999  1.0000
  C   C72       1.0  0.04753999999999999  0.77407  0.75031  1.0000
  C   C73       1.0  0.84038  0.7920800000000002  0.8876599999999998  1.0000
  C   C74       1.0  0.84049  0.7920400000000002  0.61405  1.0000
  C   C75       1.0  0.49642  0.17959  0.61244  1.0000
  C   C76       1.0  0.79207  0.84078  0.61402  1.0000
  C   C77       1.0  0.83818  0.43321  0.57701  1.0000
  C   C78       1.0  0.95039  0.15871  0.8856  1.0000
  C   C79       1.0  0.84173  0.04975  0.11427  1.0000
  C   C80       1.0  0.0005100000000001165  0.7339300000000002  0.9744699999999997  1.0000
  C   C81       1.0  0.64288  0.9990200000000001  0.91902  1.0000
  C   C82       1.0  0.35726  0.35796  0.58308  1.0000
  C   C83       1.0  0.5033000000000002  0.8203000000000003  0.11272  1.0000
  C   C84       1.0  0.40554  0.56743  0.57722  1.0000
  C   C85       1.0  0.5964199999999998  0.16213  0.9216899999999999  1.0000
  C   C86       1.0  0.43334  0.8376600000000002  0.5774099999999999  1.0000
  C   C87       1.0  0.7350100000000002  0.9511300000000003  0.75049  1.0000
  C   C88       1.0  0.7839400000000001  0.7348000000000002  0.2505  1.0000
  C   C89       1.0  0.59569  0.43284  0.42434  1.0000
  C   C90       1.0  0.50395  0.82154  0.38814  1.0000
  C   C91       1.0  0.26726  0.26625  0.97514  1.0000
  C   C92       1.0  0.73418  0.00066  0.97552  1.0000
  C   C93       1.0  0.3179500000000001  0.8218200000000002  0.88882  1.0000
  C   C94       1.0  0.2656200000000001  0.9991700000000001  0.47545  1.0000
  C   C95       1.0  0.94988  0.73453  0.75035  1.0000
  C   C96       1.0  0.15641000000000008  0.95102  0.88873  1.0000
  C   C97       1.0  0.23002  0.95169  0.25047  1.0000
  C   C98       1.0  0.8217500000000002  0.31735000000000013  0.61303  1.0000
  C   C99       1.0  0.73304  0.73413  0.02631  1.0000
  C   C100      1.0  0.9518999999999999  0.79311  0.38876  1.0000
  C   C101      1.0  0.84154  0.048340000000000015  0.38804  1.0000
  C   C102      1.0  0.68417  0.50519  0.61344  1.0000
  C   C103      1.0  0.82078  0.50413  0.1113  1.0000
  C   C104      1.0  0.72445  0.77246  0.25047  1.0000
  C   C105      1.0  0.16241000000000005  0.59626  0.92024  1.0000
  C   C106      1.0  0.17781000000000005  0.68214  0.11123999999999999  1.0000
  C   C107      1.0  0.73383  0.73443  0.47562  1.0000
  C   C108      1.0  0.15916  0.20742000000000005  0.11145  1.0000
  N   N1        1.0  0.21464000000000005  0.4523000000000001  0.6354399999999999  1.0000
  N   N2        1.0  0.38528000000000007  0.3865900000000001  0.53151  1.0000
  N   N3        1.0  0.71682  0.71724  0.08134999999999999  1.0000
  N   N4        1.0  0.6753  0.67419  0.50671  1.0000
  N   N5        1.0  0.3526500000000001  0.8923700000000002  0.9188999999999999  1.0000
  N   N6        1.0  0.24060000000000012  0.7868000000000003  0.6391  1.0000
  N   N7        1.0  0.63563  0.41832  0.61056  1.0000
  N   N8        1.0  0.45896  0.35179000000000005  0.08312  1.0000
  N   N9        1.0  0.78291  0.4173000000000001  0.10958999999999998  1.0000
  N   N10       1.0  0.45243  0.21221000000000007  0.8633  1.0000
  N   N11       1.0  0.2828700000000001  0.9987700000000002  0.08218  1.0000
  N   N12       1.0  0.42726000000000003  0.52492  0.062349999999999996  1.0000
  N   N13       1.0  0.4189700000000001  0.6348200000000003  0.89022  1.0000
  N   N14       1.0  0.8925  0.53958  0.08247  1.0000
  N   N15       1.0  0.32571  0.0010500000000000004  0.50637  1.0000
  N   N16       1.0  0.10829  0.64755  0.41842999999999997  1.0000
  N   N17       1.0  0.09675999999999994  0.52449  0.9365199999999999  1.0000
  N   N18       1.0  0.7177199999999999  0.00014  0.92036  1.0000
  N   N19       1.0  0.5817500000000001  0.36559000000000014  0.3914  1.0000
  N   N20       1.0  0.0013100000000000444  0.3860200000000001  0.4704999999999999  1.0000
  N   N21       1.0  0.63308  0.21573  0.11096999999999997  1.0000
  N   N22       1.0  0.90189  0.42511  0.55985  1.0000
  N   N23       1.0  0.9011500000000001  0.42526  0.93998  1.0000
  N   N24       1.0  0.7174  0.0009300000000000003  0.58167  1.0000
  N   N25       1.0  0.09693000000000002  0.52442  0.5632199999999999  1.0000
  N   N26       1.0  0.39771  0.00465  0.37018999999999996  1.0000
  N   N27       1.0  0.57424  0.09859000000000002  0.44173999999999997  1.0000
  N   N28       1.0  0.32688  0.0008400000000000001  0.99619  1.0000
  N   N29       1.0  0.41878  0.63488  0.60971  1.0000
  N   N30       1.0  0.21230999999999994  0.7587  0.13809  1.0000
  N   N31       1.0  0.09912  0.57464  0.44197  1.0000
  N   N32       1.0  0.45242  0.23940000000000006  0.36356999999999995  1.0000
  N   N33       1.0  0.99905  0.67379  0.00526  1.0000
  N   N34       1.0  0.36451  0.58228  0.10958999999999998  1.0000
  N   N35       1.0  0.45392  0.21443  0.6377399999999999  1.0000
  N   N36       1.0  0.10773000000000002  0.64795  0.0809  1.0000
  N   N37       1.0  0.63434  0.4183500000000001  0.89051  1.0000
  N   N38       1.0  0.2414300000000001  0.7878100000000002  0.8620999999999999  1.0000
  N   N39       1.0  0.52492  0.0973  0.9392299999999998  1.0000
  N   N40       1.0  0.9993400000000001  0.28282  0.07999  1.0000
  N   N41       1.0  0.00503999999999999  0.39909  0.12993  1.0000
  N   N42       1.0  0.67408  0.6741700000000003  0.9952999999999997  1.0000
  N   N43       1.0  0.61463  0.61372  0.030909999999999993  1.0000
  N   N44       1.0  0.5392000000000001  0.8923700000000002  0.418  1.0000
  N   N45       1.0  0.38502  0.38704  0.9701899999999999  1.0000
  N   N46       1.0  0.21484000000000006  0.45251  0.86436  1.0000
  N   N47       1.0  0.9982899999999999  0.6138200000000003  0.96936  1.0000
  N   N48       1.0  0.54131  0.6477100000000002  0.5847499999999999  1.0000
  N   N49       1.0  0.6013  0.99478  0.63191  1.0000
  N   N50       1.0  0.9995400000000001  0.28261  0.41999  1.0000
  N   N51       1.0  0.45968  0.3519500000000001  0.41857  1.0000
  N   N52       1.0  0.7586400000000001  0.21217000000000005  0.3619699999999999  1.0000
  N   N53       1.0  0.23804000000000006  0.45206000000000013  0.13594  1.0000
  N   N54       1.0  0.5457300000000003  0.7854000000000002  0.13785  1.0000
  N   N55       1.0  0.52451  0.09814  0.56146  1.0000
  N   N56       1.0  0.6065400000000001  0.5999500000000002  0.13111  1.0000
  N   N57       1.0  0.64859  0.10874000000000003  0.08251999999999998  1.0000
  N   N58       1.0  0.7621599999999998  0.54809  0.63717  1.0000
  N   N59       1.0  0.2129000000000001  0.7584700000000002  0.36144  1.0000
  N   N60       1.0  0.61456  0.9987200000000002  0.97057  1.0000
  N   N61       1.0  0.35142  0.89122  0.58214  1.0000
  N   N62       1.0  0.61572  0.6138  0.47109  1.0000
  N   N63       1.0  0.39887  0.00497  0.13232999999999998  1.0000
  N   N64       1.0  0.10695999999999999  0.4598  0.5841299999999999  1.0000
  N   N65       1.0  0.78337  0.36619  0.89003  1.0000
  N   N66       1.0  0.90212  0.47495  0.06099  1.0000
  N   N67       1.0  0.99427  0.60133  0.8689899999999999  1.0000
  N   N68       1.0  0.32569  0.32653  0.49574  1.0000
  N   N69       1.0  0.67435  0.9995000000000002  0.00639  1.0000
  N   N70       1.0  0.57288  0.47606  0.56383  1.0000
  N   N71       1.0  0.23960999999999996  0.45233  0.36471  1.0000
  N   N72       1.0  0.00032999999999999864  0.67431  0.49548999999999993  1.0000
  N   N73       1.0  0.8923399999999999  0.3519000000000001  0.58311  1.0000
  N   N74       1.0  0.47537000000000024  0.9017500000000003  0.061699999999999984  1.0000
  N   N75       1.0  0.78699  0.24061000000000005  0.63957  1.0000
  N   N76       1.0  0.3937  0.39887  0.63199  1.0000
  N   N77       1.0  0.5482  0.7608600000000001  0.8620899999999998  1.0000
  N   N78       1.0  0.2172100000000001  0.5821300000000003  0.6105299999999999  1.0000
  N   N79       1.0  0.0002400000000000605  0.3256900000000001  0.5061399999999999  1.0000
  N   N80       1.0  0.35407000000000005  0.4599000000000001  0.41719  1.0000
  N   N81       1.0  0.28333  0.28291  0.9200499999999998  1.0000
  N   N82       1.0  0.28173  0.9986700000000001  0.42033  1.0000
  N   N83       1.0  0.67331  0.99883  0.49572  1.0000
  N   N84       1.0  0.78607  0.54704  0.13565  1.0000
  N   N85       1.0  0.52297  0.42542  0.06010999999999999  1.0000
  N   N86       1.0  0.4748700000000001  0.9020300000000002  0.43953  1.0000
  N   N87       1.0  0.58218  0.21572  0.8895599999999999  1.0000
  N   N88       1.0  0.64612  0.54072  0.9159  1.0000
  N   N89       1.0  0.4606199999999999  0.10860000000000003  0.58279  1.0000
  N   N90       1.0  0.47736  0.57429  0.56141  1.0000
  N   N91       1.0  0.21643  0.63332  0.39142  1.0000
  N   N92       1.0  0.42491999999999996  0.9010200000000003  0.55955  1.0000
  N   N93       1.0  0.5751  0.09878  0.05984  1.0000
  N   N94       1.0  0.00029000000000000466  0.71755  0.91936  1.0000
  N   N95       1.0  0.00013999999999997893  0.71731  0.58149  1.0000
  N   N96       1.0  0.78306  0.4174400000000001  0.39063  1.0000
  N   N97       1.0  0.38682  0.0016400000000000004  0.03191  1.0000
  N   N98       1.0  0.90231  0.47493000000000013  0.43914999999999993  1.0000
  N   N99       1.0  0.41681  0.78355  0.11156999999999997  1.0000
  N   N100      1.0  0.36668  0.78416  0.8911599999999998  1.0000
  N   N101      1.0  0.3666699999999999  0.78417  0.61071  1.0000
  N   N102      1.0  0.3661600000000001  0.5821700000000002  0.39131  1.0000
  N   N103      1.0  0.89262  0.5396500000000002  0.41803  1.0000
  N   N104      1.0  0.4256300000000001  0.9015500000000002  0.94193  1.0000
  N   N105      1.0  0.09819000000000006  0.57461  0.05775  1.0000
  N   N106      1.0  0.005639999999999997  0.39905  0.37013999999999997  1.0000
  N   N107      1.0  0.42818  0.52465  0.43915999999999994  1.0000
  N   N108      1.0  0.47684  0.57478  0.9398  1.0000
  N   N109      1.0  0.46044000000000007  0.10656  0.91761  1.0000
  N   N110      1.0  0.53925  0.89134  0.08312  1.0000
  N   N111      1.0  0.6469  0.54073  0.58592  1.0000
  N   N112      1.0  0.58295  0.21636000000000005  0.6113099999999999  1.0000
  N   N113      1.0  0.64745  0.10790000000000002  0.41892  1.0000
  N   N114      1.0  0.38547  0.0015  0.47054999999999997  1.0000
  N   N115      1.0  0.45252  0.23865  0.13684  1.0000
  N   N116      1.0  0.0010800000000000549  0.38618000000000013  0.02953  1.0000
  N   N117      1.0  0.5241400000000002  0.4254900000000001  0.4414299999999999  1.0000
  N   N118      1.0  0.60173  0.99429  0.8702899999999999  1.0000
  N   N119      1.0  0.63326  0.21575000000000005  0.39077  1.0000
  N   N120      1.0  0.28317  0.28276  0.58168  1.0000
  N   N121      1.0  0.41741  0.78412  0.38925999999999994  1.0000
  N   N122      1.0  0.35319000000000006  0.4600300000000001  0.08416  1.0000
  N   N123      1.0  0.00039000000000006206  0.32601000000000013  0.9938699999999998  1.0000
  N   N124      1.0  0.58143  0.3651  0.10860999999999998  1.0000
  N   N125      1.0  0.21731  0.58224  0.8894199999999998  1.0000
  N   N126      1.0  0.54757  0.7610900000000003  0.63822  1.0000
  N   N127      1.0  0.39321  0.39922  0.86962  1.0000
  N   N128      1.0  0.7862399999999999  0.24048000000000005  0.8604999999999998  1.0000
  N   N129      1.0  0.21464  0.63272  0.10886  1.0000
  N   N130      1.0  0.71714  0.7177700000000002  0.4205799999999999  1.0000
  N   N131      1.0  0.8916299999999999  0.35203  0.9166999999999998  1.0000
  N   N132      1.0  0.57191  0.4760900000000001  0.9378899999999999  1.0000
  N   N133      1.0  0.99415  0.60092  0.63154  1.0000
  N   N134      1.0  0.78477  0.36663  0.6103699999999999  1.0000
  N   N135      1.0  0.10685000000000007  0.45989000000000013  0.9155699999999999  1.0000
  N   N136      1.0  0.32591  0.32663  0.00601  1.0000
  N   N137      1.0  0.6135300000000001  0.9982400000000001  0.53155  1.0000
  N   N138      1.0  0.75914  0.21357  0.1395  1.0000
  N   N139      1.0  0.7611899999999999  0.54804  0.86424  1.0000
  N   N140      1.0  0.78617  0.5473300000000002  0.3652099999999999  1.0000
  N   N141      1.0  0.60662  0.60106  0.3707299999999999  1.0000
  N   N142      1.0  0.5467700000000002  0.7871900000000002  0.3626499999999999  1.0000
  N   N143      1.0  0.54117  0.64812  0.91661  1.0000
  N   N144      1.0  0.9992199999999999  0.61412  0.53124  1.0000
  Cl  Cl1       1.0  0.34767000000000003  0.9986400000000001  0.81611  1.0000
  Cl  Cl2       1.0  0.9988200000000002  0.9993300000000002  0.75033  1.0000
  Cl  Cl3       1.0  0.3659  0.36481000000000013  0.18773  1.0000
  Cl  Cl4       1.0  0.99842  0.3620800000000001  0.6874  1.0000
  Cl  Cl5       1.0  0.63833  0.00045  0.18625999999999998  1.0000
  Cl  Cl6       1.0  0.6319400000000001  0.6332500000000002  0.69003  1.0000
  Cl  Cl7       1.0  0.0014799999999999705  0.63747  0.18565  1.0000
  Cl  Cl8       1.0  0.99929  0.99848  7e-05  1.0000
  Cl  Cl9       1.0  0.36494  0.36218  0.314  1.0000
  Cl  Cl10      1.0  0.36067  0.00052  0.68592  1.0000
  Cl  Cl11      1.0  0.00032000000000000013  0.63909  0.31489999999999996  1.0000
  Cl  Cl12      1.0  0.6347300000000002  0.6353900000000002  0.8119  1.0000
  Cl  Cl13      1.0  0.64459  0.9998  0.31552  1.0000
  Cl  Cl14      1.0  0.99809  0.3617900000000001  0.81279  1.0000
  Cl  Cl15      1.0  0.99936  0.9998  0.50166  1.0000
  Cl  Cl16      1.0  0.99925  0.0007300000000000001  0.25015999999999994  1.0000
  O   O1        1.0  0.2792  0.08508  0.29765  1.0000
  O   O2        1.0  0.70026  0.78343  0.29754  1.0000
  O   O3        1.0  0.28413000000000005  0.19714000000000007  0.10035999999999999  1.0000
  O   O4        1.0  0.83588  0.91641  0.37205  1.0000
  O   O5        1.0  0.7166000000000002  0.9141200000000003  0.10029  1.0000
  O   O6        1.0  0.7149  0.8007  0.6029  1.0000
  O   O7        1.0  0.9162200000000003  0.08099000000000003  0.87059  1.0000
  O   O8        1.0  0.08372000000000016  0.9187900000000002  0.13062  1.0000
  O   O9        1.0  0.19209000000000015  0.9122000000000002  0.90491  1.0000
  O   O10       1.0  0.28384  0.19683000000000006  0.40255  1.0000
  O   O11       1.0  0.0804  0.16325  0.37844  1.0000
  O   O12       1.0  0.83671  0.9196600000000003  0.87591  1.0000
  O   O13       1.0  0.16255999999999998  0.07971  0.12438  1.0000
  O   O14       1.0  0.16214  0.0787  0.3799  1.0000
  O   O15       1.0  0.19268  0.27767  0.79725  1.0000
  O   O16       1.0  0.19245  0.27735  0.70357  1.0000
  O   O17       1.0  0.83663  0.9198000000000002  0.62456  1.0000
  O   O18       1.0  0.19646  0.91445  0.6007  1.0000
  O   O19       1.0  0.9162499999999999  0.08093000000000003  0.63048  1.0000
  O   O20       1.0  0.70181  0.78507  0.20325  1.0000
  O   O21       1.0  0.21987000000000015  0.9163400000000003  0.29742  1.0000
  O   O22       1.0  0.9195199999999999  0.08316  0.37391  1.0000
  O   O23       1.0  0.71984  0.9146900000000002  0.70361  1.0000
  O   O24       1.0  0.9146400000000001  0.7169400000000001  0.40264  1.0000
  O   O25       1.0  0.80373  0.7183000000000003  0.20359  1.0000
  O   O26       1.0  0.08311  0.78644  0.79733  1.0000
  O   O27       1.0  0.91417  0.71641  0.10014999999999999  1.0000
  O   O28       1.0  0.29969  0.21676000000000006  0.7976999999999997  1.0000
  O   O29       1.0  0.08518999999999997  0.28379  0.60047  1.0000
  O   O30       1.0  0.80015  0.71471  0.60289  1.0000
  O   O31       1.0  0.28304  0.08829  0.60039  1.0000
  O   O32       1.0  0.9125  0.19664  0.8993399999999999  1.0000
  O   O33       1.0  0.27996  0.08558000000000003  0.20398  1.0000
  O   O34       1.0  0.78273  0.08369  0.70322  1.0000
  O   O35       1.0  0.08248  0.1626  0.87879  1.0000
  O   O36       1.0  0.9136600000000002  0.7184700000000003  0.79726  1.0000
  O   O37       1.0  0.80389  0.08751  0.10032  1.0000
  O   O38       1.0  0.16459  0.08407  0.6311799999999999  1.0000
  O   O39       1.0  0.9190500000000003  0.8363100000000002  0.8765599999999998  1.0000
  O   O40       1.0  0.07954  0.91749  0.8721399999999999  1.0000
  O   O41       1.0  0.80379  0.08585  0.40278999999999987  1.0000
  O   O42       1.0  0.08637000000000007  0.2803900000000001  0.20294  1.0000
  O   O43       1.0  0.9197299999999999  0.08427000000000003  0.1282  1.0000
  O   O44       1.0  0.08709000000000013  0.8036900000000002  0.10007  1.0000
  O   O45       1.0  0.71704  0.91177  0.4024  1.0000
  O   O46       1.0  0.91719  0.21295  0.2972  1.0000
  O   O47       1.0  0.08018  0.16326000000000004  0.1219  1.0000
  O   O48       1.0  0.8357500000000002  0.9170500000000003  0.12803  1.0000
  O   O49       1.0  0.19952  0.28468  0.10009999999999997  1.0000
  O   O50       1.0  0.9175099999999999  0.21637000000000006  0.20296  1.0000
  O   O51       1.0  0.08045000000000016  0.9172900000000003  0.6288  1.0000
  O   O52       1.0  0.91936  0.8364900000000002  0.6246  1.0000
  O   O53       1.0  0.08642  0.2807  0.29688  1.0000
  O   O54       1.0  0.16379  0.08395  0.8734699999999999  1.0000
  O   O55       1.0  0.9175099999999999  0.8372700000000002  0.12465999999999998  1.0000
  O   O56       1.0  0.71535  0.80167  0.89974  1.0000
  O   O57       1.0  0.08257  0.16218  0.6210199999999999  1.0000
  O   O58       1.0  0.78369  0.08424  0.7975  1.0000
  O   O59       1.0  0.80492  0.71981  0.29743  1.0000
  O   O60       1.0  0.08338999999999991  0.91841  0.36902  1.0000
  O   O61       1.0  0.91256  0.19680000000000006  0.60261  1.0000
  O   O62       1.0  0.28103  0.08678000000000002  0.9051399999999997  1.0000
  O   O63       1.0  0.19981999999999997  0.28487  0.39988999999999997  1.0000
  O   O64       1.0  0.8002600000000002  0.7149800000000002  0.8995599999999999  1.0000
  O   O65       1.0  0.08536  0.28418  0.89994  1.0000
  O   O66       1.0  0.30334  0.22095  0.70341  1.0000
  O   O67       1.0  0.08302000000000007  0.7867500000000002  0.7031299999999999  1.0000
  O   O68       1.0  0.9173699999999999  0.83734  0.3780699999999999  1.0000
  O   O69       1.0  0.7196900000000002  0.9147700000000002  0.79732  1.0000
  O   O70       1.0  0.91362  0.71807  0.70341  1.0000
  O   O71       1.0  0.21879  0.91688  0.20310999999999996  1.0000
  O   O72       1.0  0.08740999999999993  0.80382  0.39975999999999995  1.0000
