data_image0
_chemical_formula_structural       Zn6H144C204N12O36
_chemical_formula_sum              "Zn6 H144 C204 N12 O36"
_cell_length_a       11.17605
_cell_length_b       11.17608
_cell_length_c       44.31198
_cell_angle_alpha    90.0
_cell_angle_beta     90.0
_cell_angle_gamma    120.04281

_space_group_name_H-M_alt    "P 1"
_space_group_IT_number       1

loop_
  _space_group_symop_operation_xyz
  'x, y, z'

loop_
  _atom_site_type_symbol
  _atom_site_label
  _atom_site_symmetry_multiplicity
  _atom_site_fract_x
  _atom_site_fract_y
  _atom_site_fract_z
  _atom_site_occupancy
  Zn  Zn1       1.0  0.52087  0.042120000000000005  0.41704  1.0000
  Zn  Zn2       1.0  0.52103  0.47894  0.74997  1.0000
  Zn  Zn3       1.0  0.95788  0.47913  0.08296  1.0000
  Zn  Zn4       1.0  0.47914  0.95787  0.91704  1.0000
  Zn  Zn5       1.0  0.47896999999999995  0.52104  0.24999  1.0000
  Zn  Zn6       1.0  0.04213000000000002  0.52087  0.58296  1.0000
  H   H1        1.0  0.36060999999999993  0.15674  0.23281  1.0000
  H   H2        1.0  0.11879  0.58391  0.27439  1.0000
  H   H3        1.0  0.43043999999999993  0.09193000000000001  0.33153  1.0000
  H   H4        1.0  0.42334  0.19556  0.28281  1.0000
  H   H5        1.0  0.53506  0.24951  0.37329  1.0000
  H   H6        1.0  0.21266000000000002  0.24046  0.44982  1.0000
  H   H7        1.0  0.32126  0.09258  0.45331  1.0000
  H   H8        1.0  0.24017000000000002  0.6260100000000001  0.36783  1.0000
  H   H9        1.0  0.43345  0.40041  0.36593999999999993  1.0000
  H   H10       1.0  0.12377000000000002  0.47663000000000005  0.32286  1.0000
  H   H11       1.0  0.23164000000000007  0.43746000000000007  0.38188999999999995  1.0000
  H   H12       1.0  0.36738  0.54514  0.40553000000000006  1.0000
  H   H13       1.0  0.79627  0.6395  0.56617  1.0000
  H   H14       1.0  0.46552  0.8813  0.60771  1.0000
  H   H15       1.0  0.66179  0.56987  0.66488  1.0000
  H   H16       1.0  0.7724300000000001  0.57695  0.61617  1.0000
  H   H17       1.0  0.71488  0.46513000000000004  0.7064  1.0000
  H   H18       1.0  0.027660000000000084  0.7865800000000001  0.78316  1.0000
  H   H19       1.0  0.771  0.67796  0.78653  1.0000
  H   H20       1.0  0.38581  0.75974  0.70114  1.0000
  H   H21       1.0  0.96749  0.5666400000000001  0.6992  1.0000
  H   H22       1.0  0.35303  0.87624  0.65616  1.0000
  H   H23       1.0  0.2064799999999999  0.7679  0.71533  1.0000
  H   H24       1.0  0.17819  0.63255  0.73909  1.0000
  H   H25       1.0  0.84323  0.20369  0.89946  1.0000
  H   H26       1.0  0.41624  0.53461  0.94097  1.0000
  H   H27       1.0  0.90844  0.33835  0.99818  1.0000
  H   H28       1.0  0.8046199999999999  0.22756  0.94948  1.0000
  H   H29       1.0  0.7494199999999999  0.28411  0.03947  1.0000
  H   H30       1.0  0.75929  0.97335  0.11656  1.0000
  H   H31       1.0  0.90691  0.23016  0.11972  1.0000
  H   H32       1.0  0.37451  0.61385  0.03445  1.0000
  H   H33       1.0  0.59866  0.03129  0.03251  1.0000
  H   H34       1.0  0.52383  0.64681  0.98944  1.0000
  H   H35       1.0  0.56128  0.79325  0.04876  1.0000
  H   H36       1.0  0.45432999999999996  0.82143  0.07259  1.0000
  H   H37       1.0  0.7963100000000001  0.15677  0.60054  1.0000
  H   H38       1.0  0.46539  0.58377  0.55903  1.0000
  H   H39       1.0  0.66165  0.09156  0.50182  1.0000
  H   H40       1.0  0.77244  0.19538  0.55052  1.0000
  H   H41       1.0  0.71589  0.25058  0.46052999999999994  1.0000
  H   H42       1.0  0.02665  0.24071  0.38344  1.0000
  H   H43       1.0  0.76984  0.09309  0.38027999999999995  1.0000
  H   H44       1.0  0.38615  0.62549  0.46555  1.0000
  H   H45       1.0  0.9687200000000002  0.40133  0.46749  1.0000
  H   H46       1.0  0.35319000000000006  0.47618  0.51056  1.0000
  H   H47       1.0  0.20675000000000004  0.4387200000000001  0.45124  1.0000
  H   H48       1.0  0.17856999999999995  0.54567  0.42740999999999996  1.0000
  H   H49       1.0  0.84325  0.63939  0.26719  1.0000
  H   H50       1.0  0.41609  0.88121  0.22561  1.0000
  H   H51       1.0  0.9080699999999999  0.56956  0.16847  1.0000
  H   H52       1.0  0.8044400000000002  0.57665  0.21718999999999997  1.0000
  H   H53       1.0  0.75049  0.46494  0.12671  1.0000
  H   H54       1.0  0.75955  0.78734  0.05018  1.0000
  H   H55       1.0  0.90742  0.67874  0.04669  1.0000
  H   H56       1.0  0.37399000000000004  0.7598300000000001  0.13217  1.0000
  H   H57       1.0  0.59959  0.56655  0.13406  1.0000
  H   H58       1.0  0.5233800000000001  0.8762300000000001  0.17714  1.0000
  H   H59       1.0  0.56254  0.76836  0.11811  1.0000
  H   H60       1.0  0.45485999999999993  0.63263  0.09447  1.0000
  H   H61       1.0  0.3605  0.20373  0.93383  1.0000
  H   H62       1.0  0.1187  0.53448  0.89229  1.0000
  H   H63       1.0  0.43013999999999997  0.33821  0.83512  1.0000
  H   H64       1.0  0.42305  0.22757  0.88383  1.0000
  H   H65       1.0  0.53487  0.28514  0.7936  1.0000
  H   H66       1.0  0.21340000000000003  0.9723100000000001  0.71684  1.0000
  H   H67       1.0  0.32202  0.22896000000000002  0.71347  1.0000
  H   H68       1.0  0.24027000000000004  0.61418  0.79886  1.0000
  H   H69       1.0  0.43337  0.03254  0.8008000000000001  1.0000
  H   H70       1.0  0.12377000000000002  0.64696  0.84384  1.0000
  H   H71       1.0  0.23210000000000006  0.7935200000000002  0.7846799999999999  1.0000
  H   H72       1.0  0.36745  0.82181  0.76091  1.0000
  H   H73       1.0  0.6394  0.84325  0.73281  1.0000
  H   H74       1.0  0.8812199999999999  0.41608000000000006  0.77439  1.0000
  H   H75       1.0  0.56956  0.90806  0.83153  1.0000
  H   H76       1.0  0.57667  0.80443  0.78281  1.0000
  H   H77       1.0  0.46493999999999996  0.75048  0.87329  1.0000
  H   H78       1.0  0.7873500000000002  0.7595300000000001  0.9498199999999999  1.0000
  H   H79       1.0  0.6787499999999999  0.90741  0.95331  1.0000
  H   H80       1.0  0.75983  0.37398  0.8678300000000001  1.0000
  H   H81       1.0  0.56656  0.59958  0.8659400000000002  1.0000
  H   H82       1.0  0.87624  0.52336  0.82286  1.0000
  H   H83       1.0  0.76837  0.56254  0.88189  1.0000
  H   H84       1.0  0.6326300000000001  0.4548600000000001  0.90553  1.0000
  H   H85       1.0  0.20374  0.36049  0.06617  1.0000
  H   H86       1.0  0.53448  0.11869  0.10771  1.0000
  H   H87       1.0  0.3382200000000001  0.43012000000000006  0.16488  1.0000
  H   H88       1.0  0.22757  0.42304  0.11617  1.0000
  H   H89       1.0  0.28513  0.53486  0.2064  1.0000
  H   H90       1.0  0.9723399999999999  0.21341  0.28316  1.0000
  H   H91       1.0  0.229  0.32203  0.28653  1.0000
  H   H92       1.0  0.61419  0.24025  0.20114  1.0000
  H   H93       1.0  0.032529999999999996  0.43336  0.19919999999999996  1.0000
  H   H94       1.0  0.64698  0.12375000000000003  0.15616  1.0000
  H   H95       1.0  0.7935299999999998  0.23209  0.21531999999999998  1.0000
  H   H96       1.0  0.8218100000000002  0.36744  0.23909  1.0000
  H   H97       1.0  0.15678000000000003  0.79631  0.39946  1.0000
  H   H98       1.0  0.58377  0.46538  0.4409699999999999  1.0000
  H   H99       1.0  0.09157000000000001  0.66164  0.49818000000000007  1.0000
  H   H100      1.0  0.19538999999999992  0.77243  0.44948000000000005  1.0000
  H   H101      1.0  0.25059000000000003  0.7158900000000001  0.53947  1.0000
  H   H102      1.0  0.24072  0.026640000000000004  0.61656  1.0000
  H   H103      1.0  0.09309999999999992  0.76983  0.61972  1.0000
  H   H104      1.0  0.6255  0.38614  0.53445  1.0000
  H   H105      1.0  0.40134  0.96871  0.53251  1.0000
  H   H106      1.0  0.47618  0.35318  0.48944000000000004  1.0000
  H   H107      1.0  0.43872  0.20674  0.54876  1.0000
  H   H108      1.0  0.54567  0.17856  0.57259  1.0000
  H   H109      1.0  0.20368999999999993  0.84322  0.10053999999999999  1.0000
  H   H110      1.0  0.53462  0.41622  0.05903  1.0000
  H   H111      1.0  0.33835000000000004  0.9084400000000001  0.00182  1.0000
  H   H112      1.0  0.22756999999999997  0.80461  0.05052000000000001  1.0000
  H   H113      1.0  0.2841099999999999  0.74941  0.96053  1.0000
  H   H114      1.0  0.9733599999999999  0.75928  0.88344  1.0000
  H   H115      1.0  0.23016999999999999  0.9069000000000002  0.88028  1.0000
  H   H116      1.0  0.6138600000000001  0.37450000000000006  0.96555  1.0000
  H   H117      1.0  0.03128999999999999  0.59866  0.9675000000000001  1.0000
  H   H118      1.0  0.64681  0.52382  0.01056  1.0000
  H   H119      1.0  0.79326  0.56128  0.9512399999999999  1.0000
  H   H120      1.0  0.82144  0.45433000000000007  0.9274099999999998  1.0000
  H   H121      1.0  0.15675999999999995  0.36061  0.76719  1.0000
  H   H122      1.0  0.58392  0.11878  0.7256099999999999  1.0000
  H   H123      1.0  0.09194  0.43044  0.66847  1.0000
  H   H124      1.0  0.19557  0.42334  0.71719  1.0000
  H   H125      1.0  0.24951000000000004  0.5350500000000001  0.62671  1.0000
  H   H126      1.0  0.24046  0.21265  0.55018  1.0000
  H   H127      1.0  0.09259  0.32125  0.54669  1.0000
  H   H128      1.0  0.62602  0.24017000000000002  0.63218  1.0000
  H   H129      1.0  0.40041000000000004  0.43344000000000005  0.63406  1.0000
  H   H130      1.0  0.47663  0.12376  0.67714  1.0000
  H   H131      1.0  0.43746  0.23163  0.61811  1.0000
  H   H132      1.0  0.54514  0.36737  0.59447  1.0000
  H   H133      1.0  0.63951  0.79626  0.43383  1.0000
  H   H134      1.0  0.88131  0.46551000000000003  0.39228999999999997  1.0000
  H   H135      1.0  0.56987  0.66178  0.33512  1.0000
  H   H136      1.0  0.5769600000000001  0.7724200000000001  0.38383  1.0000
  H   H137      1.0  0.46513000000000004  0.7148600000000002  0.2936  1.0000
  H   H138      1.0  0.7866  0.027670000000000004  0.21684000000000003  1.0000
  H   H139      1.0  0.67798  0.77102  0.21347  1.0000
  H   H140      1.0  0.75974  0.38581  0.29886  1.0000
  H   H141      1.0  0.56664  0.9674600000000001  0.3008  1.0000
  H   H142      1.0  0.87624  0.35303  0.34384  1.0000
  H   H143      1.0  0.76791  0.20647  0.28468  1.0000
  H   H144      1.0  0.63255  0.17818  0.26091  1.0000
  C   C1        1.0  0.23551000000000005  0.79395  0.29076  1.0000
  C   C2        1.0  0.30106  0.99901  0.26007  1.0000
  C   C3        1.0  0.17074999999999996  0.64797  0.29391  1.0000
  C   C4        1.0  0.30971  0.8149300000000002  0.34391  1.0000
  C   C5        1.0  0.30916999999999994  0.87999  0.31615  1.0000
  C   C6        1.0  0.23042999999999997  0.85486  0.26286  1.0000
  C   C7        1.0  0.3754  0.025710000000000004  0.31253  1.0000
  C   C8        1.0  0.37272  0.08368  0.28527  1.0000
  C   C9        1.0  0.46225  0.24985  0.38957  1.0000
  C   C10       1.0  0.384  0.89484  0.37134  1.0000
  C   C11       1.0  0.31681  0.33709  0.40782  1.0000
  C   C12       1.0  0.28366  0.24652  0.43229  1.0000
  C   C13       1.0  0.34338  0.16326  0.43449  1.0000
  C   C14       1.0  0.24031  0.67193  0.34623  1.0000
  C   C15       1.0  0.40503  0.33384  0.3857  1.0000
  C   C16       1.0  0.17352999999999993  0.58847  0.32097  1.0000
  C   C17       1.0  0.27185  0.44338  0.40484  1.0000
  C   C18       1.0  0.55863  0.76456  0.62411  1.0000
  C   C19       1.0  0.6980900000000001  0.6990000000000001  0.59342  1.0000
  C   C20       1.0  0.47751000000000005  0.8293400000000001  0.62723  1.0000
  C   C21       1.0  0.50529  0.69046  0.67722  1.0000
  C   C22       1.0  0.57092  0.6909  0.64949  1.0000
  C   C23       1.0  0.62465  0.76961  0.59621  1.0000
  C   C24       1.0  0.65038  0.62471  0.64588  1.0000
  C   C25       1.0  0.71109  0.62742  0.61862  1.0000
  C   C26       1.0  0.78789  0.53773  0.72274  1.0000
  C   C27       1.0  0.51078  0.6162  0.70464  1.0000
  C   C28       1.0  0.020530000000000003  0.68288  0.74114  1.0000
  C   C29       1.0  0.9628399999999999  0.71578  0.76558  1.0000
  C   C30       1.0  0.8197400000000001  0.65606  0.76771  1.0000
  C   C31       1.0  0.43177999999999994  0.75985  0.67955  1.0000
  C   C32       1.0  0.92924  0.59492  0.71895  1.0000
  C   C33       1.0  0.4151599999999999  0.8266  0.65428  1.0000
  C   C34       1.0  0.17193000000000008  0.72797  0.73828  1.0000
  C   C35       1.0  0.20629  0.44150000000000006  0.95738  1.0000
  C   C36       1.0  0.0010600000000000303  0.30196000000000006  0.92671  1.0000
  C   C37       1.0  0.35231  0.5226100000000001  0.96051  1.0000
  C   C38       1.0  0.18561000000000002  0.49477000000000004  0.01051  1.0000
  C   C39       1.0  0.12037000000000006  0.4292000000000001  0.9827599999999999  1.0000
  C   C40       1.0  0.14523000000000005  0.3754300000000001  0.92949  1.0000
  C   C41       1.0  0.97463  0.34966  0.9791700000000001  1.0000
  C   C42       1.0  0.9165199999999999  0.28892  0.9519299999999999  1.0000
  C   C43       1.0  0.74933  0.21159000000000003  0.05589  1.0000
  C   C44       1.0  0.10584000000000003  0.48928000000000005  0.0379  1.0000
  C   C45       1.0  0.66236  0.97938  0.07449  1.0000
  C   C46       1.0  0.75305  0.0377  0.09892  1.0000
  C   C47       1.0  0.83622  0.18087000000000003  0.10092000000000001  1.0000
  C   C48       1.0  0.3286200000000001  0.5681600000000001  0.01284  1.0000
  C   C49       1.0  0.66538  0.07014  0.05223  1.0000
  C   C50       1.0  0.41196000000000005  0.5848100000000002  0.98757  1.0000
  C   C51       1.0  0.5561200000000001  0.8279000000000001  0.07171  1.0000
  C   C52       1.0  0.5585  0.79371  0.54262  1.0000
  C   C53       1.0  0.69804  0.99893  0.57329  1.0000
  C   C54       1.0  0.4773900000000001  0.6477000000000002  0.5395  1.0000
  C   C55       1.0  0.50523  0.81438  0.48949  1.0000
  C   C56       1.0  0.5708  0.87963  0.51724  1.0000
  C   C57       1.0  0.62457  0.85477  0.57051  1.0000
  C   C58       1.0  0.65033  0.02538  0.52083  1.0000
  C   C59       1.0  0.71108  0.08349  0.54808  1.0000
  C   C60       1.0  0.7884100000000002  0.25066  0.44410999999999995  1.0000
  C   C61       1.0  0.51072  0.89416  0.46209999999999996  1.0000
  C   C62       1.0  0.020610000000000062  0.3376400000000001  0.42550999999999994  1.0000
  C   C63       1.0  0.96231  0.24695  0.40109  1.0000
  C   C64       1.0  0.81913  0.16378  0.39908  1.0000
  C   C65       1.0  0.43184000000000006  0.67139  0.48716000000000004  1.0000
  C   C66       1.0  0.92987  0.33463000000000004  0.44778  1.0000
  C   C67       1.0  0.41518  0.58804  0.51243  1.0000
  C   C68       1.0  0.17210000000000003  0.44388000000000005  0.42829  1.0000
  C   C69       1.0  0.20604000000000006  0.7644800000000002  0.20924  1.0000
  C   C70       1.0  0.0009799999999999891  0.69893  0.23993000000000003  1.0000
  C   C71       1.0  0.35203  0.8292500000000002  0.20609  1.0000
  C   C72       1.0  0.18506  0.69028  0.15609  1.0000
  C   C73       1.0  0.12000999999999999  0.69084  0.18385  1.0000
  C   C74       1.0  0.14514000000000005  0.76957  0.23714  1.0000
  C   C75       1.0  0.97429  0.6246  0.18747  1.0000
  C   C76       1.0  0.91632  0.62727  0.21473  1.0000
  C   C77       1.0  0.7501500000000001  0.5377500000000001  0.11044  1.0000
  C   C78       1.0  0.10515  0.616  0.12866  1.0000
  C   C79       1.0  0.66291  0.68319  0.09219  1.0000
  C   C80       1.0  0.75348  0.71634  0.06771  1.0000
  C   C81       1.0  0.83674  0.65661  0.06552  1.0000
  C   C82       1.0  0.32807  0.75969  0.15377  1.0000
  C   C83       1.0  0.6661600000000001  0.59497  0.1143  1.0000
  C   C84       1.0  0.41151999999999994  0.82647  0.17904  1.0000
  C   C85       1.0  0.55662  0.72815  0.09517  1.0000
  C   C86       1.0  0.23545  0.44137  0.87589  1.0000
  C   C87       1.0  0.30100000000000005  0.30191000000000007  0.90658  1.0000
  C   C88       1.0  0.17065999999999995  0.52249  0.8727600000000001  1.0000
  C   C89       1.0  0.3095599999999999  0.49471  0.82277  1.0000
  C   C90       1.0  0.30910999999999994  0.42908  0.85051  1.0000
  C   C91       1.0  0.23039999999999997  0.37535  0.9037899999999999  1.0000
  C   C92       1.0  0.3753000000000001  0.34962000000000004  0.8541299999999998  1.0000
  C   C93       1.0  0.37259  0.28891  0.88138  1.0000
  C   C94       1.0  0.46226000000000006  0.21212000000000003  0.7772600000000001  1.0000
  C   C95       1.0  0.38382999999999995  0.48922000000000004  0.79536  1.0000
  C   C96       1.0  0.31710999999999995  0.97946  0.75886  1.0000
  C   C97       1.0  0.28421  0.03715  0.73442  1.0000
  C   C98       1.0  0.3439199999999999  0.18023  0.73229  1.0000
  C   C99       1.0  0.24017  0.56822  0.8204499999999999  1.0000
  C   C100      1.0  0.40508  0.07078  0.78105  1.0000
  C   C101      1.0  0.17340999999999995  0.58484  0.8457200000000001  1.0000
  C   C102      1.0  0.27204000000000006  0.8280800000000001  0.76173  1.0000
  C   C103      1.0  0.76449  0.20604  0.7907600000000001  1.0000
  C   C104      1.0  0.69894  0.00098  0.76007  1.0000
  C   C105      1.0  0.8292599999999999  0.35202000000000006  0.79391  1.0000
  C   C106      1.0  0.69029  0.18506  0.8439099999999999  1.0000
  C   C107      1.0  0.69084  0.12000000000000001  0.81615  1.0000
  C   C108      1.0  0.76957  0.14514000000000002  0.76286  1.0000
  C   C109      1.0  0.62461  0.97428  0.81253  1.0000
  C   C110      1.0  0.62728  0.91631  0.78527  1.0000
  C   C111      1.0  0.53776  0.75015  0.88957  1.0000
  C   C112      1.0  0.61601  0.10515  0.8713400000000001  1.0000
  C   C113      1.0  0.6832  0.66291  0.90782  1.0000
  C   C114      1.0  0.71635  0.75347  0.93229  1.0000
  C   C115      1.0  0.6566300000000002  0.8367300000000001  0.93449  1.0000
  C   C116      1.0  0.75969  0.32806  0.84623  1.0000
  C   C117      1.0  0.59497  0.66615  0.8857  1.0000
  C   C118      1.0  0.82648  0.41152  0.82097  1.0000
  C   C119      1.0  0.72815  0.55661  0.9048400000000001  1.0000
  C   C120      1.0  0.44138  0.23544  0.12411  1.0000
  C   C121      1.0  0.30191  0.30099  0.09341999999999999  1.0000
  C   C122      1.0  0.5225  0.17065  0.12723  1.0000
  C   C123      1.0  0.49472  0.30954  0.17722  1.0000
  C   C124      1.0  0.42908999999999997  0.3091  0.14949  1.0000
  C   C125      1.0  0.3753600000000001  0.23039000000000004  0.09620999999999999  1.0000
  C   C126      1.0  0.34963000000000005  0.37529  0.14587  1.0000
  C   C127      1.0  0.28891999999999995  0.37258  0.11862  1.0000
  C   C128      1.0  0.21212000000000003  0.46226000000000006  0.22273999999999997  1.0000
  C   C129      1.0  0.48923  0.3838  0.20464  1.0000
  C   C130      1.0  0.97948  0.31711  0.24114  1.0000
  C   C131      1.0  0.03716  0.28421  0.26558  1.0000
  C   C132      1.0  0.18026000000000003  0.34393  0.26771  1.0000
  C   C133      1.0  0.56823  0.24015  0.17955  1.0000
  C   C134      1.0  0.07077000000000001  0.40507000000000004  0.21894999999999998  1.0000
  C   C135      1.0  0.58485  0.17340000000000003  0.15428  1.0000
  C   C136      1.0  0.82808  0.27203000000000005  0.23828  1.0000
  C   C137      1.0  0.79372  0.55849  0.45738  1.0000
  C   C138      1.0  0.99895  0.69804  0.42671  1.0000
  C   C139      1.0  0.6477  0.47738  0.46051  1.0000
  C   C140      1.0  0.8144000000000001  0.50523  0.51051  1.0000
  C   C141      1.0  0.87963  0.57079  0.4827600000000001  1.0000
  C   C142      1.0  0.8547699999999999  0.62456  0.4294899999999999  1.0000
  C   C143      1.0  0.02538000000000002  0.65033  0.47917  1.0000
  C   C144      1.0  0.08349000000000002  0.71107  0.45193  1.0000
  C   C145      1.0  0.25066999999999995  0.78841  0.55589  1.0000
  C   C146      1.0  0.89417  0.51072  0.5379  1.0000
  C   C147      1.0  0.33765  0.02061  0.57449  1.0000
  C   C148      1.0  0.24695  0.96229  0.59892  1.0000
  C   C149      1.0  0.16379  0.81912  0.60092  1.0000
  C   C150      1.0  0.67139  0.43183000000000005  0.51284  1.0000
  C   C151      1.0  0.3346300000000001  0.9298600000000001  0.55223  1.0000
  C   C152      1.0  0.58805  0.41518  0.48757  1.0000
  C   C153      1.0  0.44389  0.17209000000000005  0.57172  1.0000
  C   C154      1.0  0.44151  0.20629  0.04262  1.0000
  C   C155      1.0  0.30196  0.00106  0.07329  1.0000
  C   C156      1.0  0.52262  0.3523  0.03949  1.0000
  C   C157      1.0  0.49477999999999994  0.18561000000000002  0.98949  1.0000
  C   C158      1.0  0.42921  0.12037  0.01724  1.0000
  C   C159      1.0  0.37544000000000005  0.14522  0.07051  1.0000
  C   C160      1.0  0.34967  0.97462  0.02083  1.0000
  C   C161      1.0  0.2889300000000001  0.9165100000000002  0.04807999999999999  1.0000
  C   C162      1.0  0.21159999999999993  0.74933  0.94411  1.0000
  C   C163      1.0  0.48928000000000005  0.10583  0.9621  1.0000
  C   C164      1.0  0.9794000000000003  0.6623500000000001  0.92551  1.0000
  C   C165      1.0  0.03770000000000002  0.75304  0.90109  1.0000
  C   C166      1.0  0.18088  0.83621  0.89908  1.0000
  C   C167      1.0  0.56817  0.3286  0.9871600000000001  1.0000
  C   C168      1.0  0.07014000000000002  0.66536  0.94778  1.0000
  C   C169      1.0  0.58482  0.41195000000000004  0.01243  1.0000
  C   C170      1.0  0.8279099999999999  0.5561100000000001  0.92829  1.0000
  C   C171      1.0  0.7939599999999999  0.23551  0.70924  1.0000
  C   C172      1.0  0.99903  0.30106  0.73994  1.0000
  C   C173      1.0  0.64798  0.17074  0.70609  1.0000
  C   C174      1.0  0.81495  0.30971  0.65609  1.0000
  C   C175      1.0  0.8800000000000001  0.30916000000000005  0.68385  1.0000
  C   C176      1.0  0.85486  0.23043  0.73714  1.0000
  C   C177      1.0  0.025719999999999996  0.3754  0.68747  1.0000
  C   C178      1.0  0.08368  0.37272  0.71473  1.0000
  C   C179      1.0  0.24985  0.46224  0.61044  1.0000
  C   C180      1.0  0.8948499999999999  0.38399  0.62866  1.0000
  C   C181      1.0  0.33709  0.31681  0.59219  1.0000
  C   C182      1.0  0.24653000000000003  0.28365  0.56771  1.0000
  C   C183      1.0  0.16327  0.34338  0.56552  1.0000
  C   C184      1.0  0.67193  0.24031000000000002  0.65377  1.0000
  C   C185      1.0  0.3338400000000001  0.40502000000000005  0.6143  1.0000
  C   C186      1.0  0.58848  0.17352  0.67904  1.0000
  C   C187      1.0  0.44339  0.27185  0.59517  1.0000
  C   C188      1.0  0.7645599999999999  0.55862  0.37589  1.0000
  C   C189      1.0  0.69901  0.69808  0.40658  1.0000
  C   C190      1.0  0.82935  0.4775  0.37276  1.0000
  C   C191      1.0  0.6904499999999999  0.50528  0.32277  1.0000
  C   C192      1.0  0.6909  0.57091  0.35051  1.0000
  C   C193      1.0  0.7696100000000001  0.6246400000000001  0.40378  1.0000
  C   C194      1.0  0.62471  0.65037  0.35413  1.0000
  C   C195      1.0  0.62742  0.71108  0.38138  1.0000
  C   C196      1.0  0.53774  0.78788  0.27726  1.0000
  C   C197      1.0  0.61619  0.51077  0.29536  1.0000
  C   C198      1.0  0.68289  0.02053  0.25886  1.0000
  C   C199      1.0  0.71579  0.96284  0.23442000000000002  1.0000
  C   C200      1.0  0.6560899999999997  0.81976  0.23229  1.0000
  C   C201      1.0  0.7598399999999998  0.43177  0.32045  1.0000
  C   C202      1.0  0.59493  0.92921  0.28105  1.0000
  C   C203      1.0  0.8265999999999999  0.41516000000000003  0.34572  1.0000
  C   C204      1.0  0.72797  0.17191  0.26173  1.0000
  N   N1        1.0  0.43358  0.16659  0.41383000000000003  1.0000
  N   N2        1.0  0.73302  0.56614  0.7469799999999999  1.0000
  N   N3        1.0  0.83273  0.26707  0.08011  1.0000
  N   N4        1.0  0.7329300000000001  0.16727  0.41989  1.0000
  N   N5        1.0  0.8334100000000001  0.56642  0.08617  1.0000
  N   N6        1.0  0.43384999999999996  0.26698  0.75301  1.0000
  N   N7        1.0  0.5664300000000001  0.8334000000000001  0.91383  1.0000
  N   N8        1.0  0.26699  0.43385  0.24698  1.0000
  N   N9        1.0  0.16726999999999997  0.73292  0.58011  1.0000
  N   N10       1.0  0.2670799999999999  0.83272  0.91989  1.0000
  N   N11       1.0  0.16660000000000005  0.43357000000000007  0.58617  1.0000
  N   N12       1.0  0.56615  0.73301  0.25302  1.0000
  O   O1        1.0  0.32195999999999997  0.8605300000000001  0.39692  1.0000
  O   O2        1.0  0.5093400000000001  0.9941600000000003  0.3697  1.0000
  O   O3        1.0  0.29597  0.053810000000000004  0.23328000000000002  1.0000
  O   O4        1.0  0.53851  0.67807  0.73023  1.0000
  O   O5        1.0  0.48467999999999994  0.49084  0.70298  1.0000
  O   O6        1.0  0.7578700000000002  0.7039800000000002  0.56662  1.0000
  O   O7        1.0  0.13946000000000003  0.4611700000000001  0.06351  1.0000
  O   O8        1.0  0.006820000000000022  0.51576  0.03624  1.0000
  O   O9        1.0  0.9461800000000001  0.24213000000000004  0.89993  1.0000
  O   O10       1.0  0.5388300000000001  0.8605400000000001  0.43649  1.0000
  O   O11       1.0  0.48423999999999995  0.99317  0.46375999999999995  1.0000
  O   O12       1.0  0.7578699999999999  0.05383  0.60008  1.0000
  O   O13       1.0  0.13947  0.67804  0.10307999999999999  1.0000
  O   O14       1.0  0.005839999999999993  0.49067  0.1303  1.0000
  O   O15       1.0  0.94619  0.7040300000000002  0.26672  1.0000
  O   O16       1.0  0.32194000000000006  0.46148000000000006  0.76977  1.0000
  O   O17       1.0  0.50918  0.51531  0.7970100000000001  1.0000
  O   O18       1.0  0.29602  0.24213000000000004  0.93338  1.0000
  O   O19       1.0  0.67805  0.13946  0.89692  1.0000
  O   O20       1.0  0.49067  0.00583  0.8697  1.0000
  O   O21       1.0  0.70404  0.9461800000000001  0.73328  1.0000
  O   O22       1.0  0.46149  0.32193  0.23023  1.0000
  O   O23       1.0  0.51532  0.50915  0.20298  1.0000
  O   O24       1.0  0.24213  0.29602  0.06662  1.0000
  O   O25       1.0  0.8605500000000001  0.53882  0.56351  1.0000
  O   O26       1.0  0.99318  0.48423000000000005  0.53624  1.0000
  O   O27       1.0  0.05383000000000009  0.75786  0.39992  1.0000
  O   O28       1.0  0.46118  0.13945  0.93649  1.0000
  O   O29       1.0  0.51577  0.00682  0.9637599999999998  1.0000
  O   O30       1.0  0.24212999999999993  0.94617  0.10008  1.0000
  O   O31       1.0  0.86054  0.32195  0.60308  1.0000
  O   O32       1.0  0.9941699999999998  0.50933  0.6303  1.0000
  O   O33       1.0  0.05381999999999999  0.29597  0.7667200000000001  1.0000
  O   O34       1.0  0.67807  0.53851  0.26977  1.0000
  O   O35       1.0  0.49083  0.48468  0.29701  1.0000
  O   O36       1.0  0.7039800000000002  0.75786  0.43337999999999993  1.0000
