data_image0
_chemical_formula_structural       Ca10H132C216O52
_chemical_formula_sum              "Ca10 H132 C216 O52"
_cell_length_a       15.96168
_cell_length_b       18.81344
_cell_length_c       26.96328
_cell_angle_alpha    89.98183000000002
_cell_angle_beta     89.99415
_cell_angle_gamma    110.52763

_space_group_name_H-M_alt    "P 1"
_space_group_IT_number       1

loop_
  _space_group_symop_operation_xyz
  'x, y, z'

loop_
  _atom_site_type_symbol
  _atom_site_label
  _atom_site_symmetry_multiplicity
  _atom_site_fract_x
  _atom_site_fract_y
  _atom_site_fract_z
  _atom_site_occupancy
  Ca  Ca1       1.0  0.04071  0.02001  0.5699599999999999  1.0000
  Ca  Ca2       1.0  0.7259900000000002  0.55673  0.05618999999999998  1.0000
  Ca  Ca3       1.0  0.9580600000000002  0.47809999999999997  0.06961  1.0000
  Ca  Ca4       1.0  0.27427  0.94229  0.55772  1.0000
  Ca  Ca5       1.0  0.9592900000000002  0.9799799999999999  0.43003  1.0000
  Ca  Ca6       1.0  0.274  0.4432599999999999  0.9438099999999998  1.0000
  Ca  Ca7       1.0  0.04193000000000001  0.5219  0.9303899999999998  1.0000
  Ca  Ca8       1.0  0.7257300000000002  0.05771  0.4422799999999999  1.0000
  Ca  Ca9       1.0  0.5  0.4999999999999999  0.0  1.0000
  Ca  Ca10      1.0  0.5  4.922920048378232e-20  0.4999999999999999  1.0000
  H   H1        1.0  0.8733100000000003  0.02557  0.52161  1.0000
  H   H2        1.0  0.94428  0.0828  0.48663  1.0000
  H   H3        1.0  0.09755000000000003  0.12282  0.6681399999999997  1.0000
  H   H4        1.0  0.60917  0.15459  0.6770499999999998  1.0000
  H   H5        1.0  0.7760900000000002  0.3001799999999999  0.7875599999999998  1.0000
  H   H6        1.0  0.4967200000000001  0.2691  0.78149  1.0000
  H   H7        1.0  0.3723900000000001  0.17863999999999994  0.7627299999999999  1.0000
  H   H8        1.0  0.22936000000000006  0.11926  0.71801  1.0000
  H   H9        1.0  0.3741600000000001  0.1012  0.5866099999999999  1.0000
  H   H10       1.0  0.51557  0.15947999999999998  0.63066  1.0000
  H   H11       1.0  0.7299700000000002  0.19442999999999994  0.63313  1.0000
  H   H12       1.0  0.8498300000000002  0.15091999999999997  0.60176  1.0000
  H   H13       1.0  0.9695500000000001  0.18284999999999996  0.7470399999999998  1.0000
  H   H14       1.0  0.8461400000000002  0.21993999999999997  0.7796099999999998  1.0000
  H   H15       1.0  0.77965  0.41316  0.8141899999999997  1.0000
  H   H16       1.0  0.8031800000000002  0.48796999999999996  0.8916099999999999  1.0000
  H   H17       1.0  0.5422599999999999  0.3477499999999999  0.9430499999999998  1.0000
  H   H18       1.0  0.5197100000000002  0.27088  0.86609  1.0000
  H   H19       1.0  0.8024400000000003  0.0014599999999999995  0.9169199999999997  1.0000
  H   H20       1.0  0.70193  0.09585  0.7954  1.0000
  H   H21       1.0  0.61051  0.85385  0.8157299999999998  1.0000
  H   H22       1.0  0.5621300000000002  0.7969699999999998  0.8953699999999999  1.0000
  H   H23       1.0  0.5590900000000001  0.6907399999999998  0.95141  1.0000
  H   H24       1.0  0.8430200000000002  0.7905999999999997  0.9709999999999999  1.0000
  H   H25       1.0  0.8474600000000002  0.89598  0.9134999999999999  1.0000
  H   H26       1.0  0.9384400000000003  0.11606  0.87827  1.0000
  H   H27       1.0  0.02706999999999996  0.25030999999999987  0.90215  1.0000
  H   H28       1.0  0.78854  0.30596  0.89611  1.0000
  H   H29       1.0  0.69968  0.17264  0.8719199999999998  1.0000
  H   H30       1.0  0.7081800000000003  0.04392  0.7137399999999999  1.0000
  H   H31       1.0  0.61937  0.04041  0.6372  1.0000
  H   H32       1.0  0.38431  0.8896499999999999  0.7081799999999998  1.0000
  H   H33       1.0  0.4732500000000001  0.88889  0.7846199999999999  1.0000
  H   H34       1.0  0.12831  0.4746299999999999  0.022589999999999992  1.0000
  H   H35       1.0  0.05872999999999997  0.41843999999999987  0.9865699999999997  1.0000
  H   H36       1.0  0.8990300000000002  0.37154  0.16602999999999996  1.0000
  H   H37       1.0  0.3894100000000001  0.34538  0.17977  1.0000
  H   H38       1.0  0.22291000000000002  0.19906  0.29022  1.0000
  H   H39       1.0  0.50148  0.22757999999999998  0.28204  1.0000
  H   H40       1.0  0.62653  0.31552  0.26186  1.0000
  H   H41       1.0  0.7684500000000003  0.37371999999999994  0.21610999999999994  1.0000
  H   H42       1.0  0.62116  0.39593  0.08671  1.0000
  H   H43       1.0  0.4805900000000002  0.33889  0.13206999999999997  1.0000
  H   H44       1.0  0.2710400000000001  0.30593  0.13588  1.0000
  H   H45       1.0  0.15267000000000006  0.35021  0.10345999999999998  1.0000
  H   H46       1.0  0.027030000000000005  0.31468  0.24725999999999995  1.0000
  H   H47       1.0  0.14986  0.27792  0.28115  1.0000
  H   H48       1.0  0.21917000000000006  0.08573  0.31642999999999993  1.0000
  H   H49       1.0  0.19621000000000005  0.01113  0.39411  1.0000
  H   H50       1.0  0.4584000000000001  0.14998  0.44424  1.0000
  H   H51       1.0  0.4808000000000002  0.2266  0.36712  1.0000
  H   H52       1.0  0.19955000000000006  0.50071  0.4163999999999999  1.0000
  H   H53       1.0  0.29886  0.40714  0.29409999999999986  1.0000
  H   H54       1.0  0.39278000000000013  0.64889  0.31599  1.0000
  H   H55       1.0  0.4406200000000001  0.70613  0.39541999999999994  1.0000
  H   H56       1.0  0.4430700000000001  0.8111299999999998  0.4523999999999999  1.0000
  H   H57       1.0  0.15974  0.70899  0.4731199999999999  1.0000
  H   H58       1.0  0.15555000000000005  0.60501  0.41458999999999996  1.0000
  H   H59       1.0  0.06288999999999995  0.3871799999999999  0.37803  1.0000
  H   H60       1.0  0.9746700000000003  0.25375  0.40392  1.0000
  H   H61       1.0  0.21165000000000003  0.19646999999999995  0.39542999999999995  1.0000
  H   H62       1.0  0.3004300000000001  0.32918  0.36959  1.0000
  H   H63       1.0  0.29498000000000013  0.45825  0.21341999999999994  1.0000
  H   H64       1.0  0.38396000000000013  0.46135999999999994  0.13719  1.0000
  H   H65       1.0  0.6182900000000002  0.6139  0.20794999999999994  1.0000
  H   H66       1.0  0.5288199999999998  0.6147799999999998  0.28408  1.0000
  H   H67       1.0  0.12669  0.97442  0.4783899999999999  1.0000
  H   H68       1.0  0.05572000000000001  0.91719  0.5133699999999999  1.0000
  H   H69       1.0  0.90245  0.87718  0.3318499999999999  1.0000
  H   H70       1.0  0.3908300000000001  0.8454  0.32295  1.0000
  H   H71       1.0  0.22390000000000007  0.69981  0.21243999999999993  1.0000
  H   H72       1.0  0.50327  0.73089  0.21851  1.0000
  H   H73       1.0  0.6276100000000002  0.82135  0.23726999999999995  1.0000
  H   H74       1.0  0.7706300000000003  0.88074  0.2819899999999999  1.0000
  H   H75       1.0  0.62584  0.8987899999999998  0.41339  1.0000
  H   H76       1.0  0.48443  0.8405099999999998  0.36934  1.0000
  H   H77       1.0  0.2700200000000001  0.80556  0.36686999999999986  1.0000
  H   H78       1.0  0.15015999999999988  0.8490799999999997  0.39823999999999987  1.0000
  H   H79       1.0  0.03045000000000003  0.81715  0.25294999999999995  1.0000
  H   H80       1.0  0.15385999999999994  0.7800599999999998  0.22037999999999994  1.0000
  H   H81       1.0  0.22034  0.5868399999999999  0.18580999999999995  1.0000
  H   H82       1.0  0.19681000000000007  0.51203  0.10838999999999997  1.0000
  H   H83       1.0  0.4577400000000001  0.65224  0.05694999999999999  1.0000
  H   H84       1.0  0.48029000000000016  0.72911  0.13390999999999997  1.0000
  H   H85       1.0  0.1975500000000001  0.99854  0.08307999999999997  1.0000
  H   H86       1.0  0.29806  0.9041499999999998  0.20459999999999995  1.0000
  H   H87       1.0  0.3894900000000001  0.14615  0.18426999999999996  1.0000
  H   H88       1.0  0.43787000000000004  0.20302999999999993  0.10462999999999997  1.0000
  H   H89       1.0  0.4409  0.30925  0.04859  1.0000
  H   H90       1.0  0.15697999999999998  0.20939999999999995  0.029  1.0000
  H   H91       1.0  0.15253  0.10401999999999997  0.08649999999999997  1.0000
  H   H92       1.0  0.06156  0.88394  0.12172  1.0000
  H   H93       1.0  0.9729200000000003  0.74969  0.09784999999999998  1.0000
  H   H94       1.0  0.21145000000000005  0.69404  0.10388999999999997  1.0000
  H   H95       1.0  0.30032  0.82735  0.12808  1.0000
  H   H96       1.0  0.29181999999999997  0.9560799999999999  0.28626  1.0000
  H   H97       1.0  0.38063000000000013  0.95959  0.3627999999999999  1.0000
  H   H98       1.0  0.6156900000000002  0.11035  0.2918199999999999  1.0000
  H   H99       1.0  0.52675  0.1111  0.21538  1.0000
  H   H100      1.0  0.8716800000000002  0.52537  0.9773999999999998  1.0000
  H   H101      1.0  0.9412700000000002  0.5815599999999997  0.013429999999999997  1.0000
  H   H102      1.0  0.10096999999999995  0.6284499999999997  0.83396  1.0000
  H   H103      1.0  0.61059  0.6546099999999998  0.8202299999999999  1.0000
  H   H104      1.0  0.77709  0.8009399999999998  0.70978  1.0000
  H   H105      1.0  0.49852000000000024  0.77242  0.7179599999999999  1.0000
  H   H106      1.0  0.3734699999999999  0.6844799999999998  0.73814  1.0000
  H   H107      1.0  0.2315400000000001  0.62627  0.7838899999999999  1.0000
  H   H108      1.0  0.3788300000000001  0.60407  0.9132899999999999  1.0000
  H   H109      1.0  0.5194099999999999  0.6611099999999998  0.8679299999999998  1.0000
  H   H110      1.0  0.72895  0.6940699999999997  0.8641199999999998  1.0000
  H   H111      1.0  0.8473300000000002  0.64979  0.8965399999999998  1.0000
  H   H112      1.0  0.9729700000000003  0.68532  0.7527399999999997  1.0000
  H   H113      1.0  0.8501400000000003  0.72208  0.7188499999999998  1.0000
  H   H114      1.0  0.7808300000000002  0.91427  0.6835699999999998  1.0000
  H   H115      1.0  0.8037900000000002  0.98886  0.60589  1.0000
  H   H116      1.0  0.5415899999999999  0.8500199999999998  0.5557499999999999  1.0000
  H   H117      1.0  0.5191900000000003  0.7734  0.63288  1.0000
  H   H118      1.0  0.8004500000000002  0.49928999999999996  0.58359  1.0000
  H   H119      1.0  0.70113  0.59286  0.70589  1.0000
  H   H120      1.0  0.6072200000000002  0.3511  0.684  1.0000
  H   H121      1.0  0.5593800000000002  0.29387  0.60458  1.0000
  H   H122      1.0  0.5569200000000002  0.18885999999999997  0.5475899999999999  1.0000
  H   H123      1.0  0.8402500000000003  0.291  0.52688  1.0000
  H   H124      1.0  0.8444500000000001  0.3949799999999999  0.58541  1.0000
  H   H125      1.0  0.9371000000000003  0.61281  0.62197  1.0000
  H   H126      1.0  0.025329999999999978  0.74625  0.59607  1.0000
  H   H127      1.0  0.7883500000000002  0.80353  0.60457  1.0000
  H   H128      1.0  0.6995600000000002  0.67082  0.63041  1.0000
  H   H129      1.0  0.7050200000000002  0.54175  0.7865699999999998  1.0000
  H   H130      1.0  0.6160300000000002  0.5386299999999999  0.8628  1.0000
  H   H131      1.0  0.3817100000000001  0.3860899999999999  0.7920499999999998  1.0000
  H   H132      1.0  0.4711800000000001  0.3852199999999999  0.7159199999999998  1.0000
  C   C1        1.0  0.5422900000000003  0.20819999999999994  0.7256599999999999  1.0000
  C   C2        1.0  0.6174  0.19440999999999997  0.70731  1.0000
  C   C3        1.0  0.7020900000000002  0.2274  0.7287  1.0000
  C   C4        1.0  0.7110800000000003  0.27467999999999987  0.77005  1.0000
  C   C5        1.0  0.63698  0.28839999999999993  0.7900299999999998  1.0000
  C   C6        1.0  0.55298  0.25528  0.7673799999999997  1.0000
  C   C7        1.0  0.4554200000000001  0.17375  0.7001999999999998  1.0000
  C   C8        1.0  0.3732000000000001  0.16256  0.72404  1.0000
  C   C9        1.0  0.29259000000000013  0.12884  0.69912  1.0000
  C   C10       1.0  0.2920300000000001  0.10518999999999998  0.6496699999999997  1.0000
  C   C11       1.0  0.3735000000000001  0.1172  0.6253699999999999  1.0000
  C   C12       1.0  0.4535300000000001  0.15079  0.65036  1.0000
  C   C13       1.0  0.20735000000000006  0.0666  0.6231599999999999  1.0000
  C   C14       1.0  0.7782800000000002  0.20903999999999995  0.7089099999999998  1.0000
  C   C15       1.0  0.7809600000000002  0.19008999999999995  0.6584799999999998  1.0000
  C   C16       1.0  0.8487  0.16672999999999993  0.6405099999999998  1.0000
  C   C17       1.0  0.9171100000000002  0.16389999999999993  0.6723999999999999  1.0000
  C   C18       1.0  0.9167800000000003  0.18519999999999995  0.7223599999999998  1.0000
  C   C19       1.0  0.8477099999999999  0.20686999999999994  0.74038  1.0000
  C   C20       1.0  0.9869700000000002  0.13674  0.65313  1.0000
  C   C21       1.0  0.6484100000000005  0.33607  0.8348099999999998  1.0000
  C   C22       1.0  0.7280900000000002  0.3978999999999999  0.84264  1.0000
  C   C23       1.0  0.7413000000000003  0.44037  0.88595  1.0000
  C   C24       1.0  0.6744700000000002  0.42241  0.9224599999999998  1.0000
  C   C25       1.0  0.5939800000000002  0.36167  0.9146899999999998  1.0000
  C   C26       1.0  0.5812800000000001  0.3190399999999999  0.8713599999999998  1.0000
  C   C27       1.0  0.6893700000000003  0.46791999999999995  0.96858  1.0000
  C   C28       1.0  0.7061200000000001  0.9200099999999999  0.8698899999999998  1.0000
  C   C29       1.0  0.7615200000000001  0.9935799999999999  0.88369  1.0000
  C   C30       1.0  0.7599000000000002  0.057359999999999994  0.85739  1.0000
  C   C31       1.0  0.7039700000000002  0.0467  0.8159499999999998  1.0000
  C   C32       1.0  0.6503300000000002  0.9737699999999999  0.8003199999999999  1.0000
  C   C33       1.0  0.6508100000000002  0.91069  0.82797  1.0000
  C   C34       1.0  0.70489  0.8545099999999998  0.9007399999999998  1.0000
  C   C35       1.0  0.6240300000000002  0.79518  0.9112499999999998  1.0000
  C   C36       1.0  0.6220500000000002  0.7358499999999999  0.9428099999999998  1.0000
  C   C37       1.0  0.701  0.73439  0.9649099999999998  1.0000
  C   C38       1.0  0.7821200000000003  0.79287  0.95412  1.0000
  C   C39       1.0  0.7840300000000001  0.8517099999999999  0.92232  1.0000
  C   C40       1.0  0.7007999999999999  0.6722399999999997  0.9995499999999999  1.0000
  C   C41       1.0  0.8133000000000004  0.1355  0.8731999999999999  1.0000
  C   C42       1.0  0.9056900000000001  0.15763999999999995  0.8825  1.0000
  C   C43       1.0  0.9553600000000002  0.23237  0.8955999999999998  1.0000
  C   C44       1.0  0.9130700000000003  0.28607  0.90013  1.0000
  C   C45       1.0  0.8205800000000001  0.26395999999999986  0.8917999999999998  1.0000
  C   C46       1.0  0.7714000000000004  0.18967  0.8781899999999999  1.0000
  C   C47       1.0  0.9642700000000002  0.3664899999999999  0.91356  1.0000
  C   C48       1.0  0.5966500000000002  0.96721  0.7546899999999997  1.0000
  C   C49       1.0  0.6372200000000002  0.01006  0.71281  1.0000
  C   C50       1.0  0.5880400000000002  0.00862  0.67005  1.0000
  C   C51       1.0  0.4965500000000001  0.9657499999999999  0.6683999999999998  1.0000
  C   C52       1.0  0.45558  0.9222299999999998  0.70987  1.0000
  C   C53       1.0  0.5053600000000003  0.92213  0.75236  1.0000
  C   C54       1.0  0.4437900000000001  0.9678999999999998  0.62298  1.0000
  C   C55       1.0  0.4560900000000001  0.28985  0.22705999999999996  1.0000
  C   C56       1.0  0.3811700000000001  0.3048599999999999  0.20962  1.0000
  C   C57       1.0  0.29655  0.27195  0.23119  1.0000
  C   C58       1.0  0.28771  0.22437999999999994  0.27239  1.0000
  C   C59       1.0  0.36189  0.21003999999999995  0.29178  1.0000
  C   C60       1.0  0.4455100000000001  0.24239  0.26857  1.0000
  C   C61       1.0  0.5423000000000002  0.32313  0.20071  1.0000
  C   C62       1.0  0.6249800000000002  0.33252  0.22342999999999993  1.0000
  C   C63       1.0  0.7050100000000002  0.36552  0.19781  1.0000
  C   C64       1.0  0.7043699999999999  0.3901099999999999  0.14860999999999994  1.0000
  C   C65       1.0  0.6223800000000003  0.37936  0.12531  1.0000
  C   C66       1.0  0.5430100000000002  0.34661  0.15105999999999997  1.0000
  C   C67       1.0  0.7882900000000003  0.42796  0.12111999999999998  1.0000
  C   C68       1.0  0.22049000000000005  0.29039  0.21118999999999993  1.0000
  C   C69       1.0  0.21933  0.31003  0.16077  1.0000
  C   C70       1.0  0.15222999999999995  0.3335899999999999  0.14216  1.0000
  C   C71       1.0  0.08235000000000003  0.3352  0.17330999999999994  1.0000
  C   C72       1.0  0.08092000000000003  0.31304  0.22317999999999993  1.0000
  C   C73       1.0  0.14974  0.2916299999999999  0.24195  1.0000
  C   C74       1.0  0.01297  0.36225  0.15322999999999995  1.0000
  C   C75       1.0  0.3510700000000001  0.16222  0.33647  1.0000
  C   C76       1.0  0.27113  0.10075999999999997  0.3446599999999999  1.0000
  C   C77       1.0  0.2581600000000001  0.058539999999999995  0.38808999999999994  1.0000
  C   C78       1.0  0.32540000000000013  0.07646999999999998  0.4243699999999999  1.0000
  C   C79       1.0  0.40630000000000005  0.13649999999999995  0.4161  1.0000
  C   C80       1.0  0.4188600000000001  0.17887  0.3726399999999999  1.0000
  C   C81       1.0  0.3104300000000001  0.031899999999999984  0.47088999999999986  1.0000
  C   C82       1.0  0.2964700000000001  0.58246  0.3697799999999999  1.0000
  C   C83       1.0  0.24049000000000012  0.50886  0.38317  1.0000
  C   C84       1.0  0.24131  0.4452799999999999  0.35639  1.0000
  C   C85       1.0  0.29727  0.4561499999999999  0.31496  1.0000
  C   C86       1.0  0.3517200000000001  0.52911  0.29977  1.0000
  C   C87       1.0  0.35196  0.59199  0.3279  1.0000
  C   C88       1.0  0.29790999999999995  0.6474699999999999  0.40118  1.0000
  C   C89       1.0  0.37861000000000006  0.7070099999999998  0.4116999999999999  1.0000
  C   C90       1.0  0.3804100000000001  0.76567  0.4437899999999999  1.0000
  C   C91       1.0  0.3015200000000001  0.76616  0.4665  1.0000
  C   C92       1.0  0.22061000000000006  0.70749  0.45576999999999995  1.0000
  C   C93       1.0  0.21884999999999993  0.6493999999999998  0.4233899999999999  1.0000
  C   C94       1.0  0.3016600000000001  0.82761  0.5016399999999999  1.0000
  C   C95       1.0  0.18757999999999994  0.3672299999999999  0.3722  1.0000
  C   C96       1.0  0.09551999999999994  0.34555999999999987  0.3823599999999999  1.0000
  C   C97       1.0  0.04602  0.27122  0.39633  1.0000
  C   C98       1.0  0.08813  0.21739  0.4007199999999999  1.0000
  C   C99       1.0  0.18008000000000005  0.2388  0.3911599999999999  1.0000
  C   C100      1.0  0.22911000000000006  0.31278  0.3768499999999999  1.0000
  C   C101      1.0  0.03709  0.13772  0.41572  1.0000
  C   C102      1.0  0.4057900000000001  0.53571  0.25426  1.0000
  C   C103      1.0  0.3658400000000001  0.49238  0.21244999999999997  1.0000
  C   C104      1.0  0.41536000000000006  0.49363999999999997  0.16985  1.0000
  C   C105      1.0  0.50685  0.53677  0.16821999999999995  1.0000
  C   C106      1.0  0.5471200000000003  0.58095  0.20956999999999995  1.0000
  C   C107      1.0  0.49693000000000015  0.58117  0.25192  1.0000
  C   C108      1.0  0.5599899999999999  0.5340699999999998  0.12298999999999999  1.0000
  C   C109      1.0  0.45771000000000006  0.79179  0.27433  1.0000
  C   C110      1.0  0.38260000000000005  0.8055899999999998  0.29268999999999995  1.0000
  C   C111      1.0  0.29790999999999995  0.7725899999999998  0.2713  1.0000
  C   C112      1.0  0.28892000000000007  0.7253199999999997  0.22995  1.0000
  C   C113      1.0  0.36301  0.7116  0.20997  1.0000
  C   C114      1.0  0.4470200000000001  0.74471  0.23262  1.0000
  C   C115      1.0  0.54457  0.82625  0.2998  1.0000
  C   C116      1.0  0.62679  0.8374399999999999  0.2759599999999999  1.0000
  C   C117      1.0  0.7074100000000002  0.87115  0.3008699999999999  1.0000
  C   C118      1.0  0.7079700000000002  0.89481  0.35032999999999986  1.0000
  C   C119      1.0  0.6264900000000002  0.8828  0.3746299999999999  1.0000
  C   C120      1.0  0.5464600000000002  0.8492  0.34963999999999995  1.0000
  C   C121      1.0  0.7926400000000002  0.9334  0.3768399999999999  1.0000
  C   C122      1.0  0.22171  0.79096  0.29108999999999996  1.0000
  C   C123      1.0  0.21903000000000006  0.8099  0.34150999999999987  1.0000
  C   C124      1.0  0.1513  0.83327  0.35949  1.0000
  C   C125      1.0  0.08288000000000001  0.8360899999999998  0.3275899999999999  1.0000
  C   C126      1.0  0.08321999999999997  0.8147899999999998  0.27763999999999994  1.0000
  C   C127      1.0  0.15228999999999995  0.7931199999999998  0.25962  1.0000
  C   C128      1.0  0.013029999999999967  0.8632599999999999  0.3468699999999999  1.0000
  C   C129      1.0  0.35159  0.66392  0.16519  1.0000
  C   C130      1.0  0.2719100000000001  0.60209  0.15736  1.0000
  C   C131      1.0  0.25870000000000004  0.5596199999999999  0.11404999999999997  1.0000
  C   C132      1.0  0.3255300000000001  0.57758  0.07753999999999997  1.0000
  C   C133      1.0  0.4060200000000002  0.63832  0.08531  1.0000
  C   C134      1.0  0.41871  0.68095  0.12863  1.0000
  C   C135      1.0  0.31062  0.53207  0.03142  1.0000
  C   C136      1.0  0.29387  0.07998999999999999  0.13010999999999998  1.0000
  C   C137      1.0  0.23848000000000005  0.00641  0.11629999999999997  1.0000
  C   C138      1.0  0.24010000000000006  0.9426299999999999  0.14260999999999996  1.0000
  C   C139      1.0  0.2960300000000001  0.9533  0.18405  1.0000
  C   C140      1.0  0.34966000000000014  0.026219999999999993  0.19967999999999994  1.0000
  C   C141      1.0  0.34918  0.0893  0.17203  1.0000
  C   C142      1.0  0.2951000000000001  0.14549  0.09925999999999999  1.0000
  C   C143      1.0  0.3759700000000001  0.20481999999999997  0.08875  1.0000
  C   C144      1.0  0.37794000000000005  0.26414  0.05717999999999999  1.0000
  C   C145      1.0  0.2989900000000001  0.26561  0.03509  1.0000
  C   C146      1.0  0.2178800000000001  0.20713  0.04587999999999998  1.0000
  C   C147      1.0  0.2159700000000001  0.14828  0.07768  1.0000
  C   C148      1.0  0.29919  0.32775  0.0004499999999999999  1.0000
  C   C149      1.0  0.1867  0.8645  0.1268  1.0000
  C   C150      1.0  0.09429999999999988  0.8423599999999998  0.11749999999999997  1.0000
  C   C151      1.0  0.04463999999999999  0.76763  0.1044  1.0000
  C   C152      1.0  0.08691999999999991  0.7139199999999998  0.09986999999999997  1.0000
  C   C153      1.0  0.1794199999999999  0.7360399999999998  0.1082  1.0000
  C   C154      1.0  0.22859000000000004  0.81033  0.12180999999999999  1.0000
  C   C155      1.0  0.0357199999999999  0.6335099999999998  0.08643999999999998  1.0000
  C   C156      1.0  0.4033500000000001  0.03279  0.24531  1.0000
  C   C157      1.0  0.3627700000000001  0.98994  0.28719  1.0000
  C   C158      1.0  0.4119500000000001  0.99137  0.3299499999999999  1.0000
  C   C159      1.0  0.50345  0.03424999999999999  0.3315899999999999  1.0000
  C   C160      1.0  0.5444200000000002  0.07776  0.2901299999999999  1.0000
  C   C161      1.0  0.4946300000000001  0.07786  0.24763999999999994  1.0000
  C   C162      1.0  0.5562000000000002  0.0321  0.37701999999999997  1.0000
  C   C163      1.0  0.54391  0.7101499999999997  0.77294  1.0000
  C   C164      1.0  0.6188200000000003  0.69514  0.79038  1.0000
  C   C165      1.0  0.70345  0.72805  0.76881  1.0000
  C   C166      1.0  0.7122800000000002  0.77562  0.7275999999999998  1.0000
  C   C167      1.0  0.6381099999999998  0.7899599999999998  0.7082199999999998  1.0000
  C   C168      1.0  0.5544800000000001  0.7575999999999998  0.73143  1.0000
  C   C169      1.0  0.4577000000000001  0.67687  0.7992899999999998  1.0000
  C   C170      1.0  0.37502000000000013  0.6674799999999999  0.7765599999999998  1.0000
  C   C171      1.0  0.29498000000000013  0.63447  0.8021799999999998  1.0000
  C   C172      1.0  0.2956300000000001  0.60989  0.85139  1.0000
  C   C173      1.0  0.37762000000000007  0.6206399999999997  0.8746899999999999  1.0000
  C   C174      1.0  0.4569900000000001  0.65339  0.84894  1.0000
  C   C175      1.0  0.21171  0.57203  0.8788799999999998  1.0000
  C   C176      1.0  0.7795000000000002  0.70961  0.7888099999999998  1.0000
  C   C177      1.0  0.7806700000000002  0.68996  0.83923  1.0000
  C   C178      1.0  0.8477600000000001  0.66641  0.85784  1.0000
  C   C179      1.0  0.9176500000000002  0.66479  0.8266899999999999  1.0000
  C   C180      1.0  0.91907  0.6869599999999999  0.7768199999999997  1.0000
  C   C181      1.0  0.8502600000000001  0.7083699999999998  0.75805  1.0000
  C   C182      1.0  0.9870200000000002  0.63775  0.8467699999999998  1.0000
  C   C183      1.0  0.6489300000000002  0.83777  0.66353  1.0000
  C   C184      1.0  0.72887  0.89923  0.65534  1.0000
  C   C185      1.0  0.7418300000000002  0.94145  0.6119099999999997  1.0000
  C   C186      1.0  0.6746  0.92352  0.57563  1.0000
  C   C187      1.0  0.59369  0.8634899999999999  0.5838999999999999  1.0000
  C   C188      1.0  0.5811400000000002  0.82112  0.6273599999999998  1.0000
  C   C189      1.0  0.6895700000000002  0.9680999999999998  0.52911  1.0000
  C   C190      1.0  0.70352  0.41754  0.63022  1.0000
  C   C191      1.0  0.7595100000000002  0.49113999999999997  0.6168299999999998  1.0000
  C   C192      1.0  0.7586900000000001  0.5547199999999998  0.6436  1.0000
  C   C193      1.0  0.7027199999999999  0.5438499999999997  0.6850399999999998  1.0000
  C   C194      1.0  0.6482800000000002  0.4708899999999999  0.7002299999999998  1.0000
  C   C195      1.0  0.64804  0.40801  0.6720999999999998  1.0000
  C   C196      1.0  0.7020800000000003  0.35253  0.59881  1.0000
  C   C197      1.0  0.6213900000000002  0.29298999999999986  0.5883  1.0000
  C   C198      1.0  0.6195900000000002  0.23432  0.5562  1.0000
  C   C199      1.0  0.6984700000000003  0.23383  0.5334999999999999  1.0000
  C   C200      1.0  0.77939  0.29251  0.54423  1.0000
  C   C201      1.0  0.7811400000000002  0.3505999999999999  0.5766  1.0000
  C   C202      1.0  0.6983300000000002  0.17238  0.49836  1.0000
  C   C203      1.0  0.8124199999999999  0.63277  0.6277999999999998  1.0000
  C   C204      1.0  0.9044700000000002  0.65443  0.6176399999999997  1.0000
  C   C205      1.0  0.9539800000000003  0.72877  0.6036699999999998  1.0000
  C   C206      1.0  0.9118700000000002  0.78261  0.5992799999999999  1.0000
  C   C207      1.0  0.8199100000000004  0.7612  0.60884  1.0000
  C   C208      1.0  0.7708800000000002  0.68721  0.6231499999999999  1.0000
  C   C209      1.0  0.9629100000000003  0.8622799999999999  0.5842699999999998  1.0000
  C   C210      1.0  0.59421  0.4642899999999999  0.7457399999999997  1.0000
  C   C211      1.0  0.63415  0.50761  0.7875499999999998  1.0000
  C   C212      1.0  0.58463  0.50635  0.8301499999999998  1.0000
  C   C213      1.0  0.49315000000000003  0.46321999999999997  0.83177  1.0000
  C   C214      1.0  0.45287999999999995  0.41905  0.79042  1.0000
  C   C215      1.0  0.50306  0.4188199999999999  0.74808  1.0000
  C   C216      1.0  0.44001000000000007  0.46591999999999995  0.87701  1.0000
  O   O1        1.0  0.9369600000000002  0.03947  0.50995  1.0000
  O   O2        1.0  0.13279000000000005  0.0673  0.6407899999999999  1.0000
  O   O3        1.0  0.20729000000000006  0.03224  0.58208  1.0000
  O   O4        1.0  0.9790400000000002  0.10319999999999997  0.6123699999999997  1.0000
  O   O5        1.0  0.057790000000000015  0.15015  0.6825999999999999  1.0000
  O   O6        1.0  0.7664900000000002  0.5180999999999998  0.9771499999999997  1.0000
  O   O7        1.0  0.6249800000000002  0.45734  0.9998099999999999  1.0000
  O   O8        1.0  0.6287600000000001  0.6138699999999999  0.004989999999999998  1.0000
  O   O9        1.0  0.7728800000000002  0.67868  0.02254  1.0000
  O   O10       1.0  0.048690000000000025  0.3881  0.92327  1.0000
  O   O11       1.0  0.9218700000000002  0.41305999999999987  0.9152499999999999  1.0000
  O   O12       1.0  0.48665000000000014  0.00311  0.58496  1.0000
  O   O13       1.0  0.35878  0.9358  0.62493  1.0000
  O   O14       1.0  0.06523000000000005  0.46126  0.00975  1.0000
  O   O15       1.0  0.8629200000000002  0.4264799999999999  0.13818  1.0000
  O   O16       1.0  0.78779  0.46218  0.08005  1.0000
  O   O17       1.0  0.024560000000000054  0.39989  0.11395999999999998  1.0000
  O   O18       1.0  0.9385800000000002  0.3438799999999999  0.1803  1.0000
  O   O19       1.0  0.23332000000000006  0.9819099999999998  0.47964999999999997  1.0000
  O   O20       1.0  0.3748100000000001  0.04291  0.50225  1.0000
  O   O21       1.0  0.3738000000000001  0.8858499999999998  0.50732  1.0000
  O   O22       1.0  0.22957  0.82086  0.52476  1.0000
  O   O23       1.0  0.9538200000000003  0.11804999999999999  0.4274999999999999  1.0000
  O   O24       1.0  0.07833000000000002  0.09022  0.4167999999999999  1.0000
  O   O25       1.0  0.51711  0.49986  0.08471  1.0000
  O   O26       1.0  0.64514  0.56458  0.12506  1.0000
  O   O27       1.0  0.06303999999999996  0.9605299999999999  0.4900499999999999  1.0000
  O   O28       1.0  0.8672100000000003  0.9326899999999999  0.3592099999999999  1.0000
  O   O29       1.0  0.7927000000000002  0.96775  0.4179199999999999  1.0000
  O   O30       1.0  0.02094999999999991  0.8967999999999998  0.38763  1.0000
  O   O31       1.0  0.9422100000000002  0.84985  0.3173999999999999  1.0000
  O   O32       1.0  0.23351000000000005  0.4819  0.02285  1.0000
  O   O33       1.0  0.3750100000000001  0.54266  0.00019  1.0000
  O   O34       1.0  0.3712300000000001  0.38613  0.9950099999999997  1.0000
  O   O35       1.0  0.22711  0.32131  0.9774599999999999  1.0000
  O   O36       1.0  0.95131  0.6119  0.07673  1.0000
  O   O37       1.0  0.07812000000000001  0.58693  0.08475  1.0000
  O   O38       1.0  0.5133400000000002  0.99688  0.4150399999999999  1.0000
  O   O39       1.0  0.64122  0.0642  0.37507  1.0000
  O   O40       1.0  0.93476  0.53874  0.9902499999999997  1.0000
  O   O41       1.0  0.13707999999999995  0.5735199999999998  0.86182  1.0000
  O   O42       1.0  0.2122000000000001  0.53782  0.9199499999999998  1.0000
  O   O43       1.0  0.9754300000000002  0.60011  0.8860299999999998  1.0000
  O   O44       1.0  0.0614199999999999  0.6561199999999998  0.8196999999999999  1.0000
  O   O45       1.0  0.76668  0.01808999999999999  0.52035  1.0000
  O   O46       1.0  0.6251800000000002  0.9570799999999999  0.4977499999999999  1.0000
  O   O47       1.0  0.6262  0.11414999999999999  0.4926799999999999  1.0000
  O   O48       1.0  0.7704300000000002  0.17913999999999997  0.4752399999999999  1.0000
  O   O49       1.0  0.046169999999999926  0.8819499999999999  0.5725  1.0000
  O   O50       1.0  0.9216600000000001  0.9097799999999999  0.58319  1.0000
  O   O51       1.0  0.48289  0.5001299999999997  0.9152899999999999  1.0000
  O   O52       1.0  0.35485000000000005  0.4354099999999999  0.8749399999999998  1.0000
