data_image0
_chemical_formula_structural       Cu12Ni6H216C180N36O60
_chemical_formula_sum              "Cu12 Ni6 H216 C180 N36 O60"
_cell_length_a       19.64586
_cell_length_b       19.62339
_cell_length_c       29.51479
_cell_angle_alpha    89.96204
_cell_angle_beta     90.04204000000001
_cell_angle_gamma    120.22704

_space_group_name_H-M_alt    "P 1"
_space_group_IT_number       1

loop_
  _space_group_symop_operation_xyz
  'x, y, z'

loop_
  _atom_site_type_symbol
  _atom_site_label
  _atom_site_symmetry_multiplicity
  _atom_site_fract_x
  _atom_site_fract_y
  _atom_site_fract_z
  _atom_site_occupancy
  Cu  Cu1       1.0  0.63736  0.31083  0.32996000000000003  1.0000
  Cu  Cu2       1.0  0.75482  0.3239399999999999  0.49611  1.0000
  Cu  Cu3       1.0  0.6729200000000002  0.36269  0.66265  1.0000
  Cu  Cu4       1.0  0.57057  0.24604  0.82942  1.0000
  Cu  Cu5       1.0  0.68948  0.32663  0.9964300000000003  1.0000
  Cu  Cu6       1.0  0.67624  0.4308399999999999  0.16309  1.0000
  Cu  Cu7       1.0  0.32643  0.68922  0.66979  1.0000
  Cu  Cu8       1.0  0.43122  0.67567  0.50401  1.0000
  Cu  Cu9       1.0  0.31056  0.63809  0.33738  1.0000
  Cu  Cu10      1.0  0.32392  0.75399  0.17031  1.0000
  Cu  Cu11      1.0  0.36311999999999983  0.6734499999999998  0.00363  1.0000
  Cu  Cu12      1.0  0.2456  0.5694  0.83684  1.0000
  Ni  Ni1       1.0  0.5144300000000002  0.0288  0.24026  1.0000
  Ni  Ni2       1.0  0.51439  0.48551999999999995  0.57356  1.0000
  Ni  Ni3       1.0  0.9710700000000001  0.48564999999999997  0.90701  1.0000
  Ni  Ni4       1.0  0.4857299999999999  0.9711199999999999  0.75966  1.0000
  Ni  Ni5       1.0  0.028809999999999978  0.51439  0.42644  1.0000
  Ni  Ni6       1.0  0.48552  0.51442  0.09315  1.0000
  H   H1        1.0  0.5911799999999999  0.1306  0.39262  1.0000
  H   H2        1.0  0.64829  0.0542  0.40417  1.0000
  H   H3        1.0  0.7454  0.01319  0.3845  1.0000
  H   H4        1.0  0.84348  0.08309  0.32318  1.0000
  H   H5        1.0  0.8434000000000001  0.19375  0.28171  1.0000
  H   H6        1.0  0.7451400000000001  0.23367  0.30115  1.0000
  H   H7        1.0  0.9112200000000001  0.42703999999999986  0.57789  1.0000
  H   H8        1.0  0.8172399999999999  0.5194199999999999  0.50882  1.0000
  H   H9        1.0  0.85139  0.65916  0.51896  1.0000
  H   H10       1.0  0.95228  0.74431  0.57581  1.0000
  H   H11       1.0  0.018059999999999875  0.6886499999999998  0.62303  1.0000
  H   H12       1.0  0.9836  0.54942  0.61267  1.0000
  H   H13       1.0  0.3716399999999999  0.96098  0.22239000000000003  1.0000
  H   H14       1.0  0.4642899999999999  0.8796499999999999  0.24566  1.0000
  H   H15       1.0  0.32516  0.8663  0.33132  1.0000
  H   H16       1.0  0.33132999999999985  0.8507099999999999  0.27341  1.0000
  H   H17       1.0  0.55354  0.17307  0.23712  1.0000
  H   H18       1.0  0.47344  0.94398  0.33651  1.0000
  H   H19       1.0  0.43130999999999997  0.8421199999999999  0.32357  1.0000
  H   H20       1.0  0.43957  0.07929  0.16599  1.0000
  H   H21       1.0  0.45705000000000007  0.17216  0.18606000000000003  1.0000
  H   H22       1.0  0.30147  0.9581  0.29197  1.0000
  H   H23       1.0  0.39625  0.01405  0.31712  1.0000
  H   H24       1.0  0.6040900000000001  0.22296  0.16198  1.0000
  H   H25       1.0  0.57172  0.12418999999999998  0.14534  1.0000
  H   H26       1.0  0.64763  0.059699999999999996  0.16546  1.0000
  H   H27       1.0  0.73616  0.11087  0.19727  1.0000
  H   H28       1.0  0.71872  0.21188999999999994  0.16428  1.0000
  H   H29       1.0  0.69269  0.20975  0.22109  1.0000
  H   H30       1.0  0.56519  0.87237  0.28345  1.0000
  H   H31       1.0  0.59213  0.9631599999999999  0.31113  1.0000
  H   H32       1.0  0.6573599999999999  0.08692999999999997  0.26373  1.0000
  H   H33       1.0  0.41818  0.11516  0.26457  1.0000
  H   H34       1.0  0.33925  0.06464  0.22571000000000005  1.0000
  H   H35       1.0  0.60635  0.94497  0.20864  1.0000
  H   H36       1.0  0.6859499999999998  0.9848699999999999  0.2479  1.0000
  H   H37       1.0  0.5404900000000001  0.40971  0.72516  1.0000
  H   H38       1.0  0.40582000000000007  0.35172  0.73731  1.0000
  H   H39       1.0  0.26715  0.25397  0.7176600000000001  1.0000
  H   H40       1.0  0.23837  0.15569  0.65647  1.0000
  H   H41       1.0  0.34919  0.15585  0.61527  1.0000
  H   H42       1.0  0.4878  0.25461  0.63461  1.0000
  H   H43       1.0  0.51593  0.08854  0.91069  1.0000
  H   H44       1.0  0.70286  0.18251  0.84162  1.0000
  H   H45       1.0  0.8083  0.14861  0.8521  1.0000
  H   H46       1.0  0.79187  0.04812  0.90935  1.0000
  H   H47       1.0  0.66991  0.98219  0.95639  1.0000
  H   H48       1.0  0.56542  0.01655  0.94566  1.0000
  H   H49       1.0  0.5896  0.6282  0.5557  1.0000
  H   H50       1.0  0.41518999999999995  0.5352499999999999  0.57861  1.0000
  H   H51       1.0  0.54162  0.67469  0.66447  1.0000
  H   H52       1.0  0.52016  0.6687  0.60651  1.0000
  H   H53       1.0  0.6194  0.44706  0.57027  1.0000
  H   H54       1.0  0.47037000000000007  0.52628  0.66948  1.0000
  H   H55       1.0  0.41085999999999984  0.5681899999999998  0.65642  1.0000
  H   H56       1.0  0.64027  0.56128  0.49923  1.0000
  H   H57       1.0  0.71554  0.5439299999999999  0.51942  1.0000
  H   H58       1.0  0.6575  0.69892  0.62526  1.0000
  H   H59       1.0  0.61821  0.6040999999999997  0.65048  1.0000
  H   H60       1.0  0.61865  0.39643  0.49528  1.0000
  H   H61       1.0  0.55235  0.4283999999999999  0.47837  1.0000
  H   H62       1.0  0.41137  0.35191  0.4984  1.0000
  H   H63       1.0  0.37377  0.26344  0.5303  1.0000
  H   H64       1.0  0.49247  0.2814  0.49755  1.0000
  H   H65       1.0  0.51641  0.30771  0.55435  1.0000
  H   H66       1.0  0.30674999999999997  0.4340999999999999  0.61635  1.0000
  H   H67       1.0  0.37058  0.40744  0.64407  1.0000
  H   H68       1.0  0.42887999999999993  0.34258  0.59672  1.0000
  H   H69       1.0  0.69759  0.5825799999999998  0.59789  1.0000
  H   H70       1.0  0.7261  0.66161  0.5590700000000001  1.0000
  H   H71       1.0  0.33779  0.39297  0.54159  1.0000
  H   H72       1.0  0.29790999999999995  0.3133499999999999  0.58089  1.0000
  H   H73       1.0  0.86991  0.46003999999999995  0.05857  1.0000
  H   H74       1.0  0.9464500000000001  0.59485  0.0707  1.0000
  H   H75       1.0  0.9872800000000002  0.73347  0.05108  1.0000
  H   H76       1.0  0.91746  0.76142  0.98982  1.0000
  H   H77       1.0  0.8064499999999999  0.6499299999999999  0.9486400000000001  1.0000
  H   H78       1.0  0.7667000000000002  0.51138  0.96803  1.0000
  H   H79       1.0  0.57267  0.48467999999999994  0.24435  1.0000
  H   H80       1.0  0.47963000000000006  0.29722  0.17545  1.0000
  H   H81       1.0  0.33983  0.19130999999999998  0.18565  1.0000
  H   H82       1.0  0.25529  0.20724  0.24253  1.0000
  H   H83       1.0  0.31153  0.3293  0.28958  1.0000
  H   H84       1.0  0.45082  0.43431  0.27920000000000006  1.0000
  H   H85       1.0  0.038359999999999915  0.4106799999999999  0.88899  1.0000
  H   H86       1.0  0.12051999999999996  0.5855  0.9121300000000002  1.0000
  H   H87       1.0  0.13309999999999997  0.4589799999999999  0.99786  1.0000
  H   H88       1.0  0.14868  0.48074  0.93993  1.0000
  H   H89       1.0  0.82707  0.38008  0.90367  1.0000
  H   H90       1.0  0.05605999999999989  0.5297399999999998  0.00293  1.0000
  H   H91       1.0  0.15784000000000006  0.58977  0.98997  1.0000
  H   H92       1.0  0.92038  0.36005  0.8325000000000001  1.0000
  H   H93       1.0  0.82746  0.28429  0.85253  1.0000
  H   H94       1.0  0.04097000000000001  0.34295  0.9585600000000001  1.0000
  H   H95       1.0  0.9854900000000001  0.38191999999999987  0.9837500000000001  1.0000
  H   H96       1.0  0.7770700000000001  0.38062999999999997  0.82855  1.0000
  H   H97       1.0  0.87572  0.44736  0.8118  1.0000
  H   H98       1.0  0.9407300000000001  0.58832  0.83195  1.0000
  H   H99       1.0  0.88983  0.62566  0.8637000000000002  1.0000
  H   H100      1.0  0.7886  0.50671  0.83079  1.0000
  H   H101      1.0  0.7907099999999999  0.48268999999999995  0.8876  1.0000
  H   H102      1.0  0.12784  0.6937  0.95  1.0000
  H   H103      1.0  0.03706999999999993  0.6292199999999999  0.97759  1.0000
  H   H104      1.0  0.91357  0.57047  0.93022  1.0000
  H   H105      1.0  0.88414  0.30224  0.93109  1.0000
  H   H106      1.0  0.9345300000000001  0.27398  0.89225  1.0000
  H   H107      1.0  0.055359999999999986  0.66213  0.87513  1.0000
  H   H108      1.0  0.01584000000000001  0.7019  0.91438  1.0000
  H   H109      1.0  0.4608699999999999  0.8696599999999998  0.60727  1.0000
  H   H110      1.0  0.5948800000000001  0.9463399999999998  0.59585  1.0000
  H   H111      1.0  0.7332499999999997  0.9873099999999999  0.6156  1.0000
  H   H112      1.0  0.76103  0.91726  0.67688  1.0000
  H   H113      1.0  0.6496400000000001  0.8063899999999999  0.71816  1.0000
  H   H114      1.0  0.51125  0.76642  0.69862  1.0000
  H   H115      1.0  0.48433  0.57339  0.42209  1.0000
  H   H116      1.0  0.29740999999999995  0.48013999999999996  0.491  1.0000
  H   H117      1.0  0.19153  0.34017  0.48093  1.0000
  H   H118      1.0  0.20744  0.25525  0.42425  1.0000
  H   H119      1.0  0.32919  0.31147  0.37709000000000004  1.0000
  H   H120      1.0  0.4341400000000001  0.45096  0.38732  1.0000
  H   H121      1.0  0.41089000000000003  0.03854  0.77751  1.0000
  H   H122      1.0  0.58532  0.12044  0.75427  1.0000
  H   H123      1.0  0.45909000000000005  0.13339  0.66866  1.0000
  H   H124      1.0  0.481  0.14887  0.72658  1.0000
  H   H125      1.0  0.37996  0.82675  0.7628100000000001  1.0000
  H   H126      1.0  0.52963  0.056059999999999985  0.66343  1.0000
  H   H127      1.0  0.5896899999999999  0.15793999999999994  0.6764  1.0000
  H   H128      1.0  0.3603800000000001  0.92052  0.83394  1.0000
  H   H129      1.0  0.28450999999999993  0.8274999999999998  0.81399  1.0000
  H   H130      1.0  0.34324  0.04127  0.70798  1.0000
  H   H131      1.0  0.38192  0.9855499999999999  0.68276  1.0000
  H   H132      1.0  0.3807699999999999  0.7770399999999997  0.83797  1.0000
  H   H133      1.0  0.44747999999999993  0.8758699999999998  0.85458  1.0000
  H   H134      1.0  0.5883  0.94076  0.8344400000000001  1.0000
  H   H135      1.0  0.6254699999999999  0.8896999999999998  0.80269  1.0000
  H   H136      1.0  0.50667  0.78852  0.83569  1.0000
  H   H137      1.0  0.48262  0.7905099999999998  0.77886  1.0000
  H   H138      1.0  0.69354  0.12798  0.71641  1.0000
  H   H139      1.0  0.62924  0.03713  0.68877  1.0000
  H   H140      1.0  0.57045  0.91341  0.73619  1.0000
  H   H141      1.0  0.30236999999999997  0.8841899999999998  0.7354  1.0000
  H   H142      1.0  0.27429999999999993  0.9347399999999998  0.77426  1.0000
  H   H143      1.0  0.66202  0.05543  0.79124  1.0000
  H   H144      1.0  0.70164  0.015739999999999997  0.75201  1.0000
  H   H145      1.0  0.13050000000000006  0.59039  0.27486  1.0000
  H   H146      1.0  0.05401  0.64803  0.26262  1.0000
  H   H147      1.0  0.013289999999999975  0.74553  0.28213  1.0000
  H   H148      1.0  0.08297999999999994  0.8437599999999997  0.34342  1.0000
  H   H149      1.0  0.19356999999999994  0.8437399999999999  0.38488  1.0000
  H   H150      1.0  0.23322000000000007  0.74522  0.36568  1.0000
  H   H151      1.0  0.42761999999999994  0.91154  0.08915  1.0000
  H   H152      1.0  0.52024  0.81771  0.15829  1.0000
  H   H153      1.0  0.6597600000000001  0.8516299999999998  0.1478  1.0000
  H   H154      1.0  0.74429  0.9521299999999999  0.09057  1.0000
  H   H155      1.0  0.6886  0.01817  0.04357  1.0000
  H   H156      1.0  0.5496  0.98388  0.05434  1.0000
  H   H157      1.0  0.9609700000000001  0.37166  0.44432  1.0000
  H   H158      1.0  0.87951  0.46411999999999987  0.42135  1.0000
  H   H159      1.0  0.86623  0.32504  0.33546  1.0000
  H   H160      1.0  0.8506600000000001  0.33083  0.39339  1.0000
  H   H161      1.0  0.17272  0.55349  0.42981  1.0000
  H   H162      1.0  0.9437  0.47341000000000005  0.3305  1.0000
  H   H163      1.0  0.84201  0.43115  0.34349  1.0000
  H   H164      1.0  0.07911  0.43912  0.50083  1.0000
  H   H165      1.0  0.17188  0.45676  0.48065  1.0000
  H   H166      1.0  0.958  0.30119  0.37474  1.0000
  H   H167      1.0  0.013780000000000013  0.39608  0.34958  1.0000
  H   H168      1.0  0.2228  0.60412  0.50484  1.0000
  H   H169      1.0  0.12428000000000002  0.57183  0.52167  1.0000
  H   H170      1.0  0.059770000000000004  0.6478  0.50161  1.0000
  H   H171      1.0  0.11078000000000003  0.73633  0.46972  1.0000
  H   H172      1.0  0.2118  0.71889  0.50256  1.0000
  H   H173      1.0  0.2094  0.69268  0.44577000000000006  1.0000
  H   H174      1.0  0.87234  0.5651  0.38357  1.0000
  H   H175      1.0  0.9629900000000001  0.59201  0.35588  1.0000
  H   H176      1.0  0.08663999999999998  0.6572799999999998  0.40331000000000006  1.0000
  H   H177      1.0  0.11489  0.41797  0.40219  1.0000
  H   H178      1.0  0.06431999999999999  0.33889  0.441  1.0000
  H   H179      1.0  0.94483  0.60641  0.45836000000000005  1.0000
  H   H180      1.0  0.9847699999999998  0.6860399999999998  0.41906  1.0000
  H   H181      1.0  0.40978000000000003  0.54047  0.94137  1.0000
  H   H182      1.0  0.35152000000000005  0.40557  0.92931  1.0000
  H   H183      1.0  0.25375  0.26681  0.94906  1.0000
  H   H184      1.0  0.15571  0.2383  0.010260000000000002  1.0000
  H   H185      1.0  0.15601  0.34946  0.05133  1.0000
  H   H186      1.0  0.25490999999999997  0.48817999999999995  0.03185  1.0000
  H   H187      1.0  0.08779999999999985  0.5153699999999998  0.75562  1.0000
  H   H188      1.0  0.18257999999999994  0.7026599999999998  0.82474  1.0000
  H   H189      1.0  0.14869999999999997  0.80818  0.8145300000000001  1.0000
  H   H190      1.0  0.04819000000000003  0.79203  0.7574900000000001  1.0000
  H   H191      1.0  0.98219  0.67009  0.71033  1.0000
  H   H192      1.0  0.016420000000000008  0.56546  0.72071  1.0000
  H   H193      1.0  0.62837  0.58995  0.1111  1.0000
  H   H194      1.0  0.53503  0.41505  0.08802  1.0000
  H   H195      1.0  0.67442  0.54167  0.00223  1.0000
  H   H196      1.0  0.66835  0.51995  0.06017  1.0000
  H   H197      1.0  0.44719  0.61951  0.09629  1.0000
  H   H198      1.0  0.5262  0.47047  0.99716  1.0000
  H   H199      1.0  0.56793  0.41072  0.01018  1.0000
  H   H200      1.0  0.561  0.64033  0.16751  1.0000
  H   H201      1.0  0.54378  0.71575  0.14733  1.0000
  H   H202      1.0  0.69867  0.65759  0.04148  1.0000
  H   H203      1.0  0.6039  0.6183  0.01634  1.0000
  H   H204      1.0  0.39665  0.61897  0.17137  1.0000
  H   H205      1.0  0.42848  0.55247  0.18822  1.0000
  H   H206      1.0  0.35205  0.41146  0.1681  1.0000
  H   H207      1.0  0.2635699999999999  0.3738499999999999  0.13629000000000002  1.0000
  H   H208      1.0  0.28163  0.49269  0.16914000000000004  1.0000
  H   H209      1.0  0.3078  0.51671  0.11233  1.0000
  H   H210      1.0  0.43366  0.30651  0.05018  1.0000
  H   H211      1.0  0.40733  0.37069999999999986  0.02254  1.0000
  H   H212      1.0  0.34274000000000004  0.42919  0.06981  1.0000
  H   H213      1.0  0.58245  0.69774  0.06885  1.0000
  H   H214      1.0  0.66138  0.72643  0.1077  1.0000
  H   H215      1.0  0.39283  0.33792  0.12502  1.0000
  H   H216      1.0  0.31328  0.29791  0.08574  1.0000
  C   C1        1.0  0.69318  0.2854099999999999  0.41035  1.0000
  C   C2        1.0  0.7142099999999999  0.3724999999999999  0.41144  1.0000
  C   C3        1.0  0.57298  0.14509  0.32178  1.0000
  C   C4        1.0  0.6268800000000001  0.16684999999999994  0.36387  1.0000
  C   C5        1.0  0.6901199999999998  0.14602  0.35389  1.0000
  C   C6        1.0  0.69094  0.08436  0.37725  1.0000
  C   C7        1.0  0.74574  0.06151999999999999  0.3662  1.0000
  C   C8        1.0  0.80069  0.10069  0.33174  1.0000
  C   C9        1.0  0.80054  0.1628  0.30845  1.0000
  C   C10       1.0  0.7453800000000002  0.18534999999999993  0.31935  1.0000
  C   C11       1.0  0.6643299999999999  0.30056  0.57228  1.0000
  C   C12       1.0  0.74881  0.36604  0.5843000000000002  1.0000
  C   C13       1.0  0.8810900000000002  0.44218  0.5516  1.0000
  C   C14       1.0  0.91548  0.43697  0.50532  1.0000
  C   C15       1.0  0.89839  0.52563  0.56007  1.0000
  C   C16       1.0  0.8608500000000001  0.55676  0.53396  1.0000
  C   C17       1.0  0.8801800000000001  0.63518  0.53971  1.0000
  C   C18       1.0  0.93689  0.68311  0.57164  1.0000
  C   C19       1.0  0.9740100000000002  0.65206  0.59799  1.0000
  C   C20       1.0  0.9546200000000001  0.57357  0.5922  1.0000
  C   C21       1.0  0.36174  0.89268  0.30110000000000003  1.0000
  C   C22       1.0  0.44133000000000006  0.89908  0.31052  1.0000
  C   C23       1.0  0.45656  0.11783999999999997  0.19586  1.0000
  C   C24       1.0  0.36249999999999993  0.96968  0.29113  1.0000
  C   C25       1.0  0.5951  0.16574  0.17384  1.0000
  C   C26       1.0  0.67481  0.09807  0.19501000000000002  1.0000
  C   C27       1.0  0.67382  0.17525  0.1895  1.0000
  C   C28       1.0  0.57026  0.93048  0.27919  1.0000
  C   C29       1.0  0.39863  0.0765  0.23468  1.0000
  C   C30       1.0  0.62721  0.97674  0.2409  1.0000
  C   C31       1.0  0.59296  0.30781  0.7435  1.0000
  C   C32       1.0  0.65906  0.28719  0.74444  1.0000
  C   C33       1.0  0.57209  0.42661  0.65425  1.0000
  C   C34       1.0  0.54018  0.37329  0.69669  1.0000
  C   C35       1.0  0.45557  0.3098  0.6871500000000001  1.0000
  C   C36       1.0  0.3931299999999999  0.30890999999999996  0.71047  1.0000
  C   C37       1.0  0.31516  0.25372  0.69946  1.0000
  C   C38       1.0  0.29901  0.19856  0.6651  1.0000
  C   C39       1.0  0.36128000000000005  0.1988  0.64193  1.0000
  C   C40       1.0  0.43926  0.25427  0.65278  1.0000
  C   C41       1.0  0.63652  0.33553  0.9061900000000003  1.0000
  C   C42       1.0  0.61766  0.25107  0.91787  1.0000
  C   C43       1.0  0.56181  0.11915  0.88469  1.0000
  C   C44       1.0  0.5222299999999999  0.08511999999999997  0.83832  1.0000
  C   C45       1.0  0.6277  0.10184  0.89318  1.0000
  C   C46       1.0  0.69643  0.13916  0.8669600000000001  1.0000
  C   C47       1.0  0.75533  0.11987  0.87283  1.0000
  C   C48       1.0  0.74616  0.06335  0.90495  1.0000
  C   C49       1.0  0.67773  0.026169999999999992  0.93124  1.0000
  C   C50       1.0  0.6188800000000001  0.04556  0.92534  1.0000
  C   C51       1.0  0.53144  0.63823  0.63422  1.0000
  C   C52       1.0  0.45782  0.55837  0.64345  1.0000
  C   C53       1.0  0.6616399999999999  0.5441999999999999  0.52911  1.0000
  C   C54       1.0  0.60775  0.6377399999999998  0.62442  1.0000
  C   C55       1.0  0.5704  0.40528  0.50699  1.0000
  C   C56       1.0  0.42252  0.32496  0.52803  1.0000
  C   C57       1.0  0.50084  0.3263699999999999  0.52268  1.0000
  C   C58       1.0  0.3597899999999999  0.42920999999999987  0.61212  1.0000
  C   C59       1.0  0.6784199999999999  0.6020099999999998  0.56801  1.0000
  C   C60       1.0  0.34878  0.37221999999999994  0.57385  1.0000
  C   C61       1.0  0.71504  0.4077699999999999  0.07696  1.0000
  C   C62       1.0  0.6280700000000001  0.3412999999999999  0.07819  1.0000
  C   C63       1.0  0.85461  0.42809  0.98786  1.0000
  C   C64       1.0  0.83342  0.46001  0.03019  1.0000
  C   C65       1.0  0.8545400000000001  0.54446  0.02053  1.0000
  C   C66       1.0  0.91623  0.60726  0.04385  1.0000
  C   C67       1.0  0.9389800000000001  0.68515  0.03282  1.0000
  C   C68       1.0  0.8997600000000001  0.70084  0.99844  1.0000
  C   C69       1.0  0.83755  0.63818  0.97527  1.0000
  C   C70       1.0  0.81506  0.56027  0.98615  1.0000
  C   C71       1.0  0.69969  0.36539  0.24015  1.0000
  C   C72       1.0  0.63391  0.38373  0.25175  1.0000
  C   C73       1.0  0.55769  0.43886  0.21836  1.0000
  C   C74       1.0  0.56313  0.47819  0.17195000000000002  1.0000
  C   C75       1.0  0.4741899999999999  0.3724099999999999  0.22682  1.0000
  C   C76       1.0  0.44263  0.30354  0.20067  1.0000
  C   C77       1.0  0.36412  0.24429  0.20639  1.0000
  C   C78       1.0  0.31652  0.25318  0.23832000000000006  1.0000
  C   C79       1.0  0.34788  0.32168  0.26458  1.0000
  C   C80       1.0  0.42645  0.38088  0.25884  1.0000
  C   C81       1.0  0.10684000000000005  0.46916  0.96761  1.0000
  C   C82       1.0  0.10085000000000002  0.54262  0.97694  1.0000
  C   C83       1.0  0.8818400000000001  0.3383099999999999  0.8623600000000001  1.0000
  C   C84       1.0  0.02967999999999995  0.3925899999999999  0.95772  1.0000
  C   C85       1.0  0.83434  0.4291  0.84035  1.0000
  C   C86       1.0  0.90242  0.577  0.86148  1.0000
  C   C87       1.0  0.82514  0.49847  0.856  1.0000
  C   C88       1.0  0.06976  0.64036  0.94567  1.0000
  C   C89       1.0  0.92286  0.3215899999999999  0.90124  1.0000
  C   C90       1.0  0.023679999999999878  0.6511199999999998  0.90739  1.0000
  C   C91       1.0  0.40828999999999976  0.7143499999999998  0.5896400000000002  1.0000
  C   C92       1.0  0.34204  0.62709  0.58869  1.0000
  C   C93       1.0  0.42794  0.85474  0.67806  1.0000
  C   C94       1.0  0.46020000000000005  0.8333  0.63595  1.0000
  C   C95       1.0  0.54442  0.85436  0.6460300000000001  1.0000
  C   C96       1.0  0.60722  0.91616  0.6227800000000001  1.0000
  C   C97       1.0  0.68499  0.93897  0.63387  1.0000
  C   C98       1.0  0.7005399999999998  0.8996799999999998  0.66828  1.0000
  C   C99       1.0  0.63792  0.83748  0.69148  1.0000
  C   C100      1.0  0.5600799999999999  0.8149099999999998  0.6805400000000001  1.0000
  C   C101      1.0  0.36404  0.69943  0.42778  1.0000
  C   C102      1.0  0.38281999999999994  0.6340299999999998  0.41573  1.0000
  C   C103      1.0  0.43886999999999976  0.5579599999999998  0.44833  1.0000
  C   C104      1.0  0.47869  0.56315  0.49461  1.0000
  C   C105      1.0  0.3725  0.4744  0.43979000000000007  1.0000
  C   C106      1.0  0.30366000000000004  0.4429499999999999  0.46587  1.0000
  C   C107      1.0  0.24444  0.36437  0.46019  1.0000
  C   C108      1.0  0.25331  0.31657  0.42837  1.0000
  C   C109      1.0  0.32165  0.34795  0.40205  1.0000
  C   C110      1.0  0.3808499999999999  0.42659999999999987  0.40774  1.0000
  C   C111      1.0  0.46928000000000003  0.107  0.69885  1.0000
  C   C112      1.0  0.54258  0.10089999999999999  0.68942  1.0000
  C   C113      1.0  0.33849  0.88187  0.8041  1.0000
  C   C114      1.0  0.39274  0.029849999999999998  0.70878  1.0000
  C   C115      1.0  0.42917  0.83432  0.82609  1.0000
  C   C116      1.0  0.5769  0.90235  0.80492  1.0000
  C   C117      1.0  0.49843  0.82504  0.81045  1.0000
  C   C118      1.0  0.64027  0.06982  0.7207  1.0000
  C   C119      1.0  0.32179  0.92296  0.76525  1.0000
  C   C120      1.0  0.65097  0.02368  0.75898  1.0000
  C   C121      1.0  0.28518  0.69242  0.25643  1.0000
  C   C122      1.0  0.37203  0.71313  0.25545  1.0000
  C   C123      1.0  0.14538  0.5734  0.34572  1.0000
  C   C124      1.0  0.16679999999999995  0.62682  0.30335  1.0000
  C   C125      1.0  0.14569999999999994  0.6899999999999998  0.31297  1.0000
  C   C126      1.0  0.08417000000000001  0.69079  0.28951  1.0000
  C   C127      1.0  0.061509999999999905  0.7458299999999998  0.30046  1.0000
  C   C128      1.0  0.10060999999999998  0.80095  0.33487  1.0000
  C   C129      1.0  0.16260999999999995  0.8007899999999999  0.3582  1.0000
  C   C130      1.0  0.18498999999999988  0.7454499999999997  0.34743  1.0000
  C   C131      1.0  0.30106  0.66445  0.09373  1.0000
  C   C132      1.0  0.36672  0.7490899999999998  0.08203  1.0000
  C   C133      1.0  0.4427900000000001  0.8810899999999999  0.11526000000000002  1.0000
  C   C134      1.0  0.43708  0.91494  0.16164  1.0000
  C   C135      1.0  0.52621  0.89861  0.10684  1.0000
  C   C136      1.0  0.5574  0.86115  0.13299  1.0000
  C   C137      1.0  0.63568  0.88042  0.12711  1.0000
  C   C138      1.0  0.6833  0.93698  0.095  1.0000
  C   C139      1.0  0.65225  0.97421  0.06873  1.0000
  C   C140      1.0  0.5739200000000002  0.9548700000000001  0.07466  1.0000
  C   C141      1.0  0.89258  0.36148  0.36574  1.0000
  C   C142      1.0  0.89893  0.44119  0.35651000000000005  1.0000
  C   C143      1.0  0.11759  0.45629  0.47095  1.0000
  C   C144      1.0  0.9695400000000001  0.3622899999999999  0.37561  1.0000
  C   C145      1.0  0.16558000000000006  0.59508  0.49309  1.0000
  C   C146      1.0  0.09795000000000002  0.6749  0.472  1.0000
  C   C147      1.0  0.17506000000000005  0.67387  0.4774  1.0000
  C   C148      1.0  0.93039  0.5702  0.38783  1.0000
  C   C149      1.0  0.07627  0.3984  0.43206  1.0000
  C   C150      1.0  0.9766200000000002  0.62725  0.42611  1.0000
  C   C151      1.0  0.30749  0.59258  0.92305  1.0000
  C   C152      1.0  0.28703  0.65883  0.92184  1.0000
  C   C153      1.0  0.42655999999999994  0.572  0.01218  1.0000
  C   C154      1.0  0.3733  0.54019  0.96978  1.0000
  C   C155      1.0  0.30974000000000007  0.45559  0.97935  1.0000
  C   C156      1.0  0.30875  0.39297  0.95611  1.0000
  C   C157      1.0  0.25362999999999997  0.31496999999999997  0.9672300000000003  1.0000
  C   C158      1.0  0.19858999999999993  0.2989699999999999  0.00159  1.0000
  C   C159      1.0  0.19891  0.36143  0.02469  1.0000
  C   C160      1.0  0.2543299999999999  0.4394399999999999  0.01373  1.0000
  C   C161      1.0  0.33491000000000004  0.63546  0.75983  1.0000
  C   C162      1.0  0.25048  0.61661  0.7482100000000002  1.0000
  C   C163      1.0  0.11886999999999992  0.5612199999999998  0.7816  1.0000
  C   C164      1.0  0.08486999999999996  0.5218  0.82798  1.0000
  C   C165      1.0  0.10192  0.62749  0.77317  1.0000
  C   C166      1.0  0.1392499999999999  0.6962499999999998  0.79943  1.0000
  C   C167      1.0  0.11998  0.75525  0.79373  1.0000
  C   C168      1.0  0.06343999999999997  0.74625  0.76171  1.0000
  C   C169      1.0  0.026219999999999976  0.67782  0.73537  1.0000
  C   C170      1.0  0.04559999999999998  0.61886  0.74111  1.0000
  C   C171      1.0  0.63797  0.53139  0.03249  1.0000
  C   C172      1.0  0.55818  0.45776  0.02317  1.0000
  C   C173      1.0  0.54408  0.66181  0.1376  1.0000
  C   C174      1.0  0.63756  0.60782  0.04236  1.0000
  C   C175      1.0  0.40537000000000006  0.5706  0.15963  1.0000
  C   C176      1.0  0.32504  0.42265  0.13853  1.0000
  C   C177      1.0  0.32648  0.50105  0.14396  1.0000
  C   C178      1.0  0.429  0.35973  0.05447  1.0000
  C   C179      1.0  0.6018899999999999  0.6786199999999998  0.09875000000000002  1.0000
  C   C180      1.0  0.37212  0.34882  0.09273  1.0000
  N   N1        1.0  0.65695  0.24961  0.37286  1.0000
  N   N2        1.0  0.79804  0.3833499999999999  0.55038  1.0000
  N   N3        1.0  0.3991  0.00363  0.24686  1.0000
  N   N4        1.0  0.49250000000000005  0.92261  0.2698  1.0000
  N   N5        1.0  0.53532  0.13395  0.21036  1.0000
  N   N6        1.0  0.63039  0.05332  0.23554  1.0000
  N   N7        1.0  0.59272  0.34336  0.70586  1.0000
  N   N8        1.0  0.58648  0.20229  0.88363  1.0000
  N   N9        1.0  0.60496  0.60107  0.5802  1.0000
  N   N10       1.0  0.4300399999999999  0.50716  0.60271  1.0000
  N   N11       1.0  0.59858  0.46519  0.54347  1.0000
  N   N12       1.0  0.42225000000000007  0.36939  0.56849  1.0000
  N   N13       1.0  0.75077  0.40717  0.03951  1.0000
  N   N14       1.0  0.61666  0.41512  0.21752  1.0000
  N   N15       1.0  0.9957900000000001  0.39526  0.9134700000000002  1.0000
  N   N16       1.0  0.07749999999999999  0.57039  0.93621  1.0000
  N   N17       1.0  0.8660500000000001  0.4011  0.87686  1.0000
  N   N18       1.0  0.94707  0.57738  0.902  1.0000
  N   N19       1.0  0.40733  0.7505  0.62682  1.0000
  N   N20       1.0  0.41468000000000005  0.6166  0.44964  1.0000
  N   N21       1.0  0.39543  0.99591  0.75303  1.0000
  N   N22       1.0  0.57032  0.07747  0.73013  1.0000
  N   N23       1.0  0.4011099999999999  0.86592  0.78956  1.0000
  N   N24       1.0  0.57727  0.947  0.76438  1.0000
  N   N25       1.0  0.24947  0.65714  0.29417  1.0000
  N   N26       1.0  0.38418  0.79785  0.11624  1.0000
  N   N27       1.0  0.0035599999999999816  0.39897  0.41985  1.0000
  N   N28       1.0  0.92253  0.49236  0.39726  1.0000
  N   N29       1.0  0.13369000000000006  0.5352  0.45658  1.0000
  N   N30       1.0  0.05308999999999999  0.63037  0.4315200000000001  1.0000
  N   N31       1.0  0.3436399999999999  0.5929699999999998  0.9605700000000001  1.0000
  N   N32       1.0  0.20177  0.58514  0.78246  1.0000
  N   N33       1.0  0.60105  0.60508  0.08661  1.0000
  N   N34       1.0  0.507  0.4299  0.06389  1.0000
  N   N35       1.0  0.46521  0.59872  0.12316  1.0000
  N   N36       1.0  0.36938999999999994  0.4224199999999999  0.09806  1.0000
  O   O1        1.0  0.69365  0.3976499999999999  0.37693  1.0000
  O   O2        1.0  0.75087  0.41293999999999986  0.44556  1.0000
  O   O3        1.0  0.71115  0.25482  0.44318  1.0000
  O   O4        1.0  0.5653  0.19935999999999998  0.3024  1.0000
  O   O5        1.0  0.54177  0.07453  0.3085  1.0000
  O   O6        1.0  0.65315  0.27285  0.5318  1.0000
  O   O7        1.0  0.76509  0.3976499999999999  0.62356  1.0000
  O   O8        1.0  0.61268  0.2794299999999999  0.60256  1.0000
  O   O9        1.0  0.87304  0.37705  0.47988  1.0000
  O   O10       1.0  0.98331  0.49233  0.49509  1.0000
  O   O11       1.0  0.70344  0.30598  0.70934  1.0000
  O   O12       1.0  0.6639900000000002  0.25268  0.77927  1.0000
  O   O13       1.0  0.54525  0.29018999999999995  0.7767500000000002  1.0000
  O   O14       1.0  0.63394  0.43439  0.63476  1.0000
  O   O15       1.0  0.5326  0.45738  0.6409  1.0000
  O   O16       1.0  0.61998  0.34697  0.86581  1.0000
  O   O17       1.0  0.63215  0.23434  0.9572300000000001  1.0000
  O   O18       1.0  0.66677  0.38699  0.9366700000000001  1.0000
  O   O19       1.0  0.50319  0.12697  0.81371  1.0000
  O   O20       1.0  0.51148  0.018289999999999994  0.82733  1.0000
  O   O21       1.0  0.60229  0.29631  0.0433  1.0000
  O   O22       1.0  0.58871  0.33657  0.11296  1.0000
  O   O23       1.0  0.7454800000000001  0.4564  0.10981  1.0000
  O   O24       1.0  0.80027  0.3658999999999999  0.96847  1.0000
  O   O25       1.0  0.92512  0.4677399999999999  0.97457  1.0000
  O   O26       1.0  0.7277  0.38168  0.19975  1.0000
  O   O27       1.0  0.60219  0.3683  0.29098  1.0000
  O   O28       1.0  0.72076  0.33531  0.27072  1.0000
  O   O29       1.0  0.62364  0.49663  0.14709  1.0000
  O   O30       1.0  0.50747  0.48956999999999995  0.16121  1.0000
  O   O31       1.0  0.29604  0.60205  0.6231  1.0000
  O   O32       1.0  0.33843999999999996  0.5865399999999997  0.5547  1.0000
  O   O33       1.0  0.45742000000000005  0.74459  0.55697  1.0000
  O   O34       1.0  0.36578999999999995  0.8002899999999997  0.6974  1.0000
  O   O35       1.0  0.46738  0.92531  0.69137  1.0000
  O   O36       1.0  0.38061  0.7269899999999998  0.46827  1.0000
  O   O37       1.0  0.36738  0.60261  0.37641  1.0000
  O   O38       1.0  0.33359  0.72062  0.39749  1.0000
  O   O39       1.0  0.49704000000000004  0.6233  0.51994  1.0000
  O   O40       1.0  0.49061  0.50763  0.50491  1.0000
  O   O41       1.0  0.39763  0.69431  0.29056  1.0000
  O   O42       1.0  0.41152  0.74766  0.22064  1.0000
  O   O43       1.0  0.25481000000000004  0.70961  0.22315  1.0000
  O   O44       1.0  0.1995699999999999  0.5657399999999998  0.3651400000000001  1.0000
  O   O45       1.0  0.07497000000000004  0.54242  0.35909  1.0000
  O   O46       1.0  0.27299  0.65286  0.1341  1.0000
  O   O47       1.0  0.39818  0.76586  0.04274000000000001  1.0000
  O   O48       1.0  0.27999  0.61298  0.0633  1.0000
  O   O49       1.0  0.37603  0.87293  0.18623000000000003  1.0000
  O   O50       1.0  0.49334  0.9818799999999999  0.17265  1.0000
  O   O51       1.0  0.3062999999999999  0.7037399999999999  0.95674  1.0000
  O   O52       1.0  0.25227  0.66343  0.88706  1.0000
  O   O53       1.0  0.28934  0.54417  0.8901  1.0000
  O   O54       1.0  0.43463999999999997  0.63409  0.0316  1.0000
  O   O55       1.0  0.4572399999999999  0.53236  0.02549  1.0000
  O   O56       1.0  0.34664  0.61943  0.80029  1.0000
  O   O57       1.0  0.23391999999999996  0.6317  0.70897  1.0000
  O   O58       1.0  0.38619  0.66563  0.72929  1.0000
  O   O59       1.0  0.12681  0.50302  0.85268  1.0000
  O   O60       1.0  0.017919999999999877  0.5106499999999998  0.83882  1.0000
