data_image0
_chemical_formula_structural       Zn8H160C232N24O40
_chemical_formula_sum              "Zn8 H160 C232 N24 O40"
_cell_length_a       17.52781
_cell_length_b       21.40026
_cell_length_c       21.40153
_cell_angle_alpha    80.23581
_cell_angle_beta     65.60966
_cell_angle_gamma    65.55764

_space_group_name_H-M_alt    "P 1"
_space_group_IT_number       1

loop_
  _space_group_symop_operation_xyz
  'x, y, z'

loop_
  _atom_site_type_symbol
  _atom_site_label
  _atom_site_symmetry_multiplicity
  _atom_site_fract_x
  _atom_site_fract_y
  _atom_site_fract_z
  _atom_site_occupancy
  Zn  Zn1       1.0  0.32167000000000007  0.03761  0.27264  1.0000
  Zn  Zn2       1.0  0.6324200000000001  0.4616  0.22823999999999997  1.0000
  Zn  Zn3       1.0  0.8595700000000001  0.27271  0.4617  1.0000
  Zn  Zn4       1.0  0.5944600000000001  0.22797999999999996  0.03808  1.0000
  Zn  Zn5       1.0  0.6783300000000001  0.9623799999999999  0.72736  1.0000
  Zn  Zn6       1.0  0.36756999999999995  0.53839  0.77176  1.0000
  Zn  Zn7       1.0  0.1404200000000001  0.72729  0.5383  1.0000
  Zn  Zn8       1.0  0.40554000000000007  0.77202  0.96191  1.0000
  H   H1        1.0  0.07661999999999998  0.99654  0.29268  1.0000
  H   H2        1.0  0.98243  0.9632999999999999  0.25084  1.0000
  H   H3        1.0  0.17222000000000007  0.9593199999999998  0.04389  1.0000
  H   H4        1.0  0.26401  0.9938899999999999  0.08556  1.0000
  H   H5        1.0  0.9929499999999999  0.0757  0.10793  1.0000
  H   H6        1.0  0.86808  0.16356  0.07641  1.0000
  H   H7        1.0  0.77449  0.0093  0.07083  1.0000
  H   H8        1.0  0.90348  0.91889  0.09819  1.0000
  H   H9        1.0  0.17449  0.16015  0.35082  1.0000
  H   H10       1.0  0.10228999999999999  0.28513  0.33577  1.0000
  H   H11       1.0  0.30526000000000003  0.26001  0.12824  1.0000
  H   H12       1.0  0.36719000000000007  0.13533999999999996  0.15212  1.0000
  H   H13       1.0  0.018479999999999986  0.37187  0.28255  1.0000
  H   H14       1.0  0.95603  0.49612  0.25656  1.0000
  H   H15       1.0  0.20959  0.4916499999999999  0.12465999999999999  1.0000
  H   H16       1.0  0.2841  0.36816  0.14693  1.0000
  H   H17       1.0  0.3260100000000001  0.9212199999999999  0.36082  1.0000
  H   H18       1.0  0.39229999999999987  0.79387  0.36008  1.0000
  H   H19       1.0  0.5547599999999999  0.80407  0.14452  1.0000
  H   H20       1.0  0.4776500000000001  0.93172  0.15447  1.0000
  H   H21       1.0  0.36807000000000006  0.5024  0.20847  1.0000
  H   H22       1.0  0.19830000000000003  0.53507  0.24977  1.0000
  H   H23       1.0  0.17375999999999997  0.54011  0.45688  1.0000
  H   H24       1.0  0.34307  0.50595  0.41557000000000005  1.0000
  H   H25       1.0  0.17672  0.42237  0.39295  1.0000
  H   H26       1.0  0.10709000000000005  0.33554999999999996  0.42448  1.0000
  H   H27       1.0  0.8535700000000002  0.49154999999999993  0.42824  1.0000
  H   H28       1.0  0.92083  0.58076  0.40104  1.0000
  H   H29       1.0  0.68539  0.34064  0.15013  1.0000
  H   H30       1.0  0.72294  0.21565  0.16449  1.0000
  H   H31       1.0  0.69339  0.23903  0.37193  1.0000
  H   H32       1.0  0.6551  0.3637  0.34839  1.0000
  H   H33       1.0  0.67335  0.12901999999999997  0.2174  1.0000
  H   H34       1.0  0.70924  0.00479  0.24315  1.0000
  H   H35       1.0  0.8255299999999999  0.00789  0.3754  1.0000
  H   H36       1.0  0.7990499999999997  0.13117  0.35314  1.0000
  H   H37       1.0  0.60802  0.57782  0.13977  1.0000
  H   H38       1.0  0.5461700000000002  0.70524  0.14041  1.0000
  H   H39       1.0  0.5038700000000002  0.69468  0.3555  1.0000
  H   H40       1.0  0.56455  0.56707  0.3457  1.0000
  H   H41       1.0  0.5735799999999999  0.29304  0.50285  1.0000
  H   H42       1.0  0.44599000000000005  0.25132  0.5359  1.0000
  H   H43       1.0  0.6320899999999999  0.04414  0.53974  1.0000
  H   H44       1.0  0.75884  0.08601  0.50487  1.0000
  H   H45       1.0  0.56916  0.10763999999999999  0.42255  1.0000
  H   H46       1.0  0.5311299999999998  0.07625  0.33577  1.0000
  H   H47       1.0  0.2824800000000002  0.07137  0.49189  1.0000
  H   H48       1.0  0.32206000000000023  0.09884  0.58105  1.0000
  H   H49       1.0  0.8361700000000001  0.35067  0.34025  1.0000
  H   H50       1.0  0.8871900000000001  0.33575  0.21556999999999998  1.0000
  H   H51       1.0  0.06541999999999996  0.12757  0.23894  1.0000
  H   H52       1.0  0.0038899999999999733  0.15154  0.36348  1.0000
  H   H53       1.0  0.8903900000000001  0.28277  0.12875  1.0000
  H   H54       1.0  0.95233  0.25676  0.00459  1.0000
  H   H55       1.0  0.20208000000000004  0.12418999999999998  0.00759  1.0000
  H   H56       1.0  0.15297999999999998  0.14647  0.13093  1.0000
  H   H57       1.0  0.7459700000000002  0.36048  0.57888  1.0000
  H   H58       1.0  0.6857599999999999  0.36023  0.70603  1.0000
  H   H59       1.0  0.8585599999999999  0.1446  0.69541  1.0000
  H   H60       1.0  0.9088200000000001  0.15386  0.56795  1.0000
  H   H61       1.0  0.37218  0.20713999999999996  0.99707  1.0000
  H   H62       1.0  0.23610000000000014  0.24722  0.9635399999999998  1.0000
  H   H63       1.0  0.21361999999999998  0.45514  0.95915  1.0000
  H   H64       1.0  0.34694  0.41528999999999994  0.9945099999999999  1.0000
  H   H65       1.0  0.10090000000000003  0.39136  0.07544  1.0000
  H   H66       1.0  0.9441499999999998  0.42292  0.16327  1.0000
  H   H67       1.0  0.84509  0.42832  0.0089  1.0000
  H   H68       1.0  0.0020500000000000414  0.40064  0.9185799999999998  1.0000
  H   H69       1.0  0.52631  0.14947  0.15981  1.0000
  H   H70       1.0  0.43844000000000005  0.16431999999999997  0.28482  1.0000
  H   H71       1.0  0.43296000000000007  0.37154  0.26105  1.0000
  H   H72       1.0  0.5192200000000001  0.3478299999999999  0.13631  1.0000
  H   H73       1.0  0.3015  0.21747999999999998  0.3718  1.0000
  H   H74       1.0  0.21261999999999995  0.24372  0.49602  1.0000
  H   H75       1.0  0.33286999999999994  0.37567  0.4919  1.0000
  H   H76       1.0  0.43015  0.35298  0.36852  1.0000
  H   H77       1.0  0.6856200000000001  0.14053  0.9220699999999998  1.0000
  H   H78       1.0  0.7512600000000001  0.14073  0.7948  1.0000
  H   H79       1.0  0.6979300000000002  0.35607  0.80479  1.0000
  H   H80       1.0  0.63123  0.34661  0.9324  1.0000
  H   H81       1.0  0.9233800000000001  0.0034599999999999995  0.70731  1.0000
  H   H82       1.0  0.017560000000000006  0.03668999999999999  0.74915  1.0000
  H   H83       1.0  0.8277700000000001  0.04066999999999999  0.9561099999999999  1.0000
  H   H84       1.0  0.73598  0.00611  0.91444  1.0000
  H   H85       1.0  0.007040000000000066  0.9243  0.8920599999999999  1.0000
  H   H86       1.0  0.13191000000000005  0.8364300000000001  0.92359  1.0000
  H   H87       1.0  0.22551000000000013  0.9906899999999998  0.92917  1.0000
  H   H88       1.0  0.09652000000000009  0.08111  0.9018099999999999  1.0000
  H   H89       1.0  0.82551  0.83984  0.64918  1.0000
  H   H90       1.0  0.89771  0.71487  0.66423  1.0000
  H   H91       1.0  0.6947300000000001  0.73999  0.8717600000000001  1.0000
  H   H92       1.0  0.63281  0.86466  0.84788  1.0000
  H   H93       1.0  0.9815200000000001  0.6281299999999999  0.71745  1.0000
  H   H94       1.0  0.04397000000000017  0.50388  0.74344  1.0000
  H   H95       1.0  0.79041  0.50835  0.87534  1.0000
  H   H96       1.0  0.7159  0.63184  0.8530699999999999  1.0000
  H   H97       1.0  0.6739799999999999  0.07878  0.63918  1.0000
  H   H98       1.0  0.6077000000000001  0.20612999999999998  0.63992  1.0000
  H   H99       1.0  0.4452299999999999  0.19592  0.8554699999999998  1.0000
  H   H100      1.0  0.5223500000000001  0.06827  0.8455199999999999  1.0000
  H   H101      1.0  0.6319299999999999  0.49759  0.79152  1.0000
  H   H102      1.0  0.8016899999999998  0.46492999999999995  0.75023  1.0000
  H   H103      1.0  0.8262400000000001  0.45988  0.54312  1.0000
  H   H104      1.0  0.6569199999999998  0.49404999999999993  0.58442  1.0000
  H   H105      1.0  0.8232800000000001  0.57762  0.60704  1.0000
  H   H106      1.0  0.8929100000000001  0.66445  0.57551  1.0000
  H   H107      1.0  0.14643000000000006  0.50845  0.57175  1.0000
  H   H108      1.0  0.07915999999999995  0.41924  0.59896  1.0000
  H   H109      1.0  0.3146099999999997  0.65936  0.8498600000000001  1.0000
  H   H110      1.0  0.27706000000000014  0.78434  0.8355099999999999  1.0000
  H   H111      1.0  0.30661000000000005  0.76097  0.62806  1.0000
  H   H112      1.0  0.34490000000000004  0.63629  0.6516  1.0000
  H   H113      1.0  0.32663999999999993  0.8709699999999999  0.7826  1.0000
  H   H114      1.0  0.29076  0.9952  0.75685  1.0000
  H   H115      1.0  0.17447000000000001  0.9921099999999999  0.62459  1.0000
  H   H116      1.0  0.20094999999999996  0.86883  0.64686  1.0000
  H   H117      1.0  0.39197  0.42217  0.86023  1.0000
  H   H118      1.0  0.45382999999999996  0.29475  0.85959  1.0000
  H   H119      1.0  0.49612000000000045  0.30532  0.6445  1.0000
  H   H120      1.0  0.4354499999999999  0.43292  0.65429  1.0000
  H   H121      1.0  0.4264199999999999  0.70695  0.49715  1.0000
  H   H122      1.0  0.55401  0.74868  0.4641  1.0000
  H   H123      1.0  0.3679  0.9558599999999999  0.46025999999999995  1.0000
  H   H124      1.0  0.24116000000000007  0.9139799999999999  0.49513  1.0000
  H   H125      1.0  0.43083000000000016  0.8923599999999999  0.57744  1.0000
  H   H126      1.0  0.4688699999999999  0.9237499999999998  0.66422  1.0000
  H   H127      1.0  0.71752  0.92863  0.50811  1.0000
  H   H128      1.0  0.67794  0.90116  0.4189399999999999  1.0000
  H   H129      1.0  0.16382000000000002  0.64932  0.65975  1.0000
  H   H130      1.0  0.11280999999999998  0.66425  0.78443  1.0000
  H   H131      1.0  0.93457  0.87243  0.76106  1.0000
  H   H132      1.0  0.99611  0.8484599999999999  0.63651  1.0000
  H   H133      1.0  0.10960999999999996  0.71723  0.87124  1.0000
  H   H134      1.0  0.047669999999999955  0.74324  0.99541  1.0000
  H   H135      1.0  0.7979100000000001  0.87581  0.9924099999999999  1.0000
  H   H136      1.0  0.8470200000000001  0.8535299999999999  0.86906  1.0000
  H   H137      1.0  0.25403000000000003  0.63952  0.42112  1.0000
  H   H138      1.0  0.31423999999999996  0.63976  0.29396  1.0000
  H   H139      1.0  0.14143999999999995  0.8553900000000001  0.30459  1.0000
  H   H140      1.0  0.09118  0.84614  0.43205000000000005  1.0000
  H   H141      1.0  0.6278100000000001  0.7928599999999999  0.00292  1.0000
  H   H142      1.0  0.7639  0.75278  0.03645  1.0000
  H   H143      1.0  0.78638  0.5448499999999998  0.04085  1.0000
  H   H144      1.0  0.6530500000000001  0.5847  0.00549  1.0000
  H   H145      1.0  0.8991  0.60864  0.92456  1.0000
  H   H146      1.0  0.05584999999999987  0.57708  0.8367300000000001  1.0000
  H   H147      1.0  0.15491000000000005  0.57167  0.9911  1.0000
  H   H148      1.0  0.99794  0.59936  0.08142  1.0000
  H   H149      1.0  0.4736900000000002  0.8505199999999999  0.84019  1.0000
  H   H150      1.0  0.56156  0.83567  0.71517  1.0000
  H   H151      1.0  0.5670400000000004  0.62846  0.73895  1.0000
  H   H152      1.0  0.4807799999999999  0.65217  0.8636900000000001  1.0000
  H   H153      1.0  0.6985  0.78252  0.62819  1.0000
  H   H154      1.0  0.78738  0.75628  0.50398  1.0000
  H   H155      1.0  0.6671199999999999  0.62433  0.5081  1.0000
  H   H156      1.0  0.5698499999999999  0.64702  0.63148  1.0000
  H   H157      1.0  0.31437  0.85946  0.07792  1.0000
  H   H158      1.0  0.24874  0.85927  0.20519  1.0000
  H   H159      1.0  0.30207000000000006  0.64393  0.19521  1.0000
  H   H160      1.0  0.36876000000000003  0.65338  0.06759  1.0000
  C   C1        1.0  0.23220000000000005  0.016  0.21543999999999996  1.0000
  C   C2        1.0  0.17536000000000002  0.9973399999999999  0.19141  1.0000
  C   C3        1.0  0.09624000000000002  0.9884299999999999  0.23848  1.0000
  C   C4        1.0  0.04451000000000008  0.9698599999999999  0.21574  1.0000
  C   C5        1.0  0.07295000000000007  0.95989  0.14555  1.0000
  C   C6        1.0  0.15143000000000012  0.9681999999999998  0.09802  1.0000
  C   C7        1.0  0.20214  0.98734  0.12123999999999999  1.0000
  C   C8        1.0  0.9545199999999999  0.99219  0.10582  1.0000
  C   C9        1.0  0.94562  0.06087  0.09963  1.0000
  C   C10       1.0  0.87535  0.11014999999999998  0.08233  1.0000
  C   C11       1.0  0.81294  0.09216  0.07226  1.0000
  C   C12       1.0  0.82351  0.02287  0.07826  1.0000
  C   C13       1.0  0.89437  0.97266  0.09413  1.0000
  C   C14       1.0  0.73619  0.14594  0.05678  1.0000
  C   C15       1.0  0.20070999999999997  0.18455  0.30216  1.0000
  C   C16       1.0  0.16085999999999998  0.25484  0.29302  1.0000
  C   C17       1.0  0.19771000000000008  0.28441  0.22978  1.0000
  C   C18       1.0  0.27418  0.24046  0.17855  1.0000
  C   C19       1.0  0.3092200000000001  0.1706  0.19142  1.0000
  C   C20       1.0  0.15733999999999998  0.35864  0.21675  1.0000
  C   C21       1.0  0.06375999999999998  0.39647  0.24788  1.0000
  C   C22       1.0  0.028589999999999973  0.46615999999999996  0.23283  1.0000
  C   C23       1.0  0.16897  0.46369  0.15992  1.0000
  C   C24       1.0  0.21087  0.39402  0.17185  1.0000
  C   C25       1.0  0.3770399999999999  0.8929799999999999  0.31419  1.0000
  C   C26       1.0  0.4148800000000002  0.8217099999999999  0.31322  1.0000
  C   C27       1.0  0.4799700000000002  0.78733  0.25176  1.0000
  C   C28       1.0  0.5038899999999997  0.82771  0.19352  1.0000
  C   C29       1.0  0.46255999999999986  0.8988799999999999  0.19875  1.0000
  C   C30       1.0  0.46472000000000013  0.48256  0.28563  1.0000
  C   C31       1.0  0.36482999999999993  0.50178  0.30983  1.0000
  C   C32       1.0  0.3245000000000001  0.51055  0.26259  1.0000
  C   C33       1.0  0.23117  0.52883  0.28508  1.0000
  C   C34       1.0  0.17866000000000004  0.53871  0.35528  1.0000
  C   C35       1.0  0.21723000000000006  0.53107  0.40289  1.0000
  C   C36       1.0  0.31061000000000033  0.51221  0.37991  1.0000
  C   C37       1.0  0.05247000000000005  0.5065899999999999  0.39456  1.0000
  C   C38       1.0  0.10601000000000005  0.43776999999999994  0.40095  1.0000
  C   C39       1.0  0.06711999999999996  0.38907  0.4182100000000001  1.0000
  C   C40       1.0  0.9763800000000004  0.40776  0.42772999999999994  1.0000
  C   C41       1.0  0.9238400000000001  0.4772  0.42126  1.0000
  C   C42       1.0  0.9609199999999999  0.5268  0.40554  1.0000
  C   C43       1.0  0.9377100000000003  0.35437  0.44327  1.0000
  C   C44       1.0  0.6876200000000001  0.3156399999999999  0.19848  1.0000
  C   C45       1.0  0.70877  0.24543999999999996  0.2073  1.0000
  C   C46       1.0  0.7120500000000001  0.21549999999999997  0.27035  1.0000
  C   C47       1.0  0.69334  0.25891  0.32172  1.0000
  C   C48       1.0  0.67165  0.32869999999999994  0.30911  1.0000
  C   C49       1.0  0.7329399999999998  0.14137  0.28324  1.0000
  C   C50       1.0  0.7084600000000001  0.10404  0.25203  1.0000
  C   C51       1.0  0.72792  0.03442  0.26698  1.0000
  C   C52       1.0  0.79247  0.03611  0.34007  1.0000
  C   C53       1.0  0.7767600000000001  0.10566  0.32815  1.0000
  C   C54       1.0  0.58434  0.60603  0.18624  1.0000
  C   C55       1.0  0.5499900000000001  0.67729  0.18714  1.0000
  C   C56       1.0  0.51951  0.71155  0.24843  1.0000
  C   C57       1.0  0.5256500000000001  0.67111  0.30662  1.0000
  C   C58       1.0  0.5606999999999996  0.59997  0.30148  1.0000
  C   C59       1.0  0.74938  0.21543999999999996  0.4817  1.0000
  C   C60       1.0  0.67346  0.19164999999999996  0.50127  1.0000
  C   C61       1.0  0.58517  0.23881  0.51068  1.0000
  C   C62       1.0  0.5147700000000001  0.21608  0.5291  1.0000
  C   C63       1.0  0.53337  0.14582  0.53865  1.0000
  C   C64       1.0  0.6202500000000001  0.09824999999999999  0.53062  1.0000
  C   C65       1.0  0.69021  0.12150999999999999  0.51148  1.0000
  C   C66       1.0  0.4467400000000001  0.10610999999999998  0.50686  1.0000
  C   C67       1.0  0.50654  0.09963  0.438  1.0000
  C   C68       1.0  0.48502999999999996  0.08224999999999999  0.38934  1.0000
  C   C69       1.0  0.40418999999999994  0.07233  0.40803  1.0000
  C   C70       1.0  0.34550999999999993  0.07859  0.47752  1.0000
  C   C71       1.0  0.36663000000000007  0.09461  0.52712  1.0000
  C   C72       1.0  0.3811  0.05679  0.35458  1.0000
  C   C73       1.0  0.88653  0.30199  0.3154  1.0000
  C   C74       1.0  0.9161499999999999  0.29288  0.24527  1.0000
  C   C75       1.0  0.9824700000000001  0.22951999999999997  0.21535000000000004  1.0000
  C   C76       1.0  0.015219999999999996  0.17806  0.25877  1.0000
  C   C77       1.0  0.98109  0.19093  0.32852  1.0000
  C   C78       1.0  0.01631  0.21653999999999998  0.1412  1.0000
  C   C79       1.0  0.9604100000000001  0.2479  0.10384000000000002  1.0000
  C   C80       1.0  0.9950400000000001  0.23283999999999996  0.0342  1.0000
  C   C81       1.0  0.13333  0.15955999999999998  0.03584  1.0000
  C   C82       1.0  0.10547999999999996  0.1715  0.10543000000000001  1.0000
  C   C83       1.0  0.76907  0.31386  0.60686  1.0000
  C   C84       1.0  0.7360599999999999  0.31322  0.67808  1.0000
  C   C85       1.0  0.7669200000000002  0.25190999999999997  0.71236  1.0000
  C   C86       1.0  0.83118  0.19349  0.67184  1.0000
  C   C87       1.0  0.8607199999999999  0.19838  0.60071  1.0000
  C   C88       1.0  0.44733000000000006  0.28538  0.01699  1.0000
  C   C89       1.0  0.36668000000000006  0.30895  0.9979999999999999  1.0000
  C   C90       1.0  0.33627000000000007  0.26114999999999994  0.98888  1.0000
  C   C91       1.0  0.2619  0.28294  0.9700699999999999  1.0000
  C   C92       1.0  0.21887  0.353  0.95996  1.0000
  C   C93       1.0  0.24839000000000017  0.40122  0.9682299999999999  1.0000
  C   C94       1.0  0.32207999999999987  0.37897  0.98776  1.0000
  C   C95       1.0  0.06045000000000007  0.3927899999999999  0.99205  1.0000
  C   C96       1.0  0.04523999999999999  0.39938999999999997  0.06067000000000001  1.0000
  C   C97       1.0  0.9574500000000002  0.41700999999999994  0.10982999999999998  1.0000
  C   C98       1.0  0.88494  0.42704999999999993  0.0918  1.0000
  C   C99       1.0  0.90159  0.42091  0.0225  1.0000
  C   C100      1.0  0.9885599999999998  0.40466  0.9724100000000001  1.0000
  C   C101      1.0  0.7926500000000001  0.44237  0.1456  1.0000
  C   C102      1.0  0.50341  0.198  0.18457  1.0000
  C   C103      1.0  0.45419999999999994  0.20702  0.25485  1.0000
  C   C104      1.0  0.42748000000000014  0.27014  0.2847  1.0000
  C   C105      1.0  0.45252  0.32135  0.24118000000000003  1.0000
  C   C106      1.0  0.5006  0.3086  0.17133  1.0000
  C   C107      1.0  0.37389  0.2832  0.35887  1.0000
  C   C108      1.0  0.31172  0.25217  0.39651  1.0000
  C   C109      1.0  0.2612799999999999  0.2673499999999999  0.4661600000000001  1.0000
  C   C110      1.0  0.32797000000000015  0.34028  0.46391  1.0000
  C   C111      1.0  0.38205000000000006  0.32815  0.39432  1.0000
  C   C112      1.0  0.69017  0.18694999999999998  0.89379  1.0000
  C   C113      1.0  0.7270000000000001  0.18764  0.82256  1.0000
  C   C114      1.0  0.7307099999999999  0.24886  0.78813  1.0000
  C   C115      1.0  0.69626  0.3072  0.8284700000000002  1.0000
  C   C116      1.0  0.66034  0.30225  0.89962  1.0000
  C   C117      1.0  0.76779  0.98399  0.78456  1.0000
  C   C118      1.0  0.8246299999999999  0.00266  0.80858  1.0000
  C   C119      1.0  0.90376  0.011569999999999997  0.76152  1.0000
  C   C120      1.0  0.9554900000000001  0.03014  0.78426  1.0000
  C   C121      1.0  0.9270400000000001  0.04011  0.85444  1.0000
  C   C122      1.0  0.84857  0.0318  0.90198  1.0000
  C   C123      1.0  0.7978600000000001  0.01265  0.8787599999999999  1.0000
  C   C124      1.0  0.04548000000000002  0.00781  0.89418  1.0000
  C   C125      1.0  0.05437999999999998  0.93913  0.9003600000000002  1.0000
  C   C126      1.0  0.12465  0.88984  0.91767  1.0000
  C   C127      1.0  0.18706000000000012  0.9078299999999999  0.9277299999999999  1.0000
  C   C128      1.0  0.17649000000000004  0.97712  0.9217299999999999  1.0000
  C   C129      1.0  0.10563000000000006  0.027329999999999993  0.9058699999999998  1.0000
  C   C130      1.0  0.26381000000000004  0.85405  0.94322  1.0000
  C   C131      1.0  0.7992900000000001  0.8154499999999999  0.69784  1.0000
  C   C132      1.0  0.83913  0.74515  0.70697  1.0000
  C   C133      1.0  0.80229  0.71559  0.77022  1.0000
  C   C134      1.0  0.7258099999999998  0.75953  0.82145  1.0000
  C   C135      1.0  0.69078  0.8294  0.80858  1.0000
  C   C136      1.0  0.8426600000000001  0.6413499999999999  0.78325  1.0000
  C   C137      1.0  0.9362400000000001  0.6035299999999999  0.75212  1.0000
  C   C138      1.0  0.9714100000000003  0.53384  0.76717  1.0000
  C   C139      1.0  0.83103  0.5363  0.8400799999999999  1.0000
  C   C140      1.0  0.7891299999999999  0.60597  0.82814  1.0000
  C   C141      1.0  0.62295  0.10701999999999999  0.6858  1.0000
  C   C142      1.0  0.5851200000000003  0.17829  0.68678  1.0000
  C   C143      1.0  0.52002  0.21266999999999997  0.74823  1.0000
  C   C144      1.0  0.4961099999999999  0.17228999999999997  0.80648  1.0000
  C   C145      1.0  0.5374299999999999  0.10112  0.80124  1.0000
  C   C146      1.0  0.5352799999999998  0.51744  0.71436  1.0000
  C   C147      1.0  0.6351700000000001  0.49820999999999993  0.69017  1.0000
  C   C148      1.0  0.6754999999999999  0.48944  0.73741  1.0000
  C   C149      1.0  0.7688299999999999  0.47117  0.71491  1.0000
  C   C150      1.0  0.82134  0.46128  0.64472  1.0000
  C   C151      1.0  0.78276  0.46892  0.59711  1.0000
  C   C152      1.0  0.6893899999999998  0.48779  0.62008  1.0000
  C   C153      1.0  0.9475200000000001  0.4934  0.60544  1.0000
  C   C154      1.0  0.89399  0.56223  0.59905  1.0000
  C   C155      1.0  0.9328800000000002  0.61092  0.58179  1.0000
  C   C156      1.0  0.023620000000000047  0.59224  0.57227  1.0000
  C   C157      1.0  0.07615999999999995  0.5228  0.57874  1.0000
  C   C158      1.0  0.03908000000000002  0.4732  0.59446  1.0000
  C   C159      1.0  0.06228000000000002  0.64563  0.55673  1.0000
  C   C160      1.0  0.3123800000000001  0.68435  0.80152  1.0000
  C   C161      1.0  0.29122000000000026  0.75456  0.79269  1.0000
  C   C162      1.0  0.2879499999999998  0.7845  0.72965  1.0000
  C   C163      1.0  0.30666000000000015  0.7410799999999998  0.67828  1.0000
  C   C164      1.0  0.32834999999999986  0.6713  0.69089  1.0000
  C   C165      1.0  0.26706000000000013  0.85863  0.71676  1.0000
  C   C166      1.0  0.29153999999999997  0.89595  0.74797  1.0000
  C   C167      1.0  0.27206999999999987  0.96558  0.73301  1.0000
  C   C168      1.0  0.20753000000000016  0.9638799999999998  0.65992  1.0000
  C   C169      1.0  0.22323000000000007  0.8943399999999999  0.67185  1.0000
  C   C170      1.0  0.41566000000000003  0.39396  0.81375  1.0000
  C   C171      1.0  0.45000000000000007  0.32271  0.81285  1.0000
  C   C172      1.0  0.48049000000000014  0.28845  0.75157  1.0000
  C   C173      1.0  0.47435  0.32888999999999996  0.69338  1.0000
  C   C174      1.0  0.4392999999999999  0.40002  0.69852  1.0000
  C   C175      1.0  0.25062  0.78456  0.51829  1.0000
  C   C176      1.0  0.3265400000000001  0.8083499999999999  0.49871999999999994  1.0000
  C   C177      1.0  0.41483000000000003  0.76119  0.48931  1.0000
  C   C178      1.0  0.48522000000000004  0.78392  0.47089  1.0000
  C   C179      1.0  0.4666299999999999  0.85417  0.46135  1.0000
  C   C180      1.0  0.3797400000000001  0.9017399999999999  0.4693800000000001  1.0000
  C   C181      1.0  0.30979  0.87848  0.48851000000000006  1.0000
  C   C182      1.0  0.55326  0.8938799999999999  0.49314  1.0000
  C   C183      1.0  0.49345000000000017  0.90037  0.562  1.0000
  C   C184      1.0  0.5149699999999999  0.91775  0.61065  1.0000
  C   C185      1.0  0.5958000000000001  0.9276699999999999  0.59197  1.0000
  C   C186      1.0  0.6544900000000002  0.92141  0.52247  1.0000
  C   C187      1.0  0.63337  0.90539  0.47287999999999997  1.0000
  C   C188      1.0  0.6189000000000003  0.9432099999999999  0.64542  1.0000
  C   C189      1.0  0.11346000000000003  0.69801  0.6846  1.0000
  C   C190      1.0  0.08384999999999992  0.70711  0.75473  1.0000
  C   C191      1.0  0.017529999999999955  0.77048  0.78464  1.0000
  C   C192      1.0  0.98478  0.8219299999999999  0.74122  1.0000
  C   C193      1.0  0.01891000000000005  0.80906  0.67147  1.0000
  C   C194      1.0  0.9836900000000002  0.78346  0.8587999999999999  1.0000
  C   C195      1.0  0.03958999999999996  0.7521  0.89615  1.0000
  C   C196      1.0  0.004959999999999957  0.76716  0.9658  1.0000
  C   C197      1.0  0.8666700000000002  0.8404299999999999  0.96415  1.0000
  C   C198      1.0  0.8945199999999998  0.8285  0.89456  1.0000
  C   C199      1.0  0.23092  0.68614  0.39314  1.0000
  C   C200      1.0  0.26394000000000006  0.6867699999999999  0.32191  1.0000
  C   C201      1.0  0.23307  0.74809  0.28764  1.0000
  C   C202      1.0  0.16881000000000004  0.8065  0.32815  1.0000
  C   C203      1.0  0.13926999999999998  0.80162  0.39929  1.0000
  C   C204      1.0  0.5526699999999998  0.71462  0.983  1.0000
  C   C205      1.0  0.6333200000000001  0.69104  0.002  1.0000
  C   C206      1.0  0.6637199999999999  0.73885  0.01111  1.0000
  C   C207      1.0  0.7380900000000002  0.71705  0.02992  1.0000
  C   C208      1.0  0.78113  0.647  0.04004  1.0000
  C   C209      1.0  0.7515999999999999  0.59878  0.03177  1.0000
  C   C210      1.0  0.67792  0.62103  0.01223  1.0000
  C   C211      1.0  0.93955  0.60721  0.00795  1.0000
  C   C212      1.0  0.95475  0.60061  0.9393300000000001  1.0000
  C   C213      1.0  0.042549999999999935  0.58299  0.89016  1.0000
  C   C214      1.0  0.11505999999999987  0.57295  0.9082000000000001  1.0000
  C   C215      1.0  0.09841000000000003  0.57909  0.9775  1.0000
  C   C216      1.0  0.011429999999999996  0.59534  0.02758  1.0000
  C   C217      1.0  0.20735000000000003  0.5576299999999998  0.8544  1.0000
  C   C218      1.0  0.4965900000000001  0.802  0.81542  1.0000
  C   C219      1.0  0.5457900000000001  0.7929799999999999  0.74515  1.0000
  C   C220      1.0  0.57251  0.72986  0.71529  1.0000
  C   C221      1.0  0.5474800000000001  0.67865  0.75882  1.0000
  C   C222      1.0  0.49939000000000006  0.6914  0.82867  1.0000
  C   C223      1.0  0.62611  0.7168  0.64113  1.0000
  C   C224      1.0  0.68828  0.74783  0.60349  1.0000
  C   C225      1.0  0.7387200000000002  0.73265  0.53383  1.0000
  C   C226      1.0  0.67203  0.65971  0.53609  1.0000
  C   C227      1.0  0.61795  0.67185  0.60568  1.0000
  C   C228      1.0  0.30983000000000005  0.81305  0.1062  1.0000
  C   C229      1.0  0.2730000000000001  0.81236  0.17744  1.0000
  C   C230      1.0  0.26929  0.75114  0.21186  1.0000
  C   C231      1.0  0.30373000000000006  0.6928  0.17153  1.0000
  C   C232      1.0  0.33966  0.69775  0.10037  1.0000
  N   N1        1.0  0.27334000000000025  0.14271  0.25227  1.0000
  N   N2        1.0  0.07926999999999992  0.50028  0.18924  1.0000
  N   N3        1.0  0.40032000000000006  0.9313  0.25823  1.0000
  N   N4        1.0  0.6689299999999997  0.35687  0.24841  1.0000
  N   N5        1.0  0.7688900000000001  0.9999699999999999  0.31062  1.0000
  N   N6        1.0  0.59011  0.56769  0.24215  1.0000
  N   N7        1.0  0.9178600000000001  0.25201999999999997  0.35667  1.0000
  N   N8        1.0  0.08004000000000001  0.18907  0.99971  1.0000
  N   N9        1.0  0.83053  0.25771  0.56836  1.0000
  N   N10       1.0  0.52591  0.24789  0.14314  1.0000
  N   N11       1.0  0.26787000000000005  0.31103  0.50035  1.0000
  N   N12       1.0  0.6576999999999998  0.24293999999999996  0.93204  1.0000
  N   N13       1.0  0.7266599999999999  0.8572799999999999  0.74773  1.0000
  N   N14       1.0  0.92073  0.49972  0.81075  1.0000
  N   N15       1.0  0.59968  0.0687  0.74176  1.0000
  N   N16       1.0  0.33106  0.64313  0.75159  1.0000
  N   N17       1.0  0.23111000000000007  2.9999999999999957e-05  0.68937  1.0000
  N   N18       1.0  0.40989  0.43231  0.75785  1.0000
  N   N19       1.0  0.08213000000000002  0.74798  0.64333  1.0000
  N   N20       1.0  0.91996  0.8109199999999999  0.00028  1.0000
  N   N21       1.0  0.16946999999999995  0.74229  0.43162999999999996  1.0000
  N   N22       1.0  0.47409  0.7521  0.8568599999999998  1.0000
  N   N23       1.0  0.7321299999999998  0.68897  0.49965  1.0000
  N   N24       1.0  0.34230000000000005  0.75706  0.06795  1.0000
  O   O1        1.0  0.30322  0.02393  0.17177  1.0000
  O   O2        1.0  0.20663  0.02249  0.28062  1.0000
  O   O3        1.0  0.02191000000000007  0.9399099999999999  0.12337000000000001  1.0000
  O   O4        1.0  0.72309  0.20906999999999998  0.05729  1.0000
  O   O5        1.0  0.6823500000000001  0.12715  0.04436  1.0000
  O   O6        1.0  0.5001800000000001  0.47425  0.3291  1.0000
  O   O7        1.0  0.5109300000000001  0.47601  0.22037  1.0000
  O   O8        1.0  0.08507999999999998  0.5586  0.37764  1.0000
  O   O9        1.0  0.98809  0.29127  0.44432  1.0000
  O   O10       1.0  0.8527800000000001  0.37342999999999993  0.45416000000000006  1.0000
  O   O11       1.0  0.8287300000000001  0.17166  0.47273  1.0000
  O   O12       1.0  0.7300800000000001  0.28069999999999995  0.4757  1.0000
  O   O13       1.0  0.46215000000000006  0.12369  0.55867  1.0000
  O   O14       1.0  0.4315800000000001  0.05717  0.29147  1.0000
  O   O15       1.0  0.30822  0.04446  0.37351  1.0000
  O   O16       1.0  0.4735900000000002  0.32928999999999997  0.02541  1.0000
  O   O17       1.0  0.48787  0.2201  0.02309  1.0000
  O   O18       1.0  0.14561  0.37461  0.9398900000000001  1.0000
  O   O19       1.0  0.7800400000000001  0.44222000000000006  0.20869  1.0000
  O   O20       1.0  0.7264000000000003  0.45418  0.12693  1.0000
  O   O21       1.0  0.69678  0.97606  0.8282299999999999  1.0000
  O   O22       1.0  0.7933699999999999  0.97751  0.71938  1.0000
  O   O23       1.0  0.97809  0.06008  0.87662  1.0000
  O   O24       1.0  0.27691000000000004  0.79093  0.94271  1.0000
  O   O25       1.0  0.31765000000000004  0.8728399999999998  0.9556400000000002  1.0000
  O   O26       1.0  0.49981999999999993  0.52575  0.67089  1.0000
  O   O27       1.0  0.48906999999999995  0.52399  0.77963  1.0000
  O   O28       1.0  0.9149200000000001  0.44139999999999996  0.62235  1.0000
  O   O29       1.0  0.01190999999999992  0.70873  0.55568  1.0000
  O   O30       1.0  0.14722  0.62657  0.54584  1.0000
  O   O31       1.0  0.17126000000000002  0.82833  0.52727  1.0000
  O   O32       1.0  0.26992  0.71929  0.5243  1.0000
  O   O33       1.0  0.5378500000000002  0.8763  0.44133000000000006  1.0000
  O   O34       1.0  0.5684199999999999  0.94283  0.70853  1.0000
  O   O35       1.0  0.6917800000000001  0.9555399999999998  0.62649  1.0000
  O   O36       1.0  0.5264  0.67071  0.97459  1.0000
  O   O37       1.0  0.5121300000000001  0.77989  0.9768999999999999  1.0000
  O   O38       1.0  0.8543900000000001  0.62539  0.0601  1.0000
  O   O39       1.0  0.21996  0.55778  0.79131  1.0000
  O   O40       1.0  0.2735900000000002  0.54581  0.87307  1.0000
