data_image0
_chemical_formula_structural       Cu12H192C216O96
_chemical_formula_sum              "Cu12 H192 C216 O96"
_cell_length_a       15.25388
_cell_length_b       21.93224
_cell_length_c       40.30167000000001
_cell_angle_alpha    90.00627
_cell_angle_beta     89.98883
_cell_angle_gamma    107.06677

_space_group_name_H-M_alt    "P 1"
_space_group_IT_number       1

loop_
  _space_group_symop_operation_xyz
  'x, y, z'

loop_
  _atom_site_type_symbol
  _atom_site_label
  _atom_site_symmetry_multiplicity
  _atom_site_fract_x
  _atom_site_fract_y
  _atom_site_fract_z
  _atom_site_occupancy
  Cu  Cu1       1.0  0.7039499999999997  0.8002200000000002  0.76132  1.0000
  Cu  Cu2       1.0  0.8045099999999997  0.86237  0.71866  1.0000
  Cu  Cu3       1.0  0.48109  0.04861  0.00725  1.0000
  Cu  Cu4       1.0  0.79598  0.69971  0.26118  1.0000
  Cu  Cu5       1.0  0.6945  0.63659  0.21908  1.0000
  Cu  Cu6       1.0  0.01782999999999999  0.45106  0.50715  1.0000
  Cu  Cu7       1.0  0.29606  0.19978000000000004  0.23868  1.0000
  Cu  Cu8       1.0  0.1955  0.13764  0.28134  1.0000
  Cu  Cu9       1.0  0.51892  0.9514  0.9927500000000001  1.0000
  Cu  Cu10      1.0  0.20403  0.30029  0.73882  1.0000
  Cu  Cu11      1.0  0.30551  0.36341  0.78092  1.0000
  Cu  Cu12      1.0  0.9821799999999998  0.54894  0.49284999999999995  1.0000
  H   H1        1.0  0.98267  0.74711  0.69671  1.0000
  H   H2        1.0  0.05123000000000004  0.94012  0.77276  1.0000
  H   H3        1.0  0.27043  0.05052  0.9400900000000001  1.0000
  H   H4        1.0  0.3424499999999999  0.8842199999999999  0.90981  1.0000
  H   H5        1.0  0.80328  0.6429  0.77248  1.0000
  H   H6        1.0  0.45972  0.71689  0.70828  1.0000
  H   H7        1.0  0.6512999999999998  0.78636  0.62938  1.0000
  H   H8        1.0  0.86328  0.85155  0.8498199999999999  1.0000
  H   H9        1.0  0.22287  0.53495  0.78237  1.0000
  H   H10       1.0  0.042409999999999996  0.41793  0.71068  1.0000
  H   H11       1.0  0.2663799999999999  0.52455  0.55943  1.0000
  H   H12       1.0  0.16395000000000007  0.68678  0.55933  1.0000
  H   H13       1.0  0.2952399999999999  0.01572  0.77968  1.0000
  H   H14       1.0  0.18437999999999993  0.026390000000000004  0.77258  1.0000
  H   H15       1.0  0.20362999999999995  0.95103  0.76361  1.0000
  H   H16       1.0  0.84948  0.4484000000000001  0.66919  1.0000
  H   H17       1.0  0.8873399999999998  0.40276000000000006  0.69999  1.0000
  H   H18       1.0  0.96121  0.43686  0.66577  1.0000
  H   H19       1.0  0.18150999999999995  0.71306  0.66117  1.0000
  H   H20       1.0  0.13762000000000005  0.7654700000000001  0.68611  1.0000
  H   H21       1.0  0.06616  0.71644  0.65507  1.0000
  H   H22       1.0  0.8185299999999998  0.50252  0.81637  1.0000
  H   H23       1.0  0.75551  0.53743  0.78837  1.0000
  H   H24       1.0  0.8303799999999999  0.58626  0.8186299999999999  1.0000
  H   H25       1.0  0.0916  0.11088  0.90794  1.0000
  H   H26       1.0  0.21287999999999996  0.12172  0.9113999999999999  1.0000
  H   H27       1.0  0.13575  0.07655  0.9422  1.0000
  H   H28       1.0  0.23585000000000003  0.77086  0.84613  1.0000
  H   H29       1.0  0.25716  0.78609  0.88956  1.0000
  H   H30       1.0  0.3361099999999999  0.83182  0.85946  1.0000
  H   H31       1.0  0.9112299999999998  0.83689  0.9365999999999999  1.0000
  H   H32       1.0  0.88104  0.79695  0.89754  1.0000
  H   H33       1.0  0.85472  0.87017  0.90551  1.0000
  H   H34       1.0  0.46344999999999986  0.5043  0.60072  1.0000
  H   H35       1.0  0.40916999999999987  0.51246  0.56213  1.0000
  H   H36       1.0  0.34058  0.48288  0.59815  1.0000
  H   H37       1.0  0.2244  0.62032  0.70277  1.0000
  H   H38       1.0  0.30676  0.69265  0.71558  1.0000
  H   H39       1.0  0.3399099999999999  0.62072  0.71208  1.0000
  H   H40       1.0  0.25229  0.83443  0.60482  1.0000
  H   H41       1.0  0.16188999999999992  0.7609  0.60069  1.0000
  H   H42       1.0  0.22935999999999995  0.79568  0.56524  1.0000
  H   H43       1.0  0.61309  0.76074  0.54121  1.0000
  H   H44       1.0  0.6679799999999998  0.74211  0.57761  1.0000
  H   H45       1.0  0.6394399999999998  0.81579  0.57521  1.0000
  H   H46       1.0  0.22295000000000006  0.69005  0.81241  1.0000
  H   H47       1.0  0.2815799999999999  0.64599  0.78781  1.0000
  H   H48       1.0  0.20725999999999994  0.60732  0.82101  1.0000
  H   H49       1.0  0.51782  0.75281  0.19696  1.0000
  H   H50       1.0  0.44750999999999996  0.55918  0.27276  1.0000
  H   H51       1.0  0.22872999999999996  0.44946  0.43978  1.0000
  H   H52       1.0  0.15797  0.61624  0.40962  1.0000
  H   H53       1.0  0.69678  0.85739  0.27272  1.0000
  H   H54       1.0  0.040620000000000024  0.7829300000000001  0.20835  1.0000
  H   H55       1.0  0.84839  0.7135  0.12959  1.0000
  H   H56       1.0  0.63709  0.6481  0.34925  1.0000
  H   H57       1.0  0.27692  0.96501  0.28241  1.0000
  H   H58       1.0  0.4570599999999999  0.08186  0.21058999999999997  1.0000
  H   H59       1.0  0.23479000000000005  0.97541  0.05968  1.0000
  H   H60       1.0  0.33594  0.8126500000000001  0.059480000000000005  1.0000
  H   H61       1.0  0.2044499999999999  0.48422999999999994  0.27971  1.0000
  H   H62       1.0  0.31556  0.47373000000000004  0.27287  1.0000
  H   H63       1.0  0.29625  0.54897  0.26376  1.0000
  H   H64       1.0  0.65001  0.05156  0.16909  1.0000
  H   H65       1.0  0.61187  0.09644  0.20019999999999996  1.0000
  H   H66       1.0  0.5388199999999997  0.06395  0.16553  1.0000
  H   H67       1.0  0.31892  0.78708  0.16123  1.0000
  H   H68       1.0  0.3628499999999999  0.73471  0.18618  1.0000
  H   H69       1.0  0.43387  0.78318  0.15486  1.0000
  H   H70       1.0  0.6816799999999997  0.99767  0.31646  1.0000
  H   H71       1.0  0.74504  0.96288  0.28854  1.0000
  H   H72       1.0  0.66943  0.91384  0.3185  1.0000
  H   H73       1.0  0.40802  0.38921  0.408  1.0000
  H   H74       1.0  0.28678  0.37872  0.41133000000000003  1.0000
  H   H75       1.0  0.3638  0.42363000000000006  0.44223  1.0000
  H   H76       1.0  0.26483  0.7297  0.34602  1.0000
  H   H77       1.0  0.24282  0.71455  0.38945  1.0000
  H   H78       1.0  0.16504  0.6682  0.35921  1.0000
  H   H79       1.0  0.58978  0.66326  0.43642000000000003  1.0000
  H   H80       1.0  0.6198499999999998  0.70328  0.39739  1.0000
  H   H81       1.0  0.6469099999999999  0.63031  0.40539  1.0000
  H   H82       1.0  0.03702000000000002  0.99583  0.10068000000000002  1.0000
  H   H83       1.0  0.09109000000000009  0.9876500000000001  0.06207  1.0000
  H   H84       1.0  0.16007999999999994  0.01767  0.09798  1.0000
  H   H85       1.0  0.27552999999999994  0.8795699999999999  0.20271999999999998  1.0000
  H   H86       1.0  0.19308  0.80729  0.21555000000000002  1.0000
  H   H87       1.0  0.16013999999999995  0.8793  0.2122  1.0000
  H   H88       1.0  0.24719999999999995  0.66538  0.10485000000000001  1.0000
  H   H89       1.0  0.33706  0.73924  0.1008  1.0000
  H   H90       1.0  0.27029  0.70417  0.0653  1.0000
  H   H91       1.0  0.8873599999999998  0.73942  0.04123  1.0000
  H   H92       1.0  0.83198  0.75788  0.07753  1.0000
  H   H93       1.0  0.8605799999999998  0.68421  0.07515  1.0000
  H   H94       1.0  0.27707  0.80999  0.31243  1.0000
  H   H95       1.0  0.21863999999999995  0.85404  0.28781  1.0000
  H   H96       1.0  0.29246  0.89261  0.32111  1.0000
  H   H97       1.0  0.01734  0.25289  0.30329  1.0000
  H   H98       1.0  0.9487799999999997  0.05988999999999999  0.22724000000000003  1.0000
  H   H99       1.0  0.72958  0.94948  0.05990999999999999  1.0000
  H   H100      1.0  0.65756  0.11579  0.09019  1.0000
  H   H101      1.0  0.19673  0.3571  0.22752  1.0000
  H   H102      1.0  0.54029  0.28311  0.29172  1.0000
  H   H103      1.0  0.3487099999999999  0.21364000000000002  0.37062  1.0000
  H   H104      1.0  0.13673  0.14845  0.15018  1.0000
  H   H105      1.0  0.77714  0.46505  0.21763  1.0000
  H   H106      1.0  0.9575999999999998  0.58207  0.28932  1.0000
  H   H107      1.0  0.73363  0.47545  0.44057  1.0000
  H   H108      1.0  0.8360599999999999  0.31322  0.44067000000000006  1.0000
  H   H109      1.0  0.70477  0.98428  0.22032000000000002  1.0000
  H   H110      1.0  0.81563  0.9736100000000001  0.22742  1.0000
  H   H111      1.0  0.7963800000000001  0.04897000000000001  0.23639000000000002  1.0000
  H   H112      1.0  0.15053  0.5516  0.33081  1.0000
  H   H113      1.0  0.11267  0.59724  0.30001  1.0000
  H   H114      1.0  0.03880000000000001  0.56314  0.33423  1.0000
  H   H115      1.0  0.8185  0.28695  0.33883  1.0000
  H   H116      1.0  0.86239  0.23453  0.31389  1.0000
  H   H117      1.0  0.93385  0.28356  0.34493  1.0000
  H   H118      1.0  0.18148  0.49749  0.18363  1.0000
  H   H119      1.0  0.24450000000000002  0.46257  0.21163  1.0000
  H   H120      1.0  0.16963  0.41375  0.18137  1.0000
  H   H121      1.0  0.90841  0.88912  0.09206  1.0000
  H   H122      1.0  0.7871300000000001  0.8782800000000001  0.0886  1.0000
  H   H123      1.0  0.8642599999999998  0.92345  0.0578  1.0000
  H   H124      1.0  0.76416  0.22914  0.15387  1.0000
  H   H125      1.0  0.7428499999999999  0.21391  0.11044  1.0000
  H   H126      1.0  0.6639  0.16818  0.14054  1.0000
  H   H127      1.0  0.08877999999999997  0.16311  0.0634  1.0000
  H   H128      1.0  0.11896999999999995  0.20305  0.10246  1.0000
  H   H129      1.0  0.14529  0.12984  0.09449  1.0000
  H   H130      1.0  0.53656  0.4957  0.39928  1.0000
  H   H131      1.0  0.5908399999999998  0.48754  0.43787  1.0000
  H   H132      1.0  0.65943  0.51712  0.40185  1.0000
  H   H133      1.0  0.77561  0.37969  0.29723  1.0000
  H   H134      1.0  0.69325  0.30735  0.28442  1.0000
  H   H135      1.0  0.6600999999999998  0.37928  0.28792  1.0000
  H   H136      1.0  0.74772  0.16557  0.39518  1.0000
  H   H137      1.0  0.8381199999999998  0.2391  0.39931  1.0000
  H   H138      1.0  0.77065  0.20432  0.43476000000000004  1.0000
  H   H139      1.0  0.38692  0.23926  0.45879000000000003  1.0000
  H   H140      1.0  0.3320299999999999  0.25789  0.42238999999999993  1.0000
  H   H141      1.0  0.3605699999999999  0.18421  0.42479000000000006  1.0000
  H   H142      1.0  0.7770599999999998  0.30996  0.18759  1.0000
  H   H143      1.0  0.71843  0.35402  0.21219000000000002  1.0000
  H   H144      1.0  0.7927499999999998  0.39268  0.17899  1.0000
  H   H145      1.0  0.48219  0.24719  0.8030400000000001  1.0000
  H   H146      1.0  0.5524999999999998  0.44082  0.72724  1.0000
  H   H147      1.0  0.7712799999999997  0.55054  0.56022  1.0000
  H   H148      1.0  0.8420399999999998  0.38377  0.59038  1.0000
  H   H149      1.0  0.30323  0.14261  0.72728  1.0000
  H   H150      1.0  0.95939  0.21707  0.79165  1.0000
  H   H151      1.0  0.15162  0.2865  0.87041  1.0000
  H   H152      1.0  0.36292  0.3519  0.65075  1.0000
  H   H153      1.0  0.7230899999999998  0.03499  0.71759  1.0000
  H   H154      1.0  0.5429499999999998  0.91814  0.78941  1.0000
  H   H155      1.0  0.7652199999999998  0.024590000000000004  0.94032  1.0000
  H   H156      1.0  0.66407  0.18735  0.94052  1.0000
  H   H157      1.0  0.7955599999999997  0.51577  0.72029  1.0000
  H   H158      1.0  0.68445  0.52627  0.72713  1.0000
  H   H159      1.0  0.70376  0.45103  0.73624  1.0000
  H   H160      1.0  0.35  0.94844  0.8309099999999999  1.0000
  H   H161      1.0  0.38814  0.90356  0.7998000000000001  1.0000
  H   H162      1.0  0.46119000000000004  0.9360499999999999  0.83447  1.0000
  H   H163      1.0  0.68109  0.21292  0.8387699999999999  1.0000
  H   H164      1.0  0.63716  0.26529  0.8138200000000001  1.0000
  H   H165      1.0  0.56614  0.21682  0.8451400000000001  1.0000
  H   H166      1.0  0.3183299999999999  0.00233  0.68354  1.0000
  H   H167      1.0  0.25497  0.03712  0.71146  1.0000
  H   H168      1.0  0.33058  0.08616  0.6815  1.0000
  H   H169      1.0  0.59199  0.61079  0.592  1.0000
  H   H170      1.0  0.7132199999999997  0.62128  0.58867  1.0000
  H   H171      1.0  0.6362099999999998  0.57637  0.55777  1.0000
  H   H172      1.0  0.73518  0.2703  0.65398  1.0000
  H   H173      1.0  0.7571899999999998  0.28545  0.61055  1.0000
  H   H174      1.0  0.8349699999999998  0.33181  0.64079  1.0000
  H   H175      1.0  0.4102299999999999  0.33674  0.56358  1.0000
  H   H176      1.0  0.3801599999999999  0.29672  0.60261  1.0000
  H   H177      1.0  0.3531  0.36969  0.59461  1.0000
  H   H178      1.0  0.96299  0.00417  0.8993199999999999  1.0000
  H   H179      1.0  0.9089199999999997  0.01235  0.93793  1.0000
  H   H180      1.0  0.83993  0.98233  0.9020199999999999  1.0000
  H   H181      1.0  0.7244799999999998  0.12043  0.79728  1.0000
  H   H182      1.0  0.80693  0.19270999999999996  0.78445  1.0000
  H   H183      1.0  0.83987  0.1207  0.7878  1.0000
  H   H184      1.0  0.75281  0.33462  0.89515  1.0000
  H   H185      1.0  0.6629499999999998  0.26076  0.8992  1.0000
  H   H186      1.0  0.7297199999999999  0.29584  0.9347000000000001  1.0000
  H   H187      1.0  0.11265  0.26058  0.95877  1.0000
  H   H188      1.0  0.16803  0.24212  0.92247  1.0000
  H   H189      1.0  0.13942999999999997  0.31579  0.92485  1.0000
  H   H190      1.0  0.7229399999999998  0.19001  0.68757  1.0000
  H   H191      1.0  0.78137  0.14596  0.71219  1.0000
  H   H192      1.0  0.70755  0.10739  0.67889  1.0000
  C   C1        1.0  0.38499  0.98247  0.95265  1.0000
  C   C2        1.0  0.8340499999999997  0.74475  0.73328  1.0000
  C   C3        1.0  0.63358  0.7829000000000002  0.69572  1.0000
  C   C4        1.0  0.18246000000000004  0.42184000000000005  0.75107  1.0000
  C   C5        1.0  0.9647299999999998  0.70684  0.71358  1.0000
  C   C6        1.0  0.99185  0.61217  0.73799  1.0000
  C   C7        1.0  0.039730000000000015  0.9277500000000001  0.7987700000000001  1.0000
  C   C8        1.0  0.04439999999999998  0.56519  0.74014  1.0000
  C   C9        1.0  0.17076  0.94153  0.8799  1.0000
  C   C10       1.0  0.9149099999999999  0.60501  0.75856  1.0000
  C   C11       1.0  0.25717  0.00941  0.9238700000000001  1.0000
  C   C12       1.0  0.22806999999999994  0.9018500000000002  0.88316  1.0000
  C   C13       1.0  0.01624000000000004  0.66362  0.71559  1.0000
  C   C14       1.0  0.09459000000000002  0.9260600000000001  0.85558  1.0000
  C   C15       1.0  0.11111999999999997  0.94267  0.8219199999999999  1.0000
  C   C16       1.0  0.1867000000000001  0.9957100000000001  0.9003900000000001  1.0000
  C   C17       1.0  0.8880699999999998  0.69816  0.73419  1.0000
  C   C18       1.0  0.87596  0.87511  0.78451  1.0000
  C   C19       1.0  0.29863  0.91477  0.9066  1.0000
  C   C20       1.0  0.8625899999999997  0.64752  0.75679  1.0000
  C   C21       1.0  0.9511699999999998  0.89485  0.8094  1.0000
  C   C22       1.0  0.016850000000000007  0.50842  0.7215  1.0000
  C   C23       1.0  0.47302999999999995  0.721  0.68184  1.0000
  C   C24       1.0  0.31213  0.96861  0.9268599999999999  1.0000
  C   C25       1.0  0.4047  0.69388  0.65856  1.0000
  C   C26       1.0  0.5611699999999997  0.75418  0.67076  1.0000
  C   C27       1.0  0.58222  0.76033  0.63687  1.0000
  C   C28       1.0  0.42417  0.69893  0.62428  1.0000
  C   C29       1.0  0.35201000000000005  0.66726  0.60003  1.0000
  C   C30       1.0  0.93269  0.8775600000000001  0.84273  1.0000
  C   C31       1.0  0.1193  0.57469  0.76196  1.0000
  C   C32       1.0  0.004629999999999938  0.8936099999999999  0.86565  1.0000
  C   C33       1.0  0.51367  0.73193  0.6139  1.0000
  C   C34       1.0  0.16577999999999996  0.52878  0.76541  1.0000
  C   C35       1.0  0.06279  0.46214  0.7246  1.0000
  C   C36       1.0  0.2738  0.57272  0.56783  1.0000
  C   C37       1.0  0.20868999999999993  0.60252  0.55783  1.0000
  C   C38       1.0  0.13655  0.47264000000000006  0.7467  1.0000
  C   C39       1.0  0.21497  0.66484  0.56786  1.0000
  C   C40       1.0  0.13108999999999996  0.56633  0.53646  1.0000
  C   C41       1.0  0.34577  0.60543  0.58853  1.0000
  C   C42       1.0  0.2862899999999999  0.69652  0.58915  1.0000
  C   C43       1.0  0.22116999999999998  0.99251  0.78031  1.0000
  C   C44       1.0  0.90899  0.44373  0.68301  1.0000
  C   C45       1.0  0.12041999999999993  0.71902  0.67346  1.0000
  C   C46       1.0  0.82054  0.54518  0.80189  1.0000
  C   C47       1.0  0.14407  0.08876  0.9156799999999999  1.0000
  C   C48       1.0  0.26333000000000006  0.8079100000000001  0.86477  1.0000
  C   C49       1.0  0.90474  0.84366  0.90989  1.0000
  C   C50       1.0  0.40529  0.51599  0.58929  1.0000
  C   C51       1.0  0.29674  0.64813  0.70154  1.0000
  C   C52       1.0  0.23087  0.78814  0.5922  1.0000
  C   C53       1.0  0.6175799999999998  0.76503  0.56828  1.0000
  C   C54       1.0  0.21793000000000007  0.64351  0.80133  1.0000
  C   C55       1.0  0.11478  0.51811  0.4524599999999999  1.0000
  C   C56       1.0  0.66589  0.75506  0.23389  1.0000
  C   C57       1.0  0.8674099999999999  0.7173  0.19658  1.0000
  C   C58       1.0  0.31776  0.07846  0.2509  1.0000
  C   C59       1.0  0.53564  0.79306  0.21384  1.0000
  C   C60       1.0  0.50841  0.88797  0.23802  1.0000
  C   C61       1.0  0.45929  0.57166  0.29874  1.0000
  C   C62       1.0  0.4553999999999999  0.93473  0.24003000000000002  1.0000
  C   C63       1.0  0.32983  0.55896  0.37998  1.0000
  C   C64       1.0  0.58535  0.89532  0.2586  1.0000
  C   C65       1.0  0.24242999999999995  0.49072000000000005  0.42366999999999994  1.0000
  C   C66       1.0  0.27281  0.59884  0.38317  1.0000
  C   C67       1.0  0.4844099999999999  0.83646  0.21562000000000003  1.0000
  C   C68       1.0  0.40575  0.57411  0.35561  1.0000
  C   C69       1.0  0.38827  0.55724  0.32202  1.0000
  C   C70       1.0  0.3134  0.50463  0.40037  1.0000
  C   C71       1.0  0.61201  0.80176  0.23459  1.0000
  C   C72       1.0  0.6223  0.62347  0.28387  1.0000
  C   C73       1.0  0.20176  0.58567  0.40645  1.0000
  C   C74       1.0  0.63746  0.8526299999999999  0.25704  1.0000
  C   C75       1.0  0.5480899999999997  0.60441  0.30914  1.0000
  C   C76       1.0  0.4822899999999999  0.99121  0.22116  1.0000
  C   C77       1.0  0.027030000000000002  0.7788400000000001  0.18194  1.0000
  C   C78       1.0  0.1876  0.5316  0.4266  1.0000
  C   C79       1.0  0.09504999999999998  0.8061  0.1586  1.0000
  C   C80       1.0  0.93875  0.74563  0.1711  1.0000
  C   C81       1.0  0.9174199999999996  0.73949  0.13719  1.0000
  C   C82       1.0  0.07552999999999997  0.8010500000000002  0.12435  1.0000
  C   C83       1.0  0.14775  0.83268  0.10004999999999999  1.0000
  C   C84       1.0  0.56747  0.62209  0.34238  1.0000
  C   C85       1.0  0.3807  0.9253600000000001  0.26197  1.0000
  C   C86       1.0  0.49602  0.60635  0.36551  1.0000
  C   C87       1.0  0.9859600000000001  0.7679000000000001  0.11413000000000001  1.0000
  C   C88       1.0  0.3340099999999999  0.9712  0.26542  1.0000
  C   C89       1.0  0.4366699999999999  0.03761  0.22446  1.0000
  C   C90       1.0  0.22701  0.92718  0.06804  1.0000
  C   C91       1.0  0.2918999999999999  0.89718  0.05805  1.0000
  C   C92       1.0  0.36322  0.02734  0.24669000000000002  1.0000
  C   C93       1.0  0.28506999999999993  0.8347500000000001  0.06801  1.0000
  C   C94       1.0  0.3696699999999999  0.9338  0.03687  1.0000
  C   C95       1.0  0.1547  0.8946400000000001  0.08861  1.0000
  C   C96       1.0  0.21319000000000002  0.8031700000000002  0.08915  1.0000
  C   C97       1.0  0.27846  0.50751  0.28049  1.0000
  C   C98       1.0  0.59029  0.05614  0.1828  1.0000
  C   C99       1.0  0.38013  0.78104  0.17341  1.0000
  C   C100      1.0  0.67976  0.95514  0.3019  1.0000
  C   C101      1.0  0.35569000000000006  0.41150000000000003  0.41569  1.0000
  C   C102      1.0  0.23755000000000007  0.69266  0.36468  1.0000
  C   C103      1.0  0.5965  0.65653  0.40971  1.0000
  C   C104      1.0  0.09535  0.98434  0.08924  1.0000
  C   C105      1.0  0.20312  0.85186  0.20155000000000003  1.0000
  C   C106      1.0  0.2683  0.71168  0.09225  1.0000
  C   C107      1.0  0.8825399999999998  0.735  0.0683  1.0000
  C   C108      1.0  0.2822299999999999  0.8565499999999999  0.30137  1.0000
  C   C109      1.0  0.61502  0.01753  0.04735  1.0000
  C   C110      1.0  0.16596  0.25525  0.26672  1.0000
  C   C111      1.0  0.36643  0.2171  0.30428  1.0000
  C   C112      1.0  0.81755  0.57816  0.24893000000000004  1.0000
  C   C113      1.0  0.03527999999999999  0.29316  0.28642  1.0000
  C   C114      1.0  0.008159999999999988  0.38784  0.26201  1.0000
  C   C115      1.0  0.9602799999999998  0.07225  0.20123000000000002  1.0000
  C   C116      1.0  0.9556099999999997  0.43482  0.25986  1.0000
  C   C117      1.0  0.82925  0.05847000000000001  0.12010000000000001  1.0000
  C   C118      1.0  0.0851  0.39499  0.24144  1.0000
  C   C119      1.0  0.7428399999999998  0.9905899999999999  0.07613  1.0000
  C   C120      1.0  0.7719399999999998  0.09815  0.11684  1.0000
  C   C121      1.0  0.9837700000000001  0.33639  0.28441  1.0000
  C   C122      1.0  0.90542  0.07394  0.14442  1.0000
  C   C123      1.0  0.88889  0.05733  0.17808  1.0000
  C   C124      1.0  0.81331  0.00429  0.09961  1.0000
  C   C125      1.0  0.11193999999999997  0.30184  0.26581  1.0000
  C   C126      1.0  0.12405  0.12488999999999999  0.21549  1.0000
  C   C127      1.0  0.7013799999999998  0.08523  0.0934  1.0000
  C   C128      1.0  0.13742  0.35248  0.24321  1.0000
  C   C129      1.0  0.04884  0.10515  0.1906  1.0000
  C   C130      1.0  0.98316  0.49158  0.2785  1.0000
  C   C131      1.0  0.5269799999999998  0.279  0.31816  1.0000
  C   C132      1.0  0.68788  0.03139  0.07314  1.0000
  C   C133      1.0  0.59531  0.30612  0.34144  1.0000
  C   C134      1.0  0.4388399999999999  0.24582  0.32924  1.0000
  C   C135      1.0  0.41779  0.23967000000000002  0.36313  1.0000
  C   C136      1.0  0.57584  0.30107  0.37572  1.0000
  C   C137      1.0  0.648  0.33274  0.39997000000000005  1.0000
  C   C138      1.0  0.06731999999999998  0.12244  0.15727  1.0000
  C   C139      1.0  0.88071  0.4253100000000001  0.23804  1.0000
  C   C140      1.0  0.99538  0.10639  0.13435  1.0000
  C   C141      1.0  0.4863399999999999  0.26807  0.3861  1.0000
  C   C142      1.0  0.83423  0.47122  0.23459  1.0000
  C   C143      1.0  0.9372199999999998  0.53786  0.2754  1.0000
  C   C144      1.0  0.7262099999999998  0.42728000000000005  0.43217  1.0000
  C   C145      1.0  0.7913199999999997  0.39749  0.44217  1.0000
  C   C146      1.0  0.86346  0.52736  0.2533  1.0000
  C   C147      1.0  0.78504  0.33516  0.4321400000000001  1.0000
  C   C148      1.0  0.86892  0.43367  0.46353999999999995  1.0000
  C   C149      1.0  0.65424  0.39457  0.41147  1.0000
  C   C150      1.0  0.71372  0.30348  0.41085  1.0000
  C   C151      1.0  0.7788399999999998  0.007500000000000001  0.21969  1.0000
  C   C152      1.0  0.09101999999999995  0.55627  0.31699  1.0000
  C   C153      1.0  0.8795899999999998  0.28098  0.32654  1.0000
  C   C154      1.0  0.17947000000000002  0.45482000000000006  0.19811  1.0000
  C   C155      1.0  0.8559400000000001  0.9112400000000002  0.08432  1.0000
  C   C156      1.0  0.7366799999999998  0.19208999999999998  0.13523  1.0000
  C   C157      1.0  0.09526999999999998  0.15634  0.09011  1.0000
  C   C158      1.0  0.59472  0.48401  0.41071  1.0000
  C   C159      1.0  0.70327  0.35188  0.29846  1.0000
  C   C160      1.0  0.7691399999999998  0.21186  0.4078  1.0000
  C   C161      1.0  0.3824299999999999  0.23497  0.43172  1.0000
  C   C162      1.0  0.78208  0.35649  0.19867  1.0000
  C   C163      1.0  0.8852299999999999  0.48188999999999993  0.54754  1.0000
  C   C164      1.0  0.33411999999999986  0.24494  0.76611  1.0000
  C   C165      1.0  0.1326  0.2827  0.8034199999999999  1.0000
  C   C166      1.0  0.68225  0.92154  0.7491  1.0000
  C   C167      1.0  0.46436999999999995  0.20694000000000004  0.78616  1.0000
  C   C168      1.0  0.49160000000000004  0.11203000000000002  0.76198  1.0000
  C   C169      1.0  0.54072  0.42833999999999994  0.70126  1.0000
  C   C170      1.0  0.54461  0.06527  0.75997  1.0000
  C   C171      1.0  0.67018  0.44104  0.62002  1.0000
  C   C172      1.0  0.41465999999999986  0.10468000000000001  0.7414  1.0000
  C   C173      1.0  0.7575799999999998  0.50928  0.57633  1.0000
  C   C174      1.0  0.7271999999999997  0.40116  0.61683  1.0000
  C   C175      1.0  0.51559  0.16354  0.78438  1.0000
  C   C176      1.0  0.59426  0.4259  0.64439  1.0000
  C   C177      1.0  0.6117399999999997  0.44276  0.67798  1.0000
  C   C178      1.0  0.68661  0.49537  0.59963  1.0000
  C   C179      1.0  0.388  0.19825  0.76541  1.0000
  C   C180      1.0  0.37771  0.37653  0.71613  1.0000
  C   C181      1.0  0.79825  0.41433  0.59355  1.0000
  C   C182      1.0  0.3625499999999999  0.14737  0.74296  1.0000
  C   C183      1.0  0.45192000000000004  0.3956  0.69086  1.0000
  C   C184      1.0  0.51772  0.00879  0.77884  1.0000
  C   C185      1.0  0.9729799999999997  0.22116  0.8180599999999999  1.0000
  C   C186      1.0  0.8124099999999997  0.4684  0.5734  1.0000
  C   C187      1.0  0.9049599999999998  0.1939  0.8414  1.0000
  C   C188      1.0  0.06125  0.25438  0.8289  1.0000
  C   C189      1.0  0.08258999999999996  0.26052  0.86281  1.0000
  C   C190      1.0  0.9244799999999999  0.19896  0.8756500000000002  1.0000
  C   C191      1.0  0.85226  0.16732  0.8999499999999999  1.0000
  C   C192      1.0  0.43254  0.37791  0.65762  1.0000
  C   C193      1.0  0.6193  0.07464  0.73803  1.0000
  C   C194      1.0  0.50399  0.39364999999999994  0.63449  1.0000
  C   C195      1.0  0.014050000000000009  0.2321  0.88587  1.0000
  C   C196      1.0  0.666  0.02881  0.73458  1.0000
  C   C197      1.0  0.56334  0.9623900000000001  0.77554  1.0000
  C   C198      1.0  0.773  0.07282  0.93196  1.0000
  C   C199      1.0  0.70811  0.10282  0.94195  1.0000
  C   C200      1.0  0.63679  0.97266  0.75331  1.0000
  C   C201      1.0  0.71494  0.16526  0.93199  1.0000
  C   C202      1.0  0.6303399999999998  0.0662  0.96313  1.0000
  C   C203      1.0  0.8453099999999998  0.10536000000000001  0.91139  1.0000
  C   C204      1.0  0.78681  0.19683  0.91085  1.0000
  C   C205      1.0  0.72155  0.49249  0.71951  1.0000
  C   C206      1.0  0.40972  0.94386  0.8172  1.0000
  C   C207      1.0  0.61988  0.21896  0.82659  1.0000
  C   C208      1.0  0.32025  0.04487  0.6981  1.0000
  C   C209      1.0  0.6443199999999999  0.5885  0.58431  1.0000
  C   C210      1.0  0.7624599999999998  0.30734  0.63532  1.0000
  C   C211      1.0  0.40351  0.34347  0.59029  1.0000
  C   C212      1.0  0.9046599999999998  0.01566  0.91076  1.0000
  C   C213      1.0  0.79689  0.14814  0.79845  1.0000
  C   C214      1.0  0.73171  0.28833  0.9077499999999998  1.0000
  C   C215      1.0  0.11747  0.265  0.9316999999999999  1.0000
  C   C216      1.0  0.7177799999999998  0.14345  0.69863  1.0000
  O   O1        1.0  0.86197  0.79299  0.71386  1.0000
  O   O2        1.0  0.70951  0.8213  0.68541  1.0000
  O   O3        1.0  0.7998599999999999  0.8365100000000001  0.7944700000000001  1.0000
  O   O4        1.0  0.39559  0.03344  0.96981  1.0000
  O   O5        1.0  0.24438999999999994  0.43024  0.77357  1.0000
  O   O6        1.0  0.15534  0.37284  0.73218  1.0000
  O   O7        1.0  0.76427  0.73366  0.7526  1.0000
  O   O8        1.0  0.61379  0.76678  0.72603  1.0000
  O   O9        1.0  0.89324  0.89687  0.7549  1.0000
  O   O10       1.0  0.08328  0.59768  0.52191  1.0000
  O   O11       1.0  0.11787999999999997  0.50588  0.53428  1.0000
  O   O12       1.0  0.43088000000000004  0.94237  0.95613  1.0000
  O   O13       1.0  0.20053  0.9731699999999999  0.8141899999999999  1.0000
  O   O14       1.0  0.3163799999999999  0.6608  0.66683  1.0000
  O   O15       1.0  0.12913  0.03258  0.89556  1.0000
  O   O16       1.0  0.2088000000000001  0.8507500000000001  0.86187  1.0000
  O   O17       1.0  0.89655  0.55378  0.7797  1.0000
  O   O18       1.0  0.09262999999999995  0.6675  0.69684  1.0000
  O   O19       1.0  0.9945999999999999  0.8789100000000001  0.8988600000000001  1.0000
  O   O20       1.0  0.5272999999999998  0.73337  0.58018  1.0000
  O   O21       1.0  0.94282  0.50243  0.70116  1.0000
  O   O22       1.0  0.4129  0.58019  0.59939  1.0000
  O   O23       1.0  0.14112  0.63097  0.77934  1.0000
  O   O24       1.0  0.29796  0.75711  0.60114  1.0000
  O   O25       1.0  0.63598  0.70572  0.21538000000000002  1.0000
  O   O26       1.0  0.7909099999999998  0.67915  0.18671  1.0000
  O   O27       1.0  0.6979499999999998  0.66329  0.2932  1.0000
  O   O28       1.0  0.10251999999999997  0.46674  0.46943  1.0000
  O   O29       1.0  0.25423  0.06985  0.27282  1.0000
  O   O30       1.0  0.3467  0.12783  0.23235  1.0000
  O   O31       1.0  0.7374099999999998  0.76705  0.25239  1.0000
  O   O32       1.0  0.8885399999999997  0.73333  0.22686999999999996  1.0000
  O   O33       1.0  0.60473  0.60005  0.25457  1.0000
  O   O34       1.0  0.4176799999999999  0.90298  0.02197  1.0000
  O   O35       1.0  0.38255  0.99429  0.03523  1.0000
  O   O36       1.0  0.07063  0.55922  0.45617  1.0000
  O   O37       1.0  0.29857  0.52697  0.31441  1.0000
  O   O38       1.0  0.18310999999999997  0.83938  0.16685  1.0000
  O   O39       1.0  0.3710499999999999  0.4678  0.39562  1.0000
  O   O40       1.0  0.2929799999999999  0.65034  0.36206  1.0000
  O   O41       1.0  0.60434  0.94698  0.27951  1.0000
  O   O42       1.0  0.40863  0.83281  0.19663  1.0000
  O   O43       1.0  0.50674  0.62099  0.39874  1.0000
  O   O44       1.0  0.9726999999999998  0.76655  0.08039  1.0000
  O   O45       1.0  0.5553899999999998  0.9969300000000001  0.20041  1.0000
  O   O46       1.0  0.08801000000000002  0.92024  0.09943  1.0000
  O   O47       1.0  0.35948  0.86927  0.27951  1.0000
  O   O48       1.0  0.20066999999999996  0.74242  0.10103  1.0000
  O   O49       1.0  0.13804  0.20701  0.28614  1.0000
  O   O50       1.0  0.2905  0.1787  0.31459  1.0000
  O   O51       1.0  0.20015  0.16349  0.20553  1.0000
  O   O52       1.0  0.60441  0.96657  0.030189999999999998  1.0000
  O   O53       1.0  0.75562  0.56976  0.22643000000000002  1.0000
  O   O54       1.0  0.8446699999999998  0.62716  0.26782  1.0000
  O   O55       1.0  0.23573999999999995  0.26634  0.2474  1.0000
  O   O56       1.0  0.38622  0.23322  0.27397  1.0000
  O   O57       1.0  0.10676999999999999  0.10313  0.24510000000000004  1.0000
  O   O58       1.0  0.9167299999999998  0.40232  0.47809000000000007  1.0000
  O   O59       1.0  0.88211  0.49412000000000006  0.46573000000000003  1.0000
  O   O60       1.0  0.5691299999999999  0.05763000000000001  0.04387  1.0000
  O   O61       1.0  0.79948  0.02683  0.18581  1.0000
  O   O62       1.0  0.6836299999999997  0.3392  0.33317  1.0000
  O   O63       1.0  0.87088  0.96742  0.10444  1.0000
  O   O64       1.0  0.7912099999999997  0.14925  0.13813  1.0000
  O   O65       1.0  0.10346000000000002  0.44622  0.22030000000000002  1.0000
  O   O66       1.0  0.90737  0.3325  0.30316  1.0000
  O   O67       1.0  0.005410000000000006  0.12109  0.10114  1.0000
  O   O68       1.0  0.4727099999999998  0.26663  0.41982  1.0000
  O   O69       1.0  0.05718999999999996  0.49756999999999996  0.29884  1.0000
  O   O70       1.0  0.58711  0.41981  0.40060999999999997  1.0000
  O   O71       1.0  0.85889  0.36903  0.22066000000000002  1.0000
  O   O72       1.0  0.70205  0.24289  0.39886  1.0000
  O   O73       1.0  0.36403  0.29428  0.78462  1.0000
  O   O74       1.0  0.20910000000000004  0.32086  0.81329  1.0000
  O   O75       1.0  0.30206  0.33671  0.7068  1.0000
  O   O76       1.0  0.8974899999999997  0.53326  0.53058  1.0000
  O   O77       1.0  0.7457799999999998  0.9301500000000001  0.72718  1.0000
  O   O78       1.0  0.65331  0.87217  0.76765  1.0000
  O   O79       1.0  0.26259999999999994  0.23295000000000002  0.74761  1.0000
  O   O80       1.0  0.11147  0.26667  0.77313  1.0000
  O   O81       1.0  0.39528  0.39995  0.74543  1.0000
  O   O82       1.0  0.58233  0.09703  0.97803  1.0000
  O   O83       1.0  0.61746  0.00571  0.9647699999999999  1.0000
  O   O84       1.0  0.9293799999999999  0.44078  0.54382  1.0000
  O   O85       1.0  0.7014399999999998  0.47303  0.68559  1.0000
  O   O86       1.0  0.8168999999999997  0.16062  0.83315  1.0000
  O   O87       1.0  0.62896  0.5322  0.60438  1.0000
  O   O88       1.0  0.70703  0.34966  0.63794  1.0000
  O   O89       1.0  0.3956699999999999  0.053020000000000005  0.72049  1.0000
  O   O90       1.0  0.5913799999999998  0.16719  0.8033700000000001  1.0000
  O   O91       1.0  0.49327  0.37901  0.60126  1.0000
  O   O92       1.0  0.02731  0.23346  0.91961  1.0000
  O   O93       1.0  0.44461999999999996  0.00307  0.7995900000000001  1.0000
  O   O94       1.0  0.9119999999999998  0.07976  0.9005699999999999  1.0000
  O   O95       1.0  0.6405299999999999  0.13073  0.72049  1.0000
  O   O96       1.0  0.79934  0.25758  0.8989699999999999  1.0000
