data_image0
_chemical_formula_structural       Gd8H48C168N48O144
_chemical_formula_sum              "Gd8 H48 C168 N48 O144"
_cell_length_a       13.98825
_cell_length_b       25.145
_cell_length_c       29.71152
_cell_angle_alpha    90.0
_cell_angle_beta     90.0
_cell_angle_gamma    94.53618999999999

_space_group_name_H-M_alt    "P 1"
_space_group_IT_number       1

loop_
  _space_group_symop_operation_xyz
  'x, y, z'

loop_
  _atom_site_type_symbol
  _atom_site_label
  _atom_site_symmetry_multiplicity
  _atom_site_fract_x
  _atom_site_fract_y
  _atom_site_fract_z
  _atom_site_occupancy
  Gd  Gd1       1.0  0.3740300000000001  0.22384  0.7416900000000002  1.0000
  Gd  Gd2       1.0  0.6214200000000002  0.27953  0.77891  1.0000
  Gd  Gd3       1.0  0.12597  0.27615  0.24169  1.0000
  Gd  Gd4       1.0  0.87858  0.22047  0.27891  1.0000
  Gd  Gd5       1.0  0.62597  0.77615  0.25831  1.0000
  Gd  Gd6       1.0  0.37858  0.72047  0.22109  1.0000
  Gd  Gd7       1.0  0.8740200000000002  0.72384  0.75831  1.0000
  Gd  Gd8       1.0  0.12142000000000003  0.77953  0.7210900000000001  1.0000
  H   H1        1.0  0.68095  0.14318  0.79965  1.0000
  H   H2        1.0  0.51916  0.06365  0.69162  1.0000
  H   H3        1.0  0.007100000000000001  0.95557  0.6994  1.0000
  H   H4        1.0  0.8037  0.85458  0.77692  1.0000
  H   H5        1.0  0.55262  0.2829  0.91427  1.0000
  H   H6        1.0  0.28155  0.19201  0.89362  1.0000
  H   H7        1.0  0.25351000000000007  0.3363999999999999  0.10804  1.0000
  H   H8        1.0  0.35438  0.18378  0.14299  1.0000
  H   H9        1.0  0.7305200000000002  0.29347  0.6332100000000003  1.0000
  H   H10       1.0  0.43727  0.24053  0.60169  1.0000
  H   H11       1.0  0.6857300000000001  0.32160000000000005  0.38309  1.0000
  H   H12       1.0  0.7275500000000003  0.15644  0.4110000000000001  1.0000
  H   H13       1.0  0.8190400000000002  0.3568200000000001  0.29965000000000014  1.0000
  H   H14       1.0  0.98083  0.43635000000000007  0.19162  1.0000
  H   H15       1.0  0.49290000000000006  0.54442  0.19941  1.0000
  H   H16       1.0  0.6962900000000002  0.64542  0.27693  1.0000
  H   H17       1.0  0.9473800000000002  0.2171  0.41427  1.0000
  H   H18       1.0  0.21845000000000006  0.30799  0.39362  1.0000
  H   H19       1.0  0.24648000000000006  0.1636  0.60804  1.0000
  H   H20       1.0  0.14562000000000005  0.31622  0.64299  1.0000
  H   H21       1.0  0.76947  0.20653  0.13321  1.0000
  H   H22       1.0  0.06273  0.25947  0.10169000000000002  1.0000
  H   H23       1.0  0.81426  0.1784  0.8830900000000002  1.0000
  H   H24       1.0  0.7724500000000002  0.34356000000000003  0.911  1.0000
  H   H25       1.0  0.3190400000000001  0.85682  0.20035  1.0000
  H   H26       1.0  0.4808400000000001  0.93635  0.30837  1.0000
  H   H27       1.0  0.9929000000000002  0.04442  0.30059  1.0000
  H   H28       1.0  0.19629  0.14542  0.22307000000000005  1.0000
  H   H29       1.0  0.4473800000000001  0.71709  0.08572  1.0000
  H   H30       1.0  0.71844  0.8079900000000001  0.10638  1.0000
  H   H31       1.0  0.7464800000000001  0.6636  0.8919600000000002  1.0000
  H   H32       1.0  0.6456200000000002  0.8162200000000001  0.8570100000000003  1.0000
  H   H33       1.0  0.26947  0.70653  0.36679000000000006  1.0000
  H   H34       1.0  0.5627300000000002  0.75947  0.39831  1.0000
  H   H35       1.0  0.31426  0.6784  0.61691  1.0000
  H   H36       1.0  0.27245000000000014  0.84356  0.5890000000000002  1.0000
  H   H37       1.0  0.18096000000000007  0.64318  0.7003500000000003  1.0000
  H   H38       1.0  0.019160000000000017  0.56365  0.80837  1.0000
  H   H39       1.0  0.50709  0.45557  0.8005900000000002  1.0000
  H   H40       1.0  0.3037  0.35458000000000006  0.72307  1.0000
  H   H41       1.0  0.052620000000000035  0.7829000000000002  0.58572  1.0000
  H   H42       1.0  0.7815500000000001  0.6920099999999999  0.60638  1.0000
  H   H43       1.0  0.75351  0.8364  0.39196  1.0000
  H   H44       1.0  0.8543800000000003  0.6837799999999999  0.35701  1.0000
  H   H45       1.0  0.23053000000000007  0.79347  0.86679  1.0000
  H   H46       1.0  0.9372700000000002  0.74053  0.8983100000000003  1.0000
  H   H47       1.0  0.18573000000000006  0.82159  0.11691  1.0000
  H   H48       1.0  0.22755000000000006  0.65644  0.089  1.0000
  C   C1        1.0  0.51883  0.14864  0.7474500000000002  1.0000
  C   C2        1.0  0.5895200000000002  0.10755000000000002  0.7465  1.0000
  C   C3        1.0  0.66789  0.11036  0.7759600000000002  1.0000
  C   C4        1.0  0.73021  0.07017  0.7752300000000002  1.0000
  C   C5        1.0  0.72138  0.02692  0.7448900000000003  1.0000
  C   C6        1.0  0.6445200000000002  0.02739  0.71419  1.0000
  C   C7        1.0  0.5784600000000002  0.06606  0.7153700000000001  1.0000
  C   C8        1.0  0.79109  0.98467  0.7442000000000002  1.0000
  C   C9        1.0  0.8787899999999998  0.99017  0.7206300000000002  1.0000
  C   C10       1.0  0.9398700000000002  0.94917  0.71769  1.0000
  C   C11       1.0  0.9143  0.90005  0.73794  1.0000
  C   C12       1.0  0.8271700000000002  0.89249  0.76117  1.0000
  C   C13       1.0  0.7687300000000001  0.93439  0.7642600000000002  1.0000
  C   C14       1.0  0.9800900000000002  0.8566700000000002  0.73369  1.0000
  C   C15       1.0  0.4383900000000001  0.23941  0.8483  1.0000
  C   C16       1.0  0.4194600000000001  0.23734000000000002  0.8976900000000002  1.0000
  C   C17       1.0  0.4869300000000001  0.26257  0.92711  1.0000
  C   C18       1.0  0.46899000000000013  0.26349  0.9729500000000002  1.0000
  C   C19       1.0  0.38453  0.23891  0.9923100000000001  1.0000
  C   C20       1.0  0.3196800000000001  0.21243000000000004  0.9617  1.0000
  C   C21       1.0  0.33536  0.2121  0.91541  1.0000
  C   C22       1.0  0.35915000000000014  0.24733  0.0406  1.0000
  C   C23       1.0  0.31433000000000005  0.29294  0.05449  1.0000
  C   C24       1.0  0.2871800000000001  0.30044  0.09894  1.0000
  C   C25       1.0  0.3003500000000001  0.26136  0.13116  1.0000
  C   C26       1.0  0.3436400000000001  0.21521999999999997  0.11875  1.0000
  C   C27       1.0  0.37347000000000014  0.20953  0.07454  1.0000
  C   C28       1.0  0.26081  0.26858  0.17712  1.0000
  C   C29       1.0  0.55613  0.2637  0.67207  1.0000
  C   C30       1.0  0.58115  0.26606  0.62342  1.0000
  C   C31       1.0  0.67455  0.28087  0.60925  1.0000
  C   C32       1.0  0.6975200000000001  0.27819  0.56384  1.0000
  C   C33       1.0  0.6301500000000001  0.26012  0.53069  1.0000
  C   C34       1.0  0.53585  0.24780000000000002  0.54641  1.0000
  C   C35       1.0  0.51094  0.2508  0.59143  1.0000
  C   C36       1.0  0.65641  0.25283  0.48245  1.0000
  C   C37       1.0  0.65533  0.29394  0.4502900000000001  1.0000
  C   C38       1.0  0.6844700000000001  0.28777  0.40597  1.0000
  C   C39       1.0  0.7114400000000002  0.23814  0.3915400000000001  1.0000
  C   C40       1.0  0.7085000000000002  0.1955  0.42184  1.0000
  C   C41       1.0  0.6829800000000001  0.20347  0.46637  1.0000
  C   C42       1.0  0.74817  0.2306  0.34505  1.0000
  C   C43       1.0  0.9811700000000002  0.35136  0.24745000000000006  1.0000
  C   C44       1.0  0.91047  0.39245  0.2465  1.0000
  C   C45       1.0  0.8321100000000002  0.38964000000000004  0.27597  1.0000
  C   C46       1.0  0.76978  0.42982999999999993  0.2752300000000001  1.0000
  C   C47       1.0  0.7786100000000002  0.47308  0.24489  1.0000
  C   C48       1.0  0.85547  0.47261  0.21419  1.0000
  C   C49       1.0  0.9215400000000002  0.43394  0.21537  1.0000
  C   C50       1.0  0.7089000000000002  0.51533  0.24421000000000007  1.0000
  C   C51       1.0  0.6212100000000003  0.50983  0.22063  1.0000
  C   C52       1.0  0.56013  0.55083  0.21769  1.0000
  C   C53       1.0  0.5857000000000002  0.59995  0.23794  1.0000
  C   C54       1.0  0.67283  0.60751  0.26117  1.0000
  C   C55       1.0  0.73127  0.56561  0.26426  1.0000
  C   C56       1.0  0.51991  0.64333  0.23369000000000006  1.0000
  C   C57       1.0  0.061610000000000005  0.26059  0.3483  1.0000
  C   C58       1.0  0.08053  0.26266  0.39769  1.0000
  C   C59       1.0  0.013070000000000003  0.23743000000000003  0.42712  1.0000
  C   C60       1.0  0.03101000000000001  0.23651000000000003  0.4729500000000001  1.0000
  C   C61       1.0  0.11547  0.26109  0.49231  1.0000
  C   C62       1.0  0.18032000000000006  0.28757  0.4617000000000001  1.0000
  C   C63       1.0  0.16464  0.2879  0.41542  1.0000
  C   C64       1.0  0.14085  0.25267  0.5406  1.0000
  C   C65       1.0  0.18567000000000006  0.20706  0.55449  1.0000
  C   C66       1.0  0.21282000000000004  0.19956  0.5989400000000002  1.0000
  C   C67       1.0  0.19965  0.23864  0.6311500000000001  1.0000
  C   C68       1.0  0.15636000000000003  0.28478  0.61875  1.0000
  C   C69       1.0  0.12652  0.29047  0.57454  1.0000
  C   C70       1.0  0.23918000000000003  0.23142  0.6771200000000003  1.0000
  C   C71       1.0  0.94386  0.23630000000000004  0.17207  1.0000
  C   C72       1.0  0.9188400000000001  0.23394000000000004  0.12342  1.0000
  C   C73       1.0  0.8254500000000002  0.21913  0.10925  1.0000
  C   C74       1.0  0.80248  0.22181  0.06385  1.0000
  C   C75       1.0  0.86984  0.23988000000000004  0.0307  1.0000
  C   C76       1.0  0.96414  0.2522  0.04641  1.0000
  C   C77       1.0  0.9890600000000003  0.2492  0.09143000000000001  1.0000
  C   C78       1.0  0.8435900000000002  0.24717000000000003  0.98245  1.0000
  C   C79       1.0  0.8446600000000002  0.20606  0.95029  1.0000
  C   C80       1.0  0.81552  0.21223000000000003  0.9059600000000001  1.0000
  C   C81       1.0  0.78856  0.26186  0.89154  1.0000
  C   C82       1.0  0.7915  0.30449  0.92184  1.0000
  C   C83       1.0  0.81701  0.29653  0.96637  1.0000
  C   C84       1.0  0.75182  0.2694  0.84505  1.0000
  C   C85       1.0  0.4811700000000001  0.8513600000000001  0.25255  1.0000
  C   C86       1.0  0.4104700000000001  0.8924499999999999  0.2535  1.0000
  C   C87       1.0  0.3321100000000001  0.88964  0.22403  1.0000
  C   C88       1.0  0.26979  0.92983  0.22477000000000005  1.0000
  C   C89       1.0  0.27861  0.97308  0.2551  1.0000
  C   C90       1.0  0.35548  0.97261  0.28581  1.0000
  C   C91       1.0  0.42154  0.93394  0.28463  1.0000
  C   C92       1.0  0.2089  0.01533  0.25579  1.0000
  C   C93       1.0  0.12121  0.00983  0.27937  1.0000
  C   C94       1.0  0.06013000000000002  0.05083000000000001  0.28231  1.0000
  C   C95       1.0  0.08570000000000003  0.09995  0.26206  1.0000
  C   C96       1.0  0.17283000000000004  0.10750999999999998  0.23882  1.0000
  C   C97       1.0  0.23127000000000006  0.06561  0.23573  1.0000
  C   C98       1.0  0.01991  0.14333  0.26631  1.0000
  C   C99       1.0  0.56161  0.76059  0.15170000000000006  1.0000
  C   C100      1.0  0.5805300000000001  0.76266  0.10231000000000003  1.0000
  C   C101      1.0  0.51307  0.7374300000000001  0.07288  1.0000
  C   C102      1.0  0.53101  0.73651  0.027050000000000005  1.0000
  C   C103      1.0  0.61547  0.76109  0.00769  1.0000
  C   C104      1.0  0.68032  0.78756  0.0383  1.0000
  C   C105      1.0  0.6646400000000002  0.7879  0.08458  1.0000
  C   C106      1.0  0.6408500000000001  0.7526600000000001  0.9594000000000003  1.0000
  C   C107      1.0  0.68567  0.70706  0.9455000000000002  1.0000
  C   C108      1.0  0.71282  0.69956  0.90106  1.0000
  C   C109      1.0  0.6996500000000001  0.73864  0.8688400000000001  1.0000
  C   C110      1.0  0.65636  0.78478  0.8812500000000002  1.0000
  C   C111      1.0  0.6265200000000002  0.79047  0.9254600000000002  1.0000
  C   C112      1.0  0.73918  0.73142  0.82288  1.0000
  C   C113      1.0  0.4438600000000001  0.7363000000000001  0.32793  1.0000
  C   C114      1.0  0.4188400000000001  0.73394  0.37658000000000014  1.0000
  C   C115      1.0  0.3254500000000001  0.71913  0.39075  1.0000
  C   C116      1.0  0.30248000000000014  0.72181  0.4361500000000001  1.0000
  C   C117      1.0  0.3698400000000001  0.73988  0.4693  1.0000
  C   C118      1.0  0.4641400000000001  0.7522000000000001  0.45359  1.0000
  C   C119      1.0  0.4890600000000001  0.7492  0.40857  1.0000
  C   C120      1.0  0.34359  0.74717  0.51755  1.0000
  C   C121      1.0  0.34466  0.70606  0.5497100000000003  1.0000
  C   C122      1.0  0.3155300000000001  0.71223  0.5940300000000001  1.0000
  C   C123      1.0  0.2885600000000001  0.76186  0.60845  1.0000
  C   C124      1.0  0.2915  0.80449  0.57816  1.0000
  C   C125      1.0  0.3170100000000001  0.7965300000000001  0.53363  1.0000
  C   C126      1.0  0.25183  0.7694  0.65495  1.0000
  C   C127      1.0  0.01883000000000001  0.64864  0.75255  1.0000
  C   C128      1.0  0.08952000000000003  0.60755  0.7535000000000002  1.0000
  C   C129      1.0  0.16789  0.61036  0.72403  1.0000
  C   C130      1.0  0.23021000000000005  0.57017  0.72477  1.0000
  C   C131      1.0  0.22138000000000002  0.52692  0.7551  1.0000
  C   C132      1.0  0.14452  0.52739  0.78581  1.0000
  C   C133      1.0  0.07846  0.56606  0.78463  1.0000
  C   C134      1.0  0.29109  0.48467  0.75579  1.0000
  C   C135      1.0  0.37879  0.49017  0.77937  1.0000
  C   C136      1.0  0.4398700000000001  0.44917  0.78231  1.0000
  C   C137      1.0  0.41430000000000006  0.40005  0.7620500000000002  1.0000
  C   C138      1.0  0.3271700000000001  0.39249000000000006  0.7388200000000003  1.0000
  C   C139      1.0  0.26873  0.43439  0.73573  1.0000
  C   C140      1.0  0.48009000000000013  0.35667000000000004  0.7663100000000003  1.0000
  C   C141      1.0  0.9383900000000002  0.73941  0.6517  1.0000
  C   C142      1.0  0.91946  0.73734  0.60231  1.0000
  C   C143      1.0  0.9869300000000003  0.76257  0.57288  1.0000
  C   C144      1.0  0.9689900000000002  0.76349  0.52705  1.0000
  C   C145      1.0  0.8845200000000002  0.7389  0.50769  1.0000
  C   C146      1.0  0.8196800000000002  0.7124300000000001  0.5383  1.0000
  C   C147      1.0  0.8353600000000004  0.7121000000000001  0.58458  1.0000
  C   C148      1.0  0.85915  0.74733  0.45940000000000003  1.0000
  C   C149      1.0  0.8143300000000002  0.79294  0.4455  1.0000
  C   C150      1.0  0.7871800000000002  0.80044  0.40106  1.0000
  C   C151      1.0  0.80034  0.76136  0.36884  1.0000
  C   C152      1.0  0.8436400000000002  0.71522  0.38125000000000003  1.0000
  C   C153      1.0  0.87347  0.70952  0.4254600000000001  1.0000
  C   C154      1.0  0.7608100000000001  0.7685800000000002  0.3228800000000001  1.0000
  C   C155      1.0  0.05612999999999999  0.7636999999999999  0.82793  1.0000
  C   C156      1.0  0.08116  0.76606  0.8765700000000002  1.0000
  C   C157      1.0  0.17455000000000007  0.78087  0.89075  1.0000
  C   C158      1.0  0.19752  0.77819  0.9361500000000003  1.0000
  C   C159      1.0  0.13016  0.76012  0.9693  1.0000
  C   C160      1.0  0.03585000000000002  0.7478  0.95359  1.0000
  C   C161      1.0  0.010929999999999997  0.7508  0.90857  1.0000
  C   C162      1.0  0.15641000000000002  0.75283  0.01755  1.0000
  C   C163      1.0  0.15534  0.79394  0.04971  1.0000
  C   C164      1.0  0.18447  0.78777  0.09403  1.0000
  C   C165      1.0  0.21144000000000004  0.73814  0.10846000000000003  1.0000
  C   C166      1.0  0.20850000000000005  0.6955  0.07816  1.0000
  C   C167      1.0  0.18298  0.7034699999999999  0.03363  1.0000
  C   C168      1.0  0.24817000000000008  0.73059  0.15495  1.0000
  N   N1        1.0  0.8100800000000002  0.07471  0.80786  1.0000
  N   N2        1.0  0.6269700000000002  0.98562  0.67917  1.0000
  N   N3        1.0  0.91257  0.04111  0.69863  1.0000
  N   N4        1.0  0.67773  0.92424  0.7892100000000002  1.0000
  N   N5        1.0  0.54055  0.29444  0.00118  1.0000
  N   N6        1.0  0.23105  0.18187  0.9773400000000001  1.0000
  N   N7        1.0  0.29196  0.33593000000000006  0.02266  1.0000
  N   N8        1.0  0.4214100000000001  0.16066  0.06339  1.0000
  N   N9        1.0  0.7991300000000002  0.29144  0.55207  1.0000
  N   N10       1.0  0.4575400000000001  0.23074  0.51506  1.0000
  N   N11       1.0  0.6268000000000002  0.34709  0.46388  1.0000
  N   N12       1.0  0.68187  0.15701  0.49695  1.0000
  N   N13       1.0  0.68992  0.42529000000000006  0.30786000000000013  1.0000
  N   N14       1.0  0.87303  0.51438  0.17917  1.0000
  N   N15       1.0  0.5874200000000003  0.4588900000000001  0.19863000000000006  1.0000
  N   N16       1.0  0.8222700000000002  0.57576  0.28921  1.0000
  N   N17       1.0  0.95944  0.20556  0.50118  1.0000
  N   N18       1.0  0.26895  0.31813  0.47734  1.0000
  N   N19       1.0  0.20804  0.16407  0.52265  1.0000
  N   N20       1.0  0.07859  0.33934  0.56339  1.0000
  N   N21       1.0  0.70087  0.20855999999999997  0.05207000000000001  1.0000
  N   N22       1.0  0.04246000000000001  0.26926  0.01506  1.0000
  N   N23       1.0  0.8732  0.15291  0.96388  1.0000
  N   N24       1.0  0.8181200000000001  0.34299  0.9969500000000001  1.0000
  N   N25       1.0  0.18992  0.92529  0.19214  1.0000
  N   N26       1.0  0.3730300000000001  0.01438  0.32083  1.0000
  N   N27       1.0  0.08742  0.95889  0.30137  1.0000
  N   N28       1.0  0.3222700000000001  0.07576  0.21079  1.0000
  N   N29       1.0  0.45945000000000014  0.7055600000000001  0.99882  1.0000
  N   N30       1.0  0.7689500000000001  0.81813  0.02266  1.0000
  N   N31       1.0  0.7080400000000002  0.6640700000000002  0.9773400000000001  1.0000
  N   N32       1.0  0.57859  0.83934  0.9366100000000003  1.0000
  N   N33       1.0  0.20087  0.70856  0.4479300000000001  1.0000
  N   N34       1.0  0.54245  0.76925  0.48494  1.0000
  N   N35       1.0  0.3732  0.65291  0.53612  1.0000
  N   N36       1.0  0.31813  0.84299  0.50304  1.0000
  N   N37       1.0  0.31008000000000013  0.57471  0.6921400000000002  1.0000
  N   N38       1.0  0.12697000000000003  0.48562  0.82083  1.0000
  N   N39       1.0  0.41257  0.54111  0.8013600000000002  1.0000
  N   N40       1.0  0.17773  0.42424  0.71079  1.0000
  N   N41       1.0  0.04054999999999999  0.7944399999999999  0.4988200000000001  1.0000
  N   N42       1.0  0.73104  0.68187  0.52266  1.0000
  N   N43       1.0  0.79196  0.83593  0.47734  1.0000
  N   N44       1.0  0.9214100000000001  0.66066  0.43661  1.0000
  N   N45       1.0  0.29913  0.79144  0.94792  1.0000
  N   N46       1.0  0.9575400000000001  0.73074  0.98494  1.0000
  N   N47       1.0  0.1268  0.84709  0.03612000000000001  1.0000
  N   N48       1.0  0.18187000000000006  0.65701  0.00305  1.0000
  O   O1        1.0  0.43358000000000013  0.13757  0.73409  1.0000
  O   O2        1.0  0.54651  0.19591  0.76181  1.0000
  O   O3        1.0  0.06588000000000002  0.8674000000000001  0.7206700000000003  1.0000
  O   O4        1.0  0.9480600000000002  0.80831  0.74302  1.0000
  O   O5        1.0  0.8292500000000002  0.11903000000000001  0.82514  1.0000
  O   O6        1.0  0.8524300000000002  0.03419  0.8158  1.0000
  O   O7        1.0  0.5812100000000002  0.99751  0.64554  1.0000
  O   O8        1.0  0.6577500000000002  0.94142  0.68631  1.0000
  O   O9        1.0  0.8759300000000002  0.08208  0.7110700000000002  1.0000
  O   O10       1.0  0.9765000000000003  0.03968  0.67006  1.0000
  O   O11       1.0  0.6376200000000001  0.96366  0.8024500000000001  1.0000
  O   O12       1.0  0.64785  0.87718  0.79535  1.0000
  O   O13       1.0  0.37502  0.21964  0.8206400000000001  1.0000
  O   O14       1.0  0.51934  0.26227  0.8366400000000003  1.0000
  O   O15       1.0  0.24266000000000004  0.22800000000000004  0.20294  1.0000
  O   O16       1.0  0.23795000000000005  0.31491  0.18910000000000005  1.0000
  O   O17       1.0  0.60468  0.32247  0.9816000000000001  1.0000
  O   O18       1.0  0.53278  0.29073  0.04268000000000001  1.0000
  O   O19       1.0  0.16263000000000005  0.17728  0.95072  1.0000
  O   O20       1.0  0.23264  0.16168  0.015360000000000002  1.0000
  O   O21       1.0  0.3339100000000001  0.33833  0.9858500000000002  1.0000
  O   O22       1.0  0.23322000000000007  0.36711000000000005  0.03515  1.0000
  O   O23       1.0  0.45227000000000006  0.15654  0.02448  1.0000
  O   O24       1.0  0.42809  0.12724  0.09349  1.0000
  O   O25       1.0  0.47213  0.24345  0.6817500000000002  1.0000
  O   O26       1.0  0.6197000000000003  0.28062  0.7007300000000002  1.0000
  O   O27       1.0  0.7629  0.1835  0.3314300000000001  1.0000
  O   O28       1.0  0.7712900000000001  0.27149  0.32022  1.0000
  O   O29       1.0  0.8197100000000003  0.29616  0.51149  1.0000
  O   O30       1.0  0.8573800000000003  0.29672  0.58344  1.0000
  O   O31       1.0  0.47662  0.20457  0.48138  1.0000
  O   O32       1.0  0.37653  0.24351  0.52529  1.0000
  O   O33       1.0  0.6526600000000002  0.38555000000000006  0.43969  1.0000
  O   O34       1.0  0.5784700000000003  0.34929000000000004  0.49888  1.0000
  O   O35       1.0  0.67671  0.11232  0.4795200000000001  1.0000
  O   O36       1.0  0.68571  0.16622000000000003  0.53808  1.0000
  O   O37       1.0  0.06642  0.36243  0.23409  1.0000
  O   O38       1.0  0.95348  0.30409  0.26181  1.0000
  O   O39       1.0  0.43412000000000023  0.6326  0.22067000000000006  1.0000
  O   O40       1.0  0.5519400000000002  0.69169  0.24302  1.0000
  O   O41       1.0  0.67074  0.38097  0.32515  1.0000
  O   O42       1.0  0.64757  0.46581  0.3158  1.0000
  O   O43       1.0  0.91878  0.50249  0.14554  1.0000
  O   O44       1.0  0.84224  0.55858  0.18631000000000006  1.0000
  O   O45       1.0  0.62407  0.41791999999999996  0.21107  1.0000
  O   O46       1.0  0.5234900000000001  0.46032000000000006  0.17006  1.0000
  O   O47       1.0  0.86237  0.53634  0.30245  1.0000
  O   O48       1.0  0.8521500000000002  0.62282  0.29535  1.0000
  O   O49       1.0  0.12497000000000005  0.28036  0.32064  1.0000
  O   O50       1.0  0.98065  0.23773  0.33664  1.0000
  O   O51       1.0  0.25734  0.272  0.70293  1.0000
  O   O52       1.0  0.26205  0.18508999999999998  0.6891  1.0000
  O   O53       1.0  0.8953200000000001  0.17753  0.4816  1.0000
  O   O54       1.0  0.9672100000000002  0.20927  0.54268  1.0000
  O   O55       1.0  0.33737  0.32272  0.45073  1.0000
  O   O56       1.0  0.2673600000000001  0.33832  0.51536  1.0000
  O   O57       1.0  0.16609000000000002  0.16167  0.48585  1.0000
  O   O58       1.0  0.26678000000000013  0.13289  0.53515  1.0000
  O   O59       1.0  0.04772  0.34346  0.52448  1.0000
  O   O60       1.0  0.07191  0.37276  0.59349  1.0000
  O   O61       1.0  0.02787  0.25655  0.18175  1.0000
  O   O62       1.0  0.88029  0.21938  0.20073  1.0000
  O   O63       1.0  0.7370900000000001  0.3165  0.83143  1.0000
  O   O64       1.0  0.72871  0.2285  0.8202200000000002  1.0000
  O   O65       1.0  0.68029  0.20384000000000002  0.011490000000000002  1.0000
  O   O66       1.0  0.6426200000000002  0.20328  0.08344000000000003  1.0000
  O   O67       1.0  0.023379999999999995  0.29543  0.98138  1.0000
  O   O68       1.0  0.12347  0.25649  0.02529  1.0000
  O   O69       1.0  0.84734  0.11445  0.93969  1.0000
  O   O70       1.0  0.9215300000000002  0.15071  0.99888  1.0000
  O   O71       1.0  0.8232900000000002  0.38768  0.97952  1.0000
  O   O72       1.0  0.8142900000000002  0.33378  0.03808000000000002  1.0000
  O   O73       1.0  0.56642  0.8624300000000001  0.2659  1.0000
  O   O74       1.0  0.4534800000000001  0.80409  0.23819  1.0000
  O   O75       1.0  0.9341200000000002  0.1326  0.27933000000000013  1.0000
  O   O76       1.0  0.051940000000000014  0.19169  0.25698  1.0000
  O   O77       1.0  0.17074000000000003  0.88097  0.17485  1.0000
  O   O78       1.0  0.14757  0.9658100000000001  0.1842  1.0000
  O   O79       1.0  0.41878  0.00249  0.3544600000000001  1.0000
  O   O80       1.0  0.3422400000000001  0.05858  0.31369  1.0000
  O   O81       1.0  0.12407  0.91792  0.28893  1.0000
  O   O82       1.0  0.023500000000000007  0.96032  0.32994  1.0000
  O   O83       1.0  0.36237000000000014  0.03634  0.19754  1.0000
  O   O84       1.0  0.35215  0.12282000000000001  0.20464  1.0000
  O   O85       1.0  0.62497  0.78035  0.17936000000000005  1.0000
  O   O86       1.0  0.4806599999999999  0.73773  0.16335  1.0000
  O   O87       1.0  0.75733  0.772  0.7970600000000002  1.0000
  O   O88       1.0  0.76205  0.68509  0.81089  1.0000
  O   O89       1.0  0.3953200000000001  0.67753  0.01839  1.0000
  O   O90       1.0  0.46722  0.7092699999999998  0.9573200000000002  1.0000
  O   O91       1.0  0.8373600000000002  0.8227200000000001  0.04927  1.0000
  O   O92       1.0  0.76735  0.8383200000000001  0.98464  1.0000
  O   O93       1.0  0.6660900000000002  0.6616700000000001  0.014150000000000001  1.0000
  O   O94       1.0  0.76678  0.63289  0.96485  1.0000
  O   O95       1.0  0.54772  0.84346  0.9755200000000002  1.0000
  O   O96       1.0  0.5719  0.8727600000000001  0.90651  1.0000
  O   O97       1.0  0.5278700000000002  0.75655  0.3182400000000001  1.0000
  O   O98       1.0  0.38029  0.71938  0.29927  1.0000
  O   O99       1.0  0.23709000000000002  0.8165  0.6685700000000002  1.0000
  O   O100      1.0  0.22871000000000005  0.7285  0.67978  1.0000
  O   O101      1.0  0.18029  0.7038400000000001  0.48851  1.0000
  O   O102      1.0  0.14262  0.70328  0.4165600000000001  1.0000
  O   O103      1.0  0.5233800000000001  0.79543  0.51862  1.0000
  O   O104      1.0  0.62347  0.75649  0.47471000000000013  1.0000
  O   O105      1.0  0.34734  0.61445  0.5603  1.0000
  O   O106      1.0  0.42153  0.65071  0.50112  1.0000
  O   O107      1.0  0.32329  0.88768  0.52048  1.0000
  O   O108      1.0  0.31429  0.8337800000000001  0.46192  1.0000
  O   O109      1.0  0.93358  0.63757  0.7659  1.0000
  O   O110      1.0  0.04652  0.69591  0.7381800000000002  1.0000
  O   O111      1.0  0.56588  0.3674  0.77933  1.0000
  O   O112      1.0  0.44806  0.30831  0.75698  1.0000
  O   O113      1.0  0.32925  0.61903  0.67485  1.0000
  O   O114      1.0  0.35243000000000013  0.53419  0.6842  1.0000
  O   O115      1.0  0.08121000000000003  0.49751  0.8544600000000002  1.0000
  O   O116      1.0  0.15776000000000007  0.44142  0.81369  1.0000
  O   O117      1.0  0.37593000000000004  0.58208  0.78893  1.0000
  O   O118      1.0  0.4765  0.53968  0.8299400000000001  1.0000
  O   O119      1.0  0.13762  0.46366  0.69754  1.0000
  O   O120      1.0  0.14785  0.37718  0.7046400000000002  1.0000
  O   O121      1.0  0.8750200000000001  0.71964  0.67936  1.0000
  O   O122      1.0  0.01934000000000002  0.76227  0.66335  1.0000
  O   O123      1.0  0.7426600000000002  0.728  0.29706  1.0000
  O   O124      1.0  0.7379400000000002  0.8149100000000001  0.3109000000000001  1.0000
  O   O125      1.0  0.10468000000000002  0.82247  0.51839  1.0000
  O   O126      1.0  0.03278000000000002  0.7907300000000002  0.45732  1.0000
  O   O127      1.0  0.66263  0.67728  0.54927  1.0000
  O   O128      1.0  0.7326400000000002  0.66168  0.48464  1.0000
  O   O129      1.0  0.83391  0.83833  0.51415  1.0000
  O   O130      1.0  0.7332200000000001  0.86711  0.46485  1.0000
  O   O131      1.0  0.9522700000000002  0.65654  0.47552  1.0000
  O   O132      1.0  0.9280900000000002  0.62724  0.40651  1.0000
  O   O133      1.0  0.9721300000000002  0.74345  0.81824  1.0000
  O   O134      1.0  0.11971000000000002  0.78062  0.79927  1.0000
  O   O135      1.0  0.26291000000000003  0.6835  0.16857000000000005  1.0000
  O   O136      1.0  0.27129  0.7714900000000001  0.17978  1.0000
  O   O137      1.0  0.3197100000000001  0.79615  0.98851  1.0000
  O   O138      1.0  0.35738  0.79672  0.9165600000000003  1.0000
  O   O139      1.0  0.9766100000000002  0.70457  0.01862  1.0000
  O   O140      1.0  0.8765200000000002  0.7435  0.9747100000000002  1.0000
  O   O141      1.0  0.15266  0.88555  0.06031  1.0000
  O   O142      1.0  0.07847  0.84929  0.00112  1.0000
  O   O143      1.0  0.17671  0.61232  0.02048000000000001  1.0000
  O   O144      1.0  0.18571000000000001  0.66622  0.9619200000000002  1.0000
