data_image0
_chemical_formula_structural       Sr2H28C16S4O8
_chemical_formula_sum              "Sr2 H28 C16 S4 O8"
_cell_length_a       11.0711
_cell_length_b       11.0711
_cell_length_c       11.6224
_cell_angle_alpha    117.99799999999999
_cell_angle_beta     117.99799999999999
_cell_angle_gamma    90.8234

_space_group_name_H-M_alt    "P 1"
_space_group_IT_number       1

loop_
  _space_group_symop_operation_xyz
  'x, y, z'

loop_
  _atom_site_type_symbol
  _atom_site_label
  _atom_site_symmetry_multiplicity
  _atom_site_fract_x
  _atom_site_fract_y
  _atom_site_fract_z
  _atom_site_occupancy
  Sr  Sr1       1.0  0.7335400000000001  0.26646  0.0  1.0000
  Sr  Sr2       1.0  0.98354  0.016459999999999985  0.5  1.0000
  H   H1        1.0  0.7487  0.8604999999999999  0.6064  1.0000
  H   H2        1.0  0.8069  0.8665  0.8748  1.0000
  H   H3        1.0  0.9255000000000001  0.8782999999999999  0.8356  1.0000
  H   H4        1.0  0.7952000000000002  0.7336  0.7264  1.0000
  H   H5        1.0  0.5412  0.7494  0.574  1.0000
  H   H6        1.0  0.5308  0.8942  0.5758  1.0000
  H   H7        1.0  0.5699  0.8923  0.726  1.0000
  H   H8        1.0  0.1395  0.2513  0.3936  1.0000
  H   H9        1.0  0.1335  0.1931  0.1252  1.0000
  H   H10       1.0  0.1217  0.0745  0.1644  1.0000
  H   H11       1.0  0.2664  0.2048  0.2736  1.0000
  H   H12       1.0  0.2506  0.4588  0.426  1.0000
  H   H13       1.0  0.10580000000000002  0.4692  0.4242  1.0000
  H   H14       1.0  0.1077  0.4301  0.274  1.0000
  H   H15       1.0  0.9959  0.6077000000000001  0.1064  1.0000
  H   H16       1.0  0.2583  0.8179  0.3748  1.0000
  H   H17       1.0  0.2073  0.6601  0.3356  1.0000
  H   H18       1.0  0.2428  0.6812  0.2264  1.0000
  H   H19       1.0  0.07459999999999999  0.7828  0.074  1.0000
  H   H20       1.0  0.9316  0.7949999999999999  0.0758  1.0000
  H   H21       1.0  0.0837  0.9061  0.226  1.0000
  H   H22       1.0  0.3923  0.004099999999999978  0.8936  1.0000
  H   H23       1.0  0.18210000000000004  0.7416999999999999  0.6252  1.0000
  H   H24       1.0  0.3399  0.7927  0.6644  1.0000
  H   H25       1.0  0.3188  0.7572  0.7736  1.0000
  H   H26       1.0  0.21720000000000012  0.9254  0.926  1.0000
  H   H27       1.0  0.20500000000000007  0.06840000000000004  0.9242  1.0000
  H   H28       1.0  0.0939  0.9162999999999999  0.774  1.0000
  C   C1        1.0  0.879  0.117  0.2178  1.0000
  C   C2        1.0  0.737  0.8944  0.6958  1.0000
  C   C3        1.0  0.8235000000000001  0.8385  0.7912  1.0000
  C   C4        1.0  0.5814  0.854  0.638  1.0000
  C   C5        1.0  0.8830000000000001  0.12100000000000005  0.7822  1.0000
  C   C6        1.0  0.1056  0.263  0.3042  1.0000
  C   C7        1.0  0.1615  0.17650000000000002  0.2088  1.0000
  C   C8        1.0  0.146  0.41859999999999997  0.362  1.0000
  C   C9        1.0  0.3508  0.08880000000000002  0.7178  1.0000
  C   C10       1.0  0.0514  0.7088  0.1958  1.0000
  C   C11       1.0  0.2027  0.7177  0.2912  1.0000
  C   C12       1.0  0.03400000000000001  0.8066  0.138  1.0000
  C   C13       1.0  0.9112  0.6492  0.2822  1.0000
  C   C14       1.0  0.2912  0.9486  0.8042  1.0000
  C   C15       1.0  0.2823  0.7972999999999999  0.7088  1.0000
  C   C16       1.0  0.1934  0.966  0.862  1.0000
  S   S1        1.0  0.69835  0.05390999999999999  0.08846  1.0000
  S   S2        1.0  0.94609  0.30165  0.91154  1.0000
  S   S3        1.0  0.28455  0.14011  0.58846  1.0000
  S   S4        1.0  0.8598900000000002  0.71545  0.41154  1.0000
  O   O1        1.0  0.9477  0.0885  0.3142  1.0000
  O   O2        1.0  0.9472  0.2114  0.2066  1.0000
  O   O3        1.0  0.9115  0.052300000000000034  0.6858  1.0000
  O   O4        1.0  0.7886000000000001  0.05280000000000003  0.7934  1.0000
  O   O5        1.0  0.47569999999999996  0.11650000000000006  0.8142  1.0000
  O   O6        1.0  0.24519999999999995  0.009399999999999974  0.7066  1.0000
  O   O7        1.0  0.8835000000000001  0.5242999999999999  0.1858  1.0000
  O   O8        1.0  0.9906  0.7548  0.2934  1.0000
