data_image0
_chemical_formula_structural       Ho2H12C24O12
_chemical_formula_sum              "Ho2 H12 C24 O12"
_cell_length_a       9.8113
_cell_length_b       10.4188
_cell_length_c       11.0768
_cell_angle_alpha    76.72099999999999
_cell_angle_beta     76.242
_cell_angle_gamma    65.932

_space_group_name_H-M_alt    "P 1"
_space_group_IT_number       1

loop_
  _space_group_symop_operation_xyz
  'x, y, z'

loop_
  _atom_site_type_symbol
  _atom_site_label
  _atom_site_symmetry_multiplicity
  _atom_site_fract_x
  _atom_site_fract_y
  _atom_site_fract_z
  _atom_site_occupancy
  Ho  Ho1       1.0  0.94522  0.22825  0.32292  1.0000
  Ho  Ho2       1.0  0.05477999999999997  0.7717500000000002  0.67708  1.0000
  H   H1        1.0  0.4553  0.185  0.10490000000000001  1.0000
  H   H2        1.0  0.30749999999999994  0.9222000000000001  0.0068  1.0000
  H   H3        1.0  0.43580000000000013  0.41559999999999997  0.209  1.0000
  H   H4        1.0  0.7408000000000001  0.5025  0.9234  1.0000
  H   H5        1.0  0.39949999999999997  0.8824000000000001  0.6796  1.0000
  H   H6        1.0  0.34959999999999997  0.14180000000000004  0.3497  1.0000
  H   H7        1.0  0.5446999999999997  0.815  0.8951  1.0000
  H   H8        1.0  0.6925  0.07780000000000001  0.9932  1.0000
  H   H9        1.0  0.5641999999999999  0.5844  0.7910000000000001  1.0000
  H   H10       1.0  0.2592  0.49750000000000005  0.0766  1.0000
  H   H11       1.0  0.6004999999999999  0.11760000000000001  0.3204000000000001  1.0000
  H   H12       1.0  0.6503999999999999  0.8582  0.6503  1.0000
  C   C1        1.0  0.3565  0.0659  0.0672  1.0000
  C   C2        1.0  0.473  0.11080000000000001  0.0627  1.0000
  C   C3        1.0  0.38450000000000006  0.9537  0.0041  1.0000
  C   C4        1.0  0.20519999999999997  0.1323  0.1464  1.0000
  C   C5        1.0  0.6079  0.4483  0.0793  1.0000
  C   C6        1.0  0.4614999999999999  0.44910000000000005  0.1249  1.0000
  C   C7        1.0  0.6445999999999995  0.501  0.9541  1.0000
  C   C8        1.0  0.7242  0.3895  0.1654  1.0000
  C   C9        1.0  0.3507  0.013300000000000003  0.5168  1.0000
  C   C10       1.0  0.4402000000000001  0.9293000000000001  0.6074  1.0000
  C   C11       1.0  0.4099  0.08479999999999999  0.40970000000000006  1.0000
  C   C12       1.0  0.1903  0.023  0.5328  1.0000
  C   C13       1.0  0.6435  0.9341  0.9328  1.0000
  C   C14       1.0  0.5270000000000001  0.8891999999999998  0.9373000000000001  1.0000
  C   C15       1.0  0.6155  0.046300000000000015  0.9959000000000001  1.0000
  C   C16       1.0  0.7947999999999997  0.8677  0.8536000000000001  1.0000
  C   C17       1.0  0.3920999999999999  0.5517  0.9207000000000002  1.0000
  C   C18       1.0  0.5384999999999998  0.5509  0.8751  1.0000
  C   C19       1.0  0.3554  0.49900000000000005  0.0459  1.0000
  C   C20       1.0  0.27579999999999993  0.6105  0.8346000000000001  1.0000
  C   C21       1.0  0.6493  0.9867  0.4832  1.0000
  C   C22       1.0  0.5598  0.07069999999999999  0.39260000000000006  1.0000
  C   C23       1.0  0.5900999999999996  0.9152000000000001  0.5903  1.0000
  C   C24       1.0  0.8097  0.977  0.4672  1.0000
  O   O1        1.0  0.11570000000000001  0.0657  0.17882  1.0000
  O   O2        1.0  0.17280000000000006  0.2481  0.18212  1.0000
  O   O3        1.0  0.6862  0.35050000000000003  0.27942  1.0000
  O   O4        1.0  0.8591  0.3758  0.12267  1.0000
  O   O5        1.0  0.14189999999999994  0.952  0.6277700000000002  1.0000
  O   O6        1.0  0.11550000000000003  0.1026  0.44864  1.0000
  O   O7        1.0  0.8843000000000001  0.9343  0.8211800000000001  1.0000
  O   O8        1.0  0.8271999999999998  0.7519  0.8178800000000002  1.0000
  O   O9        1.0  0.31379999999999997  0.6495  0.72058  1.0000
  O   O10       1.0  0.1409  0.6242  0.87733  1.0000
  O   O11       1.0  0.8581000000000001  0.047999999999999994  0.37223  1.0000
  O   O12       1.0  0.8845  0.8974  0.55136  1.0000
