data_image0
_chemical_formula_structural       Cu12H24C72O48
_chemical_formula_sum              "Cu12 H24 C72 O48"
_cell_length_a       18.69265843
_cell_length_b       18.69300732
_cell_length_c       18.69271049
_cell_angle_alpha    59.99963900000001
_cell_angle_beta     60.00059756999999
_cell_angle_gamma    59.99915134

_space_group_name_H-M_alt    "P 1"
_space_group_IT_number       1

loop_
  _space_group_symop_operation_xyz
  'x, y, z'

loop_
  _atom_site_type_symbol
  _atom_site_label
  _atom_site_symmetry_multiplicity
  _atom_site_fract_x
  _atom_site_fract_y
  _atom_site_fract_z
  _atom_site_occupancy
  Cu  Cu1       1.0  0.06565085000000008  0.49999804999999997  0.93435175  1.0000
  Cu  Cu2       1.0  0.5000024600000001  0.06563962  0.4999976  1.0000
  Cu  Cu3       1.0  0.93439078  0.5000008  0.06560924  1.0000
  Cu  Cu4       1.0  0.49999913000000035  0.9343405899999996  0.50000197  1.0000
  Cu  Cu5       1.0  0.0656538300000002  0.9343488399999998  0.4999977200000001  1.0000
  Cu  Cu6       1.0  0.49999992  0.5000007399999998  0.9343401900000001  1.0000
  Cu  Cu7       1.0  0.9343825000000001  0.06561639  0.50000134  1.0000
  Cu  Cu8       1.0  0.50000167  0.49999907  0.065638  1.0000
  Cu  Cu9       1.0  0.06565992  0.49999872999999995  0.49999985  1.0000
  Cu  Cu10      1.0  0.49999906999999993  0.93435971  0.06563950000000003  1.0000
  Cu  Cu11      1.0  0.93435958  0.5  0.49999919  1.0000
  Cu  Cu12      1.0  0.50000223  0.06566143999999993  0.9343382800000002  1.0000
  H   H1        1.0  0.7673365799999998  0.46748550999999994  0.9978294400000002  1.0000
  H   H2        1.0  0.46748576999999997  0.76734726  0.76734565  1.0000
  H   H3        1.0  0.9978359  0.76733821  0.76734026  1.0000
  H   H4        1.0  0.7673346899999998  0.99782972  0.4674853800000001  1.0000
  H   H5        1.0  0.7673359600000002  0.99782705  0.7673518900000001  1.0000
  H   H6        1.0  0.4674857  0.76734416  0.99782622  1.0000
  H   H7        1.0  0.9978322900000001  0.76734146  0.46748549  1.0000
  H   H8        1.0  0.7673429200000004  0.46748549999999994  0.76734719  1.0000
  H   H9        1.0  0.767342  0.76734856  0.4674855  1.0000
  H   H10       1.0  0.46748557  0.99782576  0.76734389  1.0000
  H   H11       1.0  0.9978293300000001  0.4674854399999999  0.7673441100000002  1.0000
  H   H12       1.0  0.7673363800000002  0.7673497900000001  0.99782856  1.0000
  H   H13       1.0  0.53251455  0.23265601  0.00217483  1.0000
  H   H14       1.0  0.23265523000000016  0.5325146099999998  0.23265487  1.0000
  H   H15       1.0  0.23265697999999996  0.002170799999999985  0.23265780000000003  1.0000
  H   H16       1.0  0.0021664800000000184  0.23266522  0.53251474  1.0000
  H   H17       1.0  0.002169760000000055  0.2326586399999999  0.23265675000000005  1.0000
  H   H18       1.0  0.23265570999999996  0.53251436  0.00217397  1.0000
  H   H19       1.0  0.23265859000000003  0.0021723999999999854  0.53251435  1.0000
  H   H20       1.0  0.5325145  0.23265439  0.23265574000000006  1.0000
  H   H21       1.0  0.23265605999999997  0.23265393  0.53251461  1.0000
  H   H22       1.0  0.0021678900000000507  0.5325146799999999  0.23266366000000005  1.0000
  H   H23       1.0  0.5325146100000001  0.0021761399999999805  0.23265625000000006  1.0000
  H   H24       1.0  0.23265443999999996  0.23265667  0.00217441  1.0000
  C   C1        1.0  0.8013819200000001  0.46609793000000005  0.93110872  1.0000
  C   C2        1.0  0.4660982100000002  0.8014018499999997  0.8014025400000002  1.0000
  C   C3        1.0  0.93110301  0.80140007  0.8013986400000003  1.0000
  C   C4        1.0  0.8013848300000002  0.93110703  0.46609779  1.0000
  C   C5        1.0  0.80138089  0.9311038799999999  0.80141727  1.0000
  C   C6        1.0  0.4660984200000001  0.8013994699999999  0.9311019900000003  1.0000
  C   C7        1.0  0.93110181  0.80139636  0.4660982600000001  1.0000
  C   C8        1.0  0.80140096  0.46609815  0.80140279  1.0000
  C   C9        1.0  0.8014008500000004  0.8014033599999998  0.46609799  1.0000
  C   C10       1.0  0.46609858000000004  0.9310988799999999  0.8014035  1.0000
  C   C11       1.0  0.93110057  0.46609811999999984  0.8013970700000003  1.0000
  C   C12       1.0  0.8013779200000001  0.8014160700000001  0.9311078  1.0000
  C   C13       1.0  0.5339018400000001  0.19859915  0.06890091  1.0000
  C   C14       1.0  0.1985915  0.53390185  0.19860514000000007  1.0000
  C   C15       1.0  0.19859631  0.06890014999999998  0.19860153  1.0000
  C   C16       1.0  0.06889132999999995  0.19861869999999995  0.5339014100000001  1.0000
  C   C17       1.0  0.06888713999999999  0.19860292  0.19860811  1.0000
  C   C18       1.0  0.19859982  0.53390218  0.06890005  1.0000
  C   C19       1.0  0.19860037000000005  0.06889998  0.53390246  1.0000
  C   C20       1.0  0.5339022  0.19859770999999998  0.19859911  1.0000
  C   C21       1.0  0.19859229  0.19860329  0.53390216  1.0000
  C   C22       1.0  0.06889134999999998  0.53390161  0.19862166000000003  1.0000
  C   C23       1.0  0.5339016000000001  0.06889948999999997  0.19860294000000006  1.0000
  C   C24       1.0  0.19859730000000003  0.19859757  0.06890313000000003  1.0000
  C   C25       1.0  0.8876854800000001  0.46641669999999996  0.8877081800000002  1.0000
  C   C26       1.0  0.93119664  0.4741791799999999  0.9311405500000002  1.0000
  C   C27       1.0  0.46641447000000014  0.88771427  0.75816083  1.0000
  C   C28       1.0  0.4741839400000001  0.93116975  0.6634571700000003  1.0000
  C   C29       1.0  0.8876833  0.75819723  0.8877026900000002  1.0000
  C   C30       1.0  0.93120201  0.6634804399999998  0.93113861  1.0000
  C   C31       1.0  0.7581523200000002  0.8877171200000001  0.46641465  1.0000
  C   C32       1.0  0.6634536200000002  0.93117016  0.47418357  1.0000
  C   C33       1.0  0.8876850500000002  0.8877059  0.75819185  1.0000
  C   C34       1.0  0.9311901999999999  0.93115215  0.6634780600000002  1.0000
  C   C35       1.0  0.46641419999999995  0.7581643100000001  0.88771267  1.0000
  C   C36       1.0  0.4741843799999999  0.6634540899999998  0.9311751100000002  1.0000
  C   C37       1.0  0.8876904199999999  0.88770887  0.46641681  1.0000
  C   C38       1.0  0.9311857800000001  0.9311549599999996  0.47417998  1.0000
  C   C39       1.0  0.7581581400000001  0.46641403  0.88771289  1.0000
  C   C40       1.0  0.6634511000000002  0.4741839899999999  0.9311751200000002  1.0000
  C   C41       1.0  0.88771405  0.75816  0.46641522  1.0000
  C   C42       1.0  0.9311884900000003  0.66345755  0.47418391  1.0000
  C   C43       1.0  0.46641434999999976  0.88770949  0.88771554  1.0000
  C   C44       1.0  0.47418440999999995  0.93118266  0.93118022  1.0000
  C   C45       1.0  0.8877118400000004  0.46641524000000006  0.75816062  1.0000
  C   C46       1.0  0.9311870399999999  0.47418362999999986  0.6634583300000002  1.0000
  C   C47       1.0  0.7581483399999999  0.8877188  0.8877179500000002  1.0000
  C   C48       1.0  0.66344695  0.9311855299999999  0.9311836300000002  1.0000
  C   C49       1.0  0.53358613  0.11228862  0.11228917000000002  1.0000
  C   C50       1.0  0.5258158299999999  0.06882023999999999  0.06881763000000003  1.0000
  C   C51       1.0  0.11228255999999999  0.53358451  0.24185103  1.0000
  C   C52       1.0  0.06882761999999996  0.52581601  0.3365438  1.0000
  C   C53       1.0  0.24183246000000003  0.11228956000000001  0.11229278  1.0000
  C   C54       1.0  0.33655062999999996  0.06881804  0.06881533000000002  1.0000
  C   C55       1.0  0.11228064999999998  0.24185084  0.53358433  1.0000
  C   C56       1.0  0.06882635999999989  0.33654407  0.5258159700000002  1.0000
  C   C57       1.0  0.11228879000000001  0.11230957  0.24181925  1.0000
  C   C58       1.0  0.06884258  0.068813  0.33652484  1.0000
  C   C59       1.0  0.2418303599999998  0.53358644  0.11229198000000003  1.0000
  C   C60       1.0  0.336547  0.52581622  0.06881108  1.0000
  C   C61       1.0  0.11228822999999999  0.11231299999999998  0.53358274  1.0000
  C   C62       1.0  0.06884288000000006  0.06881686000000001  0.52582022  1.0000
  C   C63       1.0  0.5335862700000003  0.24183607  0.11228951000000002  1.0000
  C   C64       1.0  0.5258160300000002  0.33654627  0.0688112  1.0000
  C   C65       1.0  0.24183706000000008  0.11228843999999995  0.5335861900000001  1.0000
  C   C66       1.0  0.3365451099999999  0.06880749999999995  0.5258167000000001  1.0000
  C   C67       1.0  0.1122913  0.5335821900000001  0.11231592  1.0000
  C   C68       1.0  0.06885914000000003  0.52582095  0.06880414  1.0000
  C   C69       1.0  0.53358589  0.11228974  0.24184154000000005  1.0000
  C   C70       1.0  0.5258164  0.06880861999999999  0.33654328  1.0000
  C   C71       1.0  0.11229099999999997  0.24181284  0.11231433  1.0000
  C   C72       1.0  0.06885763000000002  0.33651966999999994  0.06880258  1.0000
  O   O1        1.0  0.00845413000000005  0.4784213399999999  0.88634438  1.0000
  O   O2        1.0  0.4784404100000001  0.008472739999999979  0.6267217  1.0000
  O   O3        1.0  0.88633561  0.6268046  0.008442750000000004  1.0000
  O   O4        1.0  0.6267340800000001  0.8863663799999999  0.4784381300000001  1.0000
  O   O5        1.0  0.008461039999999897  0.88633549  0.6267808100000002  1.0000
  O   O6        1.0  0.47843659999999993  0.62672917  0.88637479  1.0000
  O   O7        1.0  0.88634929  0.008449940000000012  0.47842295  1.0000
  O   O8        1.0  0.6267314600000002  0.47843840999999987  0.008464010000000003  1.0000
  O   O9        1.0  0.008460879999999973  0.62673069  0.47843774  1.0000
  O   O10       1.0  0.47843881  0.88636926  0.00846741  1.0000
  O   O11       1.0  0.8863688900000001  0.47843806999999994  0.62672635  1.0000
  O   O12       1.0  0.6267388200000001  0.008463889999999981  0.88636328  1.0000
  O   O13       1.0  0.5215611300000002  0.99153373  0.11363122  1.0000
  O   O14       1.0  0.9915307600000004  0.5215604899999999  0.3732755600000001  1.0000
  O   O15       1.0  0.3732584800000001  0.11363905999999999  0.99153875  1.0000
  O   O16       1.0  0.11362674000000005  0.3732671799999999  0.5215638  1.0000
  O   O17       1.0  0.11366304000000016  0.9915419499999998  0.37321778  1.0000
  O   O18       1.0  0.37326839999999994  0.52156192  0.11363205  1.0000
  O   O19       1.0  0.9915461000000001  0.11364912999999999  0.52157972  1.0000
  O   O20       1.0  0.5215625100000002  0.37327312  0.9915387  1.0000
  O   O21       1.0  0.37326455000000025  0.9915366399999999  0.52156374  1.0000
  O   O22       1.0  0.11365456000000008  0.5215811599999998  0.9915465600000002  1.0000
  O   O23       1.0  0.52155932  0.11363429  0.37327744  1.0000
  O   O24       1.0  0.9915511000000002  0.37320289  0.11366274  1.0000
  O   O25       1.0  0.9915469000000001  0.5215837  0.1136601  1.0000
  O   O26       1.0  0.52156253  0.9915376300000001  0.37326961  1.0000
  O   O27       1.0  0.11365819999999996  0.37321179  0.99154909  1.0000
  O   O28       1.0  0.37327149  0.11363919999999997  0.5215595  1.0000
  O   O29       1.0  0.9915519200000003  0.11365226999999999  0.37321584  1.0000
  O   O30       1.0  0.52156148  0.37327521  0.11362725  1.0000
  O   O31       1.0  0.11365937000000001  0.9915426999999998  0.52157675  1.0000
  O   O32       1.0  0.37326502  0.52156394  0.99153943  1.0000
  O   O33       1.0  0.99152915  0.37327791  0.52156043  1.0000
  O   O34       1.0  0.5215623899999999  0.11363163999999991  0.99153538  1.0000
  O   O35       1.0  0.11362675  0.52156349  0.3732684  1.0000
  O   O36       1.0  0.37326436999999996  0.99153431  0.11363870000000001  1.0000
  O   O37       1.0  0.4784363099999999  0.00846492999999995  0.8863691300000002  1.0000
  O   O38       1.0  0.008459830000000031  0.47843738999999985  0.62673255  1.0000
  O   O39       1.0  0.6267343100000001  0.88636141  0.00846575  1.0000
  O   O40       1.0  0.88636862  0.62672762  0.4784381900000001  1.0000
  O   O41       1.0  0.88634754  0.008442380000000013  0.62679021  1.0000
  O   O42       1.0  0.6267324500000001  0.4784358599999998  0.88637106  1.0000
  O   O43       1.0  0.008460700000000035  0.88634082  0.47842324  1.0000
  O   O44       1.0  0.47843990000000003  0.62672298  0.0084651  1.0000
  O   O45       1.0  0.6267271899999999  0.008473329999999994  0.47843904  1.0000
  O   O46       1.0  0.8863382500000001  0.4784205  0.008449850000000004  1.0000
  O   O47       1.0  0.47843850000000027  0.88637004  0.62673095  1.0000
  O   O48       1.0  0.008454790000000092  0.6267860699999999  0.88633924  1.0000
