data_image0
_chemical_formula_structural       Cu12H96C144N24O48
_chemical_formula_sum              "Cu12 H96 C144 N24 O48"
_cell_length_a       14.88918
_cell_length_b       24.78355
_cell_length_c       11.21945
_cell_angle_alpha    90.0
_cell_angle_beta     97.53517999999998
_cell_angle_gamma    90.0

_space_group_name_H-M_alt    "P 1"
_space_group_IT_number       1

loop_
  _space_group_symop_operation_xyz
  'x, y, z'

loop_
  _atom_site_type_symbol
  _atom_site_label
  _atom_site_symmetry_multiplicity
  _atom_site_fract_x
  _atom_site_fract_y
  _atom_site_fract_z
  _atom_site_occupancy
  Cu  Cu1       1.0  0.01977999999999999  0.11364999999999997  0.78336  1.0000
  Cu  Cu2       1.0  0.68644  0.88635  0.28336  1.0000
  Cu  Cu3       1.0  0.18599999999999994  0.38652  0.28354  1.0000
  Cu  Cu4       1.0  0.18599999999999994  0.61348  0.78354  1.0000
  Cu  Cu5       1.0  0.35311  0.11364999999999997  0.78336  1.0000
  Cu  Cu6       1.0  0.01978  0.88635  0.28336  1.0000
  Cu  Cu7       1.0  0.51934  0.38652  0.28354  1.0000
  Cu  Cu8       1.0  0.51933  0.61348  0.78354  1.0000
  Cu  Cu9       1.0  0.68644  0.11364999999999997  0.78336  1.0000
  Cu  Cu10      1.0  0.35311  0.88635  0.28336  1.0000
  Cu  Cu11      1.0  0.85267  0.38652  0.28354  1.0000
  Cu  Cu12      1.0  0.85267  0.61348  0.78354  1.0000
  H   H1        1.0  0.98154  0.16241  0.011450000000000004  1.0000
  H   H2        1.0  0.032510000000000004  0.24391999999999997  0.13706000000000002  1.0000
  H   H3        1.0  0.22036  0.27819999999999995  0.8865700000000001  1.0000
  H   H4        1.0  0.16466  0.19416999999999998  0.773  1.0000
  H   H5        1.0  0.8543899999999998  0.10426999999999999  0.6066400000000001  1.0000
  H   H6        1.0  0.7820199999999999  0.03637  0.46097  1.0000
  H   H7        1.0  0.005970000000000001  0.92974  0.57256  1.0000
  H   H8        1.0  0.06653  0.00059  0.7223200000000002  1.0000
  H   H9        1.0  0.98154  0.83759  0.51145  1.0000
  H   H10       1.0  0.03251000000000001  0.75608  0.6370600000000001  1.0000
  H   H11       1.0  0.22036  0.72179  0.38656  1.0000
  H   H12       1.0  0.16466  0.8058299999999998  0.273  1.0000
  H   H13       1.0  0.8543899999999998  0.8957299999999998  0.10664  1.0000
  H   H14       1.0  0.7820199999999999  0.96362  0.9609700000000001  1.0000
  H   H15       1.0  0.00597  0.07026  0.07256  1.0000
  H   H16       1.0  0.06653  0.9994099999999999  0.22232000000000002  1.0000
  H   H17       1.0  0.14818999999999993  0.66254  0.01243  1.0000
  H   H18       1.0  0.19919  0.7444499999999998  0.13709  1.0000
  H   H19       1.0  0.38681000000000004  0.77815  0.8863000000000001  1.0000
  H   H20       1.0  0.33097  0.69406  0.7731500000000002  1.0000
  H   H21       1.0  0.020699999999999993  0.60471  0.60591  1.0000
  H   H22       1.0  0.9477099999999998  0.53659  0.4609000000000001  1.0000
  H   H23       1.0  0.17117  0.42973  0.57242  1.0000
  H   H24       1.0  0.23241  0.50067  0.72158  1.0000
  H   H25       1.0  0.14818999999999993  0.33746  0.51243  1.0000
  H   H26       1.0  0.19917999999999997  0.25554  0.63709  1.0000
  H   H27       1.0  0.38682  0.22183999999999995  0.38630000000000003  1.0000
  H   H28       1.0  0.33097  0.30594  0.27315000000000006  1.0000
  H   H29       1.0  0.020699999999999996  0.3952899999999999  0.10591000000000002  1.0000
  H   H30       1.0  0.9477099999999999  0.46341  0.9609000000000002  1.0000
  H   H31       1.0  0.17117  0.57027  0.07242  1.0000
  H   H32       1.0  0.23241  0.49932  0.22157000000000002  1.0000
  H   H33       1.0  0.31486999999999987  0.16241  0.011440000000000002  1.0000
  H   H34       1.0  0.36584  0.24391999999999997  0.13706000000000002  1.0000
  H   H35       1.0  0.5536899999999999  0.27819999999999995  0.8865700000000001  1.0000
  H   H36       1.0  0.498  0.19416999999999998  0.773  1.0000
  H   H37       1.0  0.18771999999999994  0.10426999999999999  0.60665  1.0000
  H   H38       1.0  0.11536  0.03637  0.46097  1.0000
  H   H39       1.0  0.3393  0.92974  0.57256  1.0000
  H   H40       1.0  0.39986  0.00059  0.7223200000000002  1.0000
  H   H41       1.0  0.31486999999999987  0.83759  0.51145  1.0000
  H   H42       1.0  0.36584  0.75608  0.6370600000000001  1.0000
  H   H43       1.0  0.5536899999999999  0.7217999999999998  0.38656  1.0000
  H   H44       1.0  0.498  0.8058299999999998  0.273  1.0000
  H   H45       1.0  0.18773  0.8957299999999998  0.10664  1.0000
  H   H46       1.0  0.11534999999999998  0.96362  0.9609700000000001  1.0000
  H   H47       1.0  0.3393  0.07026  0.07256  1.0000
  H   H48       1.0  0.39986  0.9994099999999999  0.22232000000000002  1.0000
  H   H49       1.0  0.48152  0.66254  0.01243  1.0000
  H   H50       1.0  0.53252  0.7444499999999998  0.13709  1.0000
  H   H51       1.0  0.7201499999999998  0.77815  0.8863000000000001  1.0000
  H   H52       1.0  0.6642999999999998  0.69406  0.7731500000000002  1.0000
  H   H53       1.0  0.3540299999999999  0.60471  0.60591  1.0000
  H   H54       1.0  0.28104  0.53659  0.4609000000000001  1.0000
  H   H55       1.0  0.5045  0.42973  0.57242  1.0000
  H   H56       1.0  0.56574  0.50067  0.72158  1.0000
  H   H57       1.0  0.48152000000000006  0.33746  0.51243  1.0000
  H   H58       1.0  0.53252  0.25555  0.63709  1.0000
  H   H59       1.0  0.7201499999999998  0.22185  0.38630000000000003  1.0000
  H   H60       1.0  0.6642999999999998  0.30594  0.27315000000000006  1.0000
  H   H61       1.0  0.3540299999999999  0.3952899999999999  0.10591000000000002  1.0000
  H   H62       1.0  0.28104  0.46341  0.96091  1.0000
  H   H63       1.0  0.5045  0.57026  0.07242  1.0000
  H   H64       1.0  0.56574  0.49932  0.22158000000000003  1.0000
  H   H65       1.0  0.6482  0.16241  0.011450000000000004  1.0000
  H   H66       1.0  0.69917  0.24391999999999997  0.13706000000000002  1.0000
  H   H67       1.0  0.8870299999999999  0.27819999999999995  0.8865700000000001  1.0000
  H   H68       1.0  0.8313299999999999  0.19416999999999998  0.7730100000000001  1.0000
  H   H69       1.0  0.52106  0.10426999999999999  0.6066400000000001  1.0000
  H   H70       1.0  0.44869  0.03637  0.46097  1.0000
  H   H71       1.0  0.67263  0.92974  0.57256  1.0000
  H   H72       1.0  0.7331900000000001  0.00059  0.7223200000000002  1.0000
  H   H73       1.0  0.6482  0.83759  0.51145  1.0000
  H   H74       1.0  0.69917  0.75608  0.6370600000000001  1.0000
  H   H75       1.0  0.8870299999999999  0.7217999999999998  0.38657  1.0000
  H   H76       1.0  0.8313299999999999  0.8058299999999998  0.27301  1.0000
  H   H77       1.0  0.52106  0.8957299999999998  0.10664  1.0000
  H   H78       1.0  0.44869  0.96362  0.9609700000000001  1.0000
  H   H79       1.0  0.67263  0.07026  0.07256  1.0000
  H   H80       1.0  0.73319  0.9994099999999999  0.22232000000000002  1.0000
  H   H81       1.0  0.81486  0.66254  0.01243  1.0000
  H   H82       1.0  0.86585  0.7444499999999998  0.13709  1.0000
  H   H83       1.0  0.05348  0.77815  0.8863000000000001  1.0000
  H   H84       1.0  0.99763  0.69406  0.7731500000000002  1.0000
  H   H85       1.0  0.6873599999999997  0.60471  0.60591  1.0000
  H   H86       1.0  0.6143699999999997  0.53659  0.4609100000000001  1.0000
  H   H87       1.0  0.8378399999999998  0.42973  0.57242  1.0000
  H   H88       1.0  0.89908  0.50067  0.7215700000000002  1.0000
  H   H89       1.0  0.81486  0.33746  0.51243  1.0000
  H   H90       1.0  0.86585  0.25555  0.63709  1.0000
  H   H91       1.0  0.05348  0.22183999999999995  0.38630000000000003  1.0000
  H   H92       1.0  0.99763  0.30594  0.27315000000000006  1.0000
  H   H93       1.0  0.6873599999999997  0.3952899999999999  0.10591000000000002  1.0000
  H   H94       1.0  0.6143699999999997  0.46341  0.96091  1.0000
  H   H95       1.0  0.8378399999999998  0.57026  0.07242  1.0000
  H   H96       1.0  0.89908  0.49932  0.22157000000000002  1.0000
  C   C1        1.0  0.03494  0.18895999999999993  0.98883  1.0000
  C   C2        1.0  0.06316  0.23420999999999995  0.057060000000000013  1.0000
  C   C3        1.0  0.13056  0.26738  0.020610000000000003  1.0000
  C   C4        1.0  0.16717  0.25338  0.9160600000000002  1.0000
  C   C5        1.0  0.13618  0.20737  0.8526100000000001  1.0000
  C   C6        1.0  0.16578999999999994  0.31627  0.09280000000000001  1.0000
  C   C7        1.0  0.8858  0.06514  0.59718  1.0000
  C   C8        1.0  0.84602  0.0271  0.5154  1.0000
  C   C9        1.0  0.8886299999999998  0.97729  0.50476  1.0000
  C   C10       1.0  0.9699099999999998  0.9674899999999999  0.5793  1.0000
  C   C11       1.0  0.004759999999999998  0.006809999999999998  0.66089  1.0000
  C   C12       1.0  0.8485899999999997  0.9345399999999998  0.4174300000000001  1.0000
  C   C13       1.0  0.03495  0.81104  0.48883  1.0000
  C   C14       1.0  0.06316  0.76578  0.55706  1.0000
  C   C15       1.0  0.13056  0.7326099999999999  0.52061  1.0000
  C   C16       1.0  0.16717  0.74662  0.41606000000000004  1.0000
  C   C17       1.0  0.13618  0.79263  0.35261  1.0000
  C   C18       1.0  0.16579000000000002  0.6837299999999998  0.5928100000000001  1.0000
  C   C19       1.0  0.8858  0.9348499999999998  0.09718000000000002  1.0000
  C   C20       1.0  0.84602  0.9728999999999998  0.0154  1.0000
  C   C21       1.0  0.8886299999999998  0.02271  0.00476  1.0000
  C   C22       1.0  0.9699099999999998  0.03251  0.0793  1.0000
  C   C23       1.0  0.0047599999999999995  0.9931899999999999  0.16089  1.0000
  C   C24       1.0  0.8485899999999997  0.06546  0.91743  1.0000
  C   C25       1.0  0.20155999999999993  0.6890299999999998  0.98941  1.0000
  C   C26       1.0  0.22966999999999996  0.73448  0.0571  1.0000
  C   C27       1.0  0.2970699999999999  0.7675199999999999  0.020300000000000002  1.0000
  C   C28       1.0  0.33357  0.75337  0.9157900000000002  1.0000
  C   C29       1.0  0.30257  0.70724  0.8528300000000002  1.0000
  C   C30       1.0  0.33296  0.81629  0.09229000000000001  1.0000
  C   C31       1.0  0.05185  0.56549  0.59679  1.0000
  C   C32       1.0  0.011689999999999997  0.52742  0.51544  1.0000
  C   C33       1.0  0.053949999999999984  0.47753  0.50493  1.0000
  C   C34       1.0  0.13528  0.4675399999999999  0.57919  1.0000
  C   C35       1.0  0.1705  0.5069  0.66044  1.0000
  C   C36       1.0  0.013440000000000013  0.4352599999999999  0.41693000000000013  1.0000
  C   C37       1.0  0.2015599999999999  0.31096999999999997  0.48941  1.0000
  C   C38       1.0  0.22966999999999996  0.26550999999999997  0.5571  1.0000
  C   C39       1.0  0.2970699999999999  0.23248  0.5203  1.0000
  C   C40       1.0  0.33357  0.24661999999999998  0.41579000000000005  1.0000
  C   C41       1.0  0.30257  0.29275  0.35282  1.0000
  C   C42       1.0  0.33296  0.18371  0.59229  1.0000
  C   C43       1.0  0.051849999999999986  0.43449999999999994  0.09679000000000001  1.0000
  C   C44       1.0  0.01169  0.47257999999999994  0.01544  1.0000
  C   C45       1.0  0.053949999999999984  0.5224699999999999  0.00493  1.0000
  C   C46       1.0  0.13528  0.53246  0.07919  1.0000
  C   C47       1.0  0.17051  0.49309999999999987  0.16044  1.0000
  C   C48       1.0  0.01343000000000002  0.56474  0.9169300000000002  1.0000
  C   C49       1.0  0.36828  0.18895999999999993  0.98883  1.0000
  C   C50       1.0  0.3965  0.23420999999999995  0.057060000000000013  1.0000
  C   C51       1.0  0.46389999999999987  0.26738  0.020610000000000003  1.0000
  C   C52       1.0  0.50051  0.25338  0.9160600000000002  1.0000
  C   C53       1.0  0.46951  0.20737  0.8526100000000001  1.0000
  C   C54       1.0  0.49912  0.31627  0.09280000000000001  1.0000
  C   C55       1.0  0.21912999999999994  0.06514  0.59718  1.0000
  C   C56       1.0  0.17936  0.02709  0.5154  1.0000
  C   C57       1.0  0.22195999999999988  0.97729  0.50476  1.0000
  C   C58       1.0  0.30323999999999995  0.9674899999999999  0.5793  1.0000
  C   C59       1.0  0.33809  0.006809999999999998  0.66089  1.0000
  C   C60       1.0  0.18192  0.9345399999999998  0.4174300000000001  1.0000
  C   C61       1.0  0.36828  0.81104  0.48883  1.0000
  C   C62       1.0  0.39649  0.76578  0.55706  1.0000
  C   C63       1.0  0.4638899999999999  0.7326099999999999  0.52061  1.0000
  C   C64       1.0  0.50051  0.74662  0.41606000000000004  1.0000
  C   C65       1.0  0.46951  0.79263  0.35261  1.0000
  C   C66       1.0  0.49912  0.6837299999999998  0.5928100000000001  1.0000
  C   C67       1.0  0.21912999999999994  0.93486  0.09718000000000002  1.0000
  C   C68       1.0  0.17936  0.9728999999999998  0.0154  1.0000
  C   C69       1.0  0.22195999999999994  0.02271  0.00476  1.0000
  C   C70       1.0  0.30323999999999995  0.03251  0.0793  1.0000
  C   C71       1.0  0.33809  0.9931899999999999  0.16089  1.0000
  C   C72       1.0  0.18192  0.06546  0.91743  1.0000
  C   C73       1.0  0.5348899999999998  0.68902  0.98941  1.0000
  C   C74       1.0  0.5629999999999998  0.73448  0.0571  1.0000
  C   C75       1.0  0.63041  0.7675199999999999  0.020300000000000002  1.0000
  C   C76       1.0  0.6669000000000002  0.75337  0.9157900000000002  1.0000
  C   C77       1.0  0.6359  0.70724  0.85282  1.0000
  C   C78       1.0  0.66629  0.81629  0.09229000000000001  1.0000
  C   C79       1.0  0.38519  0.56549  0.59679  1.0000
  C   C80       1.0  0.34503  0.52742  0.51544  1.0000
  C   C81       1.0  0.38728  0.47753  0.50493  1.0000
  C   C82       1.0  0.46861  0.4675399999999999  0.57919  1.0000
  C   C83       1.0  0.50384  0.5069  0.66044  1.0000
  C   C84       1.0  0.34677  0.4352599999999999  0.41693000000000013  1.0000
  C   C85       1.0  0.53489  0.31096999999999997  0.48941  1.0000
  C   C86       1.0  0.563  0.2655199999999999  0.5571  1.0000
  C   C87       1.0  0.6303999999999997  0.23248  0.5203  1.0000
  C   C88       1.0  0.6669000000000002  0.24662999999999993  0.41579000000000005  1.0000
  C   C89       1.0  0.63591  0.29276  0.35282  1.0000
  C   C90       1.0  0.6662900000000002  0.18371  0.59229  1.0000
  C   C91       1.0  0.38519  0.43449999999999994  0.09679000000000001  1.0000
  C   C92       1.0  0.34503  0.47257999999999994  0.01544  1.0000
  C   C93       1.0  0.38728  0.5224699999999999  0.00493  1.0000
  C   C94       1.0  0.46861  0.53246  0.07919  1.0000
  C   C95       1.0  0.50384  0.49309999999999987  0.16044  1.0000
  C   C96       1.0  0.3467700000000001  0.56474  0.9169300000000002  1.0000
  C   C97       1.0  0.70161  0.18895999999999993  0.98883  1.0000
  C   C98       1.0  0.72983  0.23420999999999995  0.057060000000000013  1.0000
  C   C99       1.0  0.7972299999999998  0.26738  0.020610000000000003  1.0000
  C   C100      1.0  0.8338399999999998  0.25338  0.9160600000000002  1.0000
  C   C101      1.0  0.80285  0.20737  0.8526200000000003  1.0000
  C   C102      1.0  0.83245  0.31627  0.09281  1.0000
  C   C103      1.0  0.55247  0.06514  0.59718  1.0000
  C   C104      1.0  0.51269  0.0271  0.5154  1.0000
  C   C105      1.0  0.5552899999999997  0.97729  0.50476  1.0000
  C   C106      1.0  0.63658  0.9674899999999999  0.5793  1.0000
  C   C107      1.0  0.67142  0.006809999999999998  0.66089  1.0000
  C   C108      1.0  0.51526  0.9345399999999998  0.4174300000000001  1.0000
  C   C109      1.0  0.70161  0.81104  0.48883  1.0000
  C   C110      1.0  0.72983  0.76578  0.55706  1.0000
  C   C111      1.0  0.7972299999999998  0.7326099999999999  0.52061  1.0000
  C   C112      1.0  0.8338399999999998  0.74662  0.41606000000000004  1.0000
  C   C113      1.0  0.80285  0.79263  0.35262  1.0000
  C   C114      1.0  0.83245  0.6837299999999998  0.5928100000000001  1.0000
  C   C115      1.0  0.55247  0.9348499999999998  0.09717  1.0000
  C   C116      1.0  0.51269  0.9728999999999998  0.0154  1.0000
  C   C117      1.0  0.5553  0.02271  0.00476  1.0000
  C   C118      1.0  0.63658  0.03251  0.0793  1.0000
  C   C119      1.0  0.67142  0.9931899999999999  0.16089  1.0000
  C   C120      1.0  0.51525  0.06546  0.91743  1.0000
  C   C121      1.0  0.8682299999999997  0.6890299999999998  0.98941  1.0000
  C   C122      1.0  0.8963399999999999  0.73448  0.0571  1.0000
  C   C123      1.0  0.9637399999999998  0.7675199999999999  0.020300000000000002  1.0000
  C   C124      1.0  0.0002400000000000218  0.75337  0.9157900000000002  1.0000
  C   C125      1.0  0.9692399999999999  0.70724  0.8528300000000002  1.0000
  C   C126      1.0  0.99962  0.81629  0.09229000000000001  1.0000
  C   C127      1.0  0.7185199999999998  0.56549  0.59679  1.0000
  C   C128      1.0  0.6783599999999997  0.52742  0.51544  1.0000
  C   C129      1.0  0.72061  0.47753  0.50493  1.0000
  C   C130      1.0  0.80194  0.4675399999999999  0.57919  1.0000
  C   C131      1.0  0.8371699999999997  0.5069  0.66044  1.0000
  C   C132      1.0  0.6801000000000001  0.4352599999999999  0.41693000000000013  1.0000
  C   C133      1.0  0.8682299999999997  0.31096999999999997  0.48941  1.0000
  C   C134      1.0  0.89634  0.2655199999999999  0.5571  1.0000
  C   C135      1.0  0.9637399999999998  0.23248  0.5203  1.0000
  C   C136      1.0  0.00023999999999999944  0.24661999999999998  0.41579000000000005  1.0000
  C   C137      1.0  0.9692399999999998  0.29275  0.35282  1.0000
  C   C138      1.0  0.9996200000000001  0.18371  0.59229  1.0000
  C   C139      1.0  0.7185199999999998  0.43449999999999994  0.09679000000000001  1.0000
  C   C140      1.0  0.6783599999999997  0.47257999999999994  0.01544  1.0000
  C   C141      1.0  0.7206199999999999  0.5224699999999999  0.00493  1.0000
  C   C142      1.0  0.80194  0.53246  0.07919  1.0000
  C   C143      1.0  0.8371699999999997  0.49309999999999987  0.16044  1.0000
  C   C144      1.0  0.6801000000000001  0.56474  0.9169300000000002  1.0000
  N   N1        1.0  0.07086999999999996  0.17579  0.8886  1.0000
  N   N2        1.0  0.9642399999999998  0.05516999999999998  0.66899  1.0000
  N   N3        1.0  0.07086999999999997  0.8242099999999999  0.3886  1.0000
  N   N4        1.0  0.9642399999999998  0.9448299999999997  0.16899000000000003  1.0000
  N   N5        1.0  0.23752999999999988  0.67558  0.88935  1.0000
  N   N6        1.0  0.1303  0.55537  0.6684200000000001  1.0000
  N   N7        1.0  0.23754  0.32442  0.38935  1.0000
  N   N8        1.0  0.1303  0.4446299999999999  0.16842  1.0000
  N   N9        1.0  0.4042  0.17579  0.8886  1.0000
  N   N10       1.0  0.29757  0.05516999999999998  0.66899  1.0000
  N   N11       1.0  0.4042  0.8242099999999999  0.3886  1.0000
  N   N12       1.0  0.29758000000000007  0.9448299999999997  0.16899000000000003  1.0000
  N   N13       1.0  0.57087  0.67558  0.88935  1.0000
  N   N14       1.0  0.4636299999999999  0.55537  0.6684200000000001  1.0000
  N   N15       1.0  0.57087  0.32442  0.38935  1.0000
  N   N16       1.0  0.4636299999999999  0.4446299999999999  0.16842  1.0000
  N   N17       1.0  0.73753  0.17579  0.8886  1.0000
  N   N18       1.0  0.63091  0.05516999999999998  0.66899  1.0000
  N   N19       1.0  0.7375399999999998  0.8242099999999999  0.3886  1.0000
  N   N20       1.0  0.63091  0.9448299999999997  0.16899000000000003  1.0000
  N   N21       1.0  0.9041999999999999  0.67558  0.88935  1.0000
  N   N22       1.0  0.7969599999999998  0.55537  0.6684200000000001  1.0000
  N   N23       1.0  0.9041999999999999  0.32442  0.38935  1.0000
  N   N24       1.0  0.7969599999999998  0.4446299999999999  0.16842  1.0000
  O   O1        1.0  0.12202  0.32793  0.18205  1.0000
  O   O2        1.0  0.23318999999999995  0.34103  0.06536  1.0000
  O   O3        1.0  0.76409  0.9414999999999999  0.37766  1.0000
  O   O4        1.0  0.8976599999999998  0.89624  0.39181000000000005  1.0000
  O   O5        1.0  0.9552599999999998  0.17122  0.68043  1.0000
  O   O6        1.0  0.09742  0.05849999999999999  0.87766  1.0000
  O   O7        1.0  0.89765  0.10375999999999999  0.8918100000000001  1.0000
  O   O8        1.0  0.12202  0.6720699999999998  0.6820500000000002  1.0000
  O   O9        1.0  0.23318999999999995  0.6589599999999999  0.56536  1.0000
  O   O10       1.0  0.9552599999999998  0.8287799999999999  0.18043000000000003  1.0000
  O   O11       1.0  0.40156  0.84005  0.0659  1.0000
  O   O12       1.0  0.92882  0.4424899999999999  0.37777000000000005  1.0000
  O   O13       1.0  0.06219999999999999  0.3971499999999999  0.38962  1.0000
  O   O14       1.0  0.26215  0.55751  0.8777700000000002  1.0000
  O   O15       1.0  0.06219  0.60285  0.88962  1.0000
  O   O16       1.0  0.40156  0.15995  0.5659  1.0000
  O   O17       1.0  0.45535  0.32793  0.18204  1.0000
  O   O18       1.0  0.56652  0.34103  0.06536  1.0000
  O   O19       1.0  0.09742  0.9414999999999999  0.37766  1.0000
  O   O20       1.0  0.23098999999999997  0.89624  0.39181000000000005  1.0000
  O   O21       1.0  0.28859  0.17122  0.68043  1.0000
  O   O22       1.0  0.43075999999999987  0.05849999999999999  0.87766  1.0000
  O   O23       1.0  0.23098999999999997  0.10375999999999999  0.8918100000000001  1.0000
  O   O24       1.0  0.45535  0.6720699999999998  0.68204  1.0000
  O   O25       1.0  0.56652  0.6589599999999999  0.56537  1.0000
  O   O26       1.0  0.2886  0.8287799999999999  0.18043000000000003  1.0000
  O   O27       1.0  0.73489  0.84005  0.0659  1.0000
  O   O28       1.0  0.26216  0.4424899999999999  0.37777000000000005  1.0000
  O   O29       1.0  0.39553  0.3971499999999999  0.38962  1.0000
  O   O30       1.0  0.59549  0.55751  0.8777700000000002  1.0000
  O   O31       1.0  0.39553  0.60285  0.88962  1.0000
  O   O32       1.0  0.73489  0.15995  0.5659  1.0000
  O   O33       1.0  0.7886799999999999  0.32793  0.18205  1.0000
  O   O34       1.0  0.8998499999999998  0.34103  0.06537  1.0000
  O   O35       1.0  0.43075999999999987  0.9414999999999999  0.37766  1.0000
  O   O36       1.0  0.5643199999999998  0.89624  0.39181000000000005  1.0000
  O   O37       1.0  0.62193  0.17122  0.68043  1.0000
  O   O38       1.0  0.7640899999999999  0.05849999999999999  0.87766  1.0000
  O   O39       1.0  0.5643199999999998  0.10375999999999999  0.8918100000000001  1.0000
  O   O40       1.0  0.7886799999999999  0.6720699999999998  0.6820500000000002  1.0000
  O   O41       1.0  0.8998499999999998  0.6589599999999999  0.56537  1.0000
  O   O42       1.0  0.62193  0.8287799999999999  0.18043000000000003  1.0000
  O   O43       1.0  0.06822999999999997  0.84005  0.0659  1.0000
  O   O44       1.0  0.59549  0.4424899999999999  0.37777000000000005  1.0000
  O   O45       1.0  0.72886  0.3971499999999999  0.38962  1.0000
  O   O46       1.0  0.92882  0.55751  0.8777700000000002  1.0000
  O   O47       1.0  0.72886  0.60285  0.88962  1.0000
  O   O48       1.0  0.06822999999999997  0.15995  0.5659  1.0000
