data_image0
_chemical_formula_structural       Gd4H16C20O24
_chemical_formula_sum              "Gd4 H16 C20 O24"
_cell_length_a       9.119
_cell_length_b       9.119
_cell_length_c       14.4941
_cell_angle_alpha    100.224
_cell_angle_beta     100.224
_cell_angle_gamma    115.832

_space_group_name_H-M_alt    "P 1"
_space_group_IT_number       1

loop_
  _space_group_symop_operation_xyz
  'x, y, z'

loop_
  _atom_site_type_symbol
  _atom_site_label
  _atom_site_symmetry_multiplicity
  _atom_site_fract_x
  _atom_site_fract_y
  _atom_site_fract_z
  _atom_site_occupancy
  Gd  Gd1       1.0  0.74049  0.99049  0.48098  1.0000
  Gd  Gd2       1.0  0.50951  0.75951  0.019020000000000002  1.0000
  Gd  Gd3       1.0  0.25951  0.009509999999999972  0.51902  1.0000
  Gd  Gd4       1.0  0.49049  0.2404899999999999  0.98098  1.0000
  H   H1        1.0  0.17919999999999986  0.5691999999999998  0.4904  1.0000
  H   H2        1.0  0.1344  0.5174  0.3768  1.0000
  H   H3        1.0  0.3112  0.4212000000000001  0.4904  1.0000
  H   H4        1.0  0.2424  0.3593999999999999  0.3768  1.0000
  H   H5        1.0  0.9308  0.3208  0.0096  1.0000
  H   H6        1.0  0.9826000000000001  0.36559999999999987  0.1232  1.0000
  H   H7        1.0  0.0788  0.1888  0.0096  1.0000
  H   H8        1.0  0.1406  0.2576  0.1232  1.0000
  H   H9        1.0  0.8208  0.43079999999999996  0.5096  1.0000
  H   H10       1.0  0.8656000000000003  0.4826000000000001  0.6232000000000001  1.0000
  H   H11       1.0  0.6888  0.5788  0.5096  1.0000
  H   H12       1.0  0.7576  0.6406000000000001  0.6232000000000001  1.0000
  H   H13       1.0  0.06920000000000007  0.6792  0.9904  1.0000
  H   H14       1.0  0.017399999999999926  0.6343999999999997  0.8768  1.0000
  H   H15       1.0  0.9212  0.8112  0.9904  1.0000
  H   H16       1.0  0.8594  0.7424  0.8768  1.0000
  C   C1        1.0  0.37665  0.69627  0.44171999999999995  1.0000
  C   C2        1.0  0.21923999999999993  0.53968  0.43592  1.0000
  C   C3        1.0  0.06507000000000002  0.24544999999999995  0.44171999999999995  1.0000
  C   C4        1.0  0.21667999999999993  0.39623999999999987  0.43592  1.0000
  C   C5        1.0  0.80373  0.12335  0.05828  1.0000
  C   C6        1.0  0.9603200000000001  0.28076  0.06408  1.0000
  C   C7        1.0  0.25454999999999994  0.4349299999999999  0.05828  1.0000
  C   C8        1.0  0.10376  0.28332  0.06408  1.0000
  C   C9        1.0  0.62335  0.30373  0.55828  1.0000
  C   C10       1.0  0.78076  0.46031999999999995  0.56408  1.0000
  C   C11       1.0  0.9349299999999999  0.75455  0.55828  1.0000
  C   C12       1.0  0.78332  0.60376  0.56408  1.0000
  C   C13       1.0  0.19627000000000006  0.87665  0.94172  1.0000
  C   C14       1.0  0.03968000000000003  0.71924  0.93592  1.0000
  C   C15       1.0  0.74545  0.56507  0.94172  1.0000
  C   C16       1.0  0.8962400000000001  0.7166799999999999  0.93592  1.0000
  C   C17       1.0  0.5748  0.9252  0.25  1.0000
  C   C18       1.0  0.6752  0.8248  0.25  1.0000
  C   C19       1.0  0.4252  0.07479999999999998  0.75  1.0000
  C   C20       1.0  0.32480000000000003  0.17519999999999994  0.75  1.0000
  O   O1        1.0  0.50444  0.69246  0.4240999999999999  1.0000
  O   O2        1.0  0.3739899999999999  0.8340899999999999  0.46708  1.0000
  O   O3        1.0  0.5691000000000002  0.9919  0.3314  1.0000
  O   O4        1.0  0.91966  0.23163999999999998  0.4240999999999999  1.0000
  O   O5        1.0  0.09309  0.13299  0.46708  1.0000
  O   O6        1.0  0.7623  0.8394999999999998  0.3314  1.0000
  O   O7        1.0  0.80754  0.99556  0.07589999999999998  1.0000
  O   O8        1.0  0.66591  0.12601  0.03292  1.0000
  O   O9        1.0  0.5080999999999998  0.9308999999999997  0.1686  1.0000
  O   O10       1.0  0.26836  0.58034  0.07589999999999998  1.0000
  O   O11       1.0  0.36701  0.40691  0.03292  1.0000
  O   O12       1.0  0.6604999999999999  0.7376999999999998  0.1686  1.0000
  O   O13       1.0  0.49556  0.30754  0.5759  1.0000
  O   O14       1.0  0.62601  0.16591  0.53292  1.0000
  O   O15       1.0  0.43090000000000006  0.008100000000000001  0.6686  1.0000
  O   O16       1.0  0.08033999999999997  0.76836  0.5759  1.0000
  O   O17       1.0  0.9069100000000001  0.8670099999999997  0.53292  1.0000
  O   O18       1.0  0.2377  0.1605  0.6686  1.0000
  O   O19       1.0  0.19245999999999996  0.004439999999999983  0.9241  1.0000
  O   O20       1.0  0.33409  0.87399  0.96708  1.0000
  O   O21       1.0  0.4918999999999999  0.06909999999999998  0.8314  1.0000
  O   O22       1.0  0.73164  0.41966  0.9241  1.0000
  O   O23       1.0  0.63299  0.59309  0.96708  1.0000
  O   O24       1.0  0.3395  0.2623  0.8314  1.0000
