data_image0
_chemical_formula_structural       O2CDyZnCNCHCHC3HCHCHNCHCHONCHC6HC2HO9CDyZnCNCHCHC3HCHCHNCHCHONCHC6HC2HO7
_chemical_formula_sum              "O20 C40 Dy2 Zn2 N6 H20"
_cell_length_a       10.66
_cell_length_b       11.376999999999999
_cell_length_c       12.509
_cell_angle_alpha    86.24
_cell_angle_beta     81.85
_cell_angle_gamma    89.07

_space_group_name_H-M_alt    "P 1"
_space_group_IT_number       1

loop_
  _space_group_symop_operation_xyz
  'x, y, z'

loop_
  _atom_site_type_symbol
  _atom_site_label
  _atom_site_symmetry_multiplicity
  _atom_site_fract_x
  _atom_site_fract_y
  _atom_site_fract_z
  _atom_site_occupancy
  O   O1        1.0  0.503  0.3228  0.6417  1.0000
  O   O2        1.0  0.30739999999999995  0.3886  0.6391  1.0000
  C   C1        1.0  0.3965  0.3169  0.6106  1.0000
  Dy  Dy1       1.0  0.57331  0.51408  0.23813  1.0000
  Zn  Zn1       1.0  0.36811  0.16410000000000002  0.20067  1.0000
  C   C2        1.0  0.6208  0.8855  0.08899999999999998  1.0000
  N   N1        1.0  0.3522  0.1265  0.377  1.0000
  C   C3        1.0  0.3011  0.013499999999999998  0.5455  1.0000
  H   H1        1.0  0.27560000000000007  0.9424  0.5824  1.0000
  C   C4        1.0  0.3272  0.1084  0.6019  1.0000
  H   H2        1.0  0.3173000000000001  0.10210000000000005  0.6771  1.0000
  C   C5        1.0  0.38179999999999986  0.21790000000000007  0.4323  1.0000
  C   C6        1.0  0.3687000000000001  0.2145  0.5452  1.0000
  C   C7        1.0  0.16799999999999995  0.3479  0.1471  1.0000
  H   H3        1.0  0.237  0.3834  0.10380000000000002  1.0000
  C   C8        1.0  0.3134  0.0251  0.4333  1.0000
  H   H4        1.0  0.29429999999999984  0.9612  0.39590000000000003  1.0000
  C   C9        1.0  0.08409999999999997  0.1951  0.2648  1.0000
  H   H5        1.0  0.0946  0.1239  0.3035  1.0000
  N   N2        1.0  0.18660000000000002  0.245  0.2042  1.0000
  C   C10       1.0  0.9643  0.2448  0.2722  1.0000
  H   H6        1.0  0.8964  0.2077  0.3156  1.0000
  C   C11       1.0  0.0511  0.40170000000000006  0.151  1.0000
  H   H7        1.0  0.042300000000000004  0.47250000000000003  0.111  1.0000
  O   O3        1.0  0.7227  0.3588  0.2812  1.0000
  N   N3        1.0  0.5399  0.0664  0.1636  1.0000
  C   C12       1.0  0.6598  0.10660000000000001  0.1561  1.0000
  H   H8        1.0  0.673  0.1806  0.1798  1.0000
  C   C13       1.0  0.8166999999999993  0.40770000000000006  0.2198  1.0000
  C   C14       1.0  0.3814  0.9201  0.1444  1.0000
  C   C15       1.0  0.6  0.762  0.0553  1.0000
  C   C16       1.0  0.4342  0.32420000000000004  0.3619  1.0000
  C   C17       1.0  0.5197999999999999  0.9576  0.1315  1.0000
  C   C18       1.0  0.7435999999999999  0.9288  0.0802  1.0000
  H   H9        1.0  0.8119999999999999  0.8833  0.05170000000000001  1.0000
  C   C19       1.0  0.9460999999999999  0.35050000000000003  0.21440000000000003  1.0000
  C   C20       1.0  0.7639  0.04020000000000001  0.114  1.0000
  H   H10       1.0  0.8456  0.06980000000000003  0.1085  1.0000
  O   O4        1.0  0.6079  0.6801  0.126  1.0000
  O   O5        1.0  0.2988  0.9984  0.1748  1.0000
  O   O6        1.0  0.5826000000000001  0.7485  0.9589  1.0000
  O   O7        1.0  0.8019  0.5026  0.16410000000000002  1.0000
  O   O8        1.0  0.4472  0.3179  0.2591  1.0000
  O   O9        1.0  0.4682  0.41280000000000006  0.40480000000000005  1.0000
  O   O10       1.0  0.3577  0.8173  0.1251  1.0000
  O   O11       1.0  0.497  0.6772  0.3583  1.0000
  O   O12       1.0  0.6926  0.6114  0.36090000000000005  1.0000
  C   C21       1.0  0.6035  0.6831  0.3894  1.0000
  Dy  Dy2       1.0  0.42669  0.48592  0.76187  1.0000
  Zn  Zn2       1.0  0.6318899999999998  0.8359  0.79933  1.0000
  C   C22       1.0  0.3791999999999999  0.11449999999999999  0.911  1.0000
  N   N4        1.0  0.6477999999999999  0.8735  0.623  1.0000
  C   C23       1.0  0.6988999999999999  0.9865000000000003  0.4545  1.0000
  H   H11       1.0  0.7244  0.057600000000000005  0.4176000000000001  1.0000
  C   C24       1.0  0.6728  0.8916  0.3981  1.0000
  H   H12       1.0  0.6827  0.8979  0.3229  1.0000
  C   C25       1.0  0.6182  0.7821  0.5677  1.0000
  C   C26       1.0  0.6313  0.7855  0.4548  1.0000
  C   C27       1.0  0.8319999999999999  0.6521000000000001  0.8529  1.0000
  H   H13       1.0  0.763  0.6166000000000001  0.8962  1.0000
  C   C28       1.0  0.6865999999999999  0.9749  0.5667  1.0000
  H   H14       1.0  0.7056999999999999  0.0388  0.6041  1.0000
  C   C29       1.0  0.9159  0.8049000000000004  0.7352  1.0000
  H   H15       1.0  0.9054  0.8761000000000001  0.6965  1.0000
  N   N5        1.0  0.8134  0.755  0.7958  1.0000
  C   C30       1.0  0.0357  0.7552000000000001  0.7278  1.0000
  H   H16       1.0  0.10360000000000005  0.7923  0.6844  1.0000
  C   C31       1.0  0.9488999999999999  0.5983  0.849  1.0000
  H   H17       1.0  0.9577  0.5275  0.889  1.0000
  O   O13       1.0  0.2773  0.6412  0.7188  1.0000
  N   N6        1.0  0.46009999999999995  0.9336000000000001  0.8364  1.0000
  C   C32       1.0  0.3402  0.8934000000000001  0.8439000000000001  1.0000
  H   H18       1.0  0.327  0.8194  0.8202  1.0000
  C   C33       1.0  0.18329999999999996  0.5923  0.7802  1.0000
  C   C34       1.0  0.6185999999999998  0.07990000000000003  0.8556  1.0000
  C   C35       1.0  0.4  0.23800000000000002  0.9447  1.0000
  C   C36       1.0  0.5658  0.6758000000000001  0.6381  1.0000
  C   C37       1.0  0.48019999999999996  0.0424  0.8685  1.0000
  C   C38       1.0  0.2563999999999999  0.07120000000000003  0.9198  1.0000
  H   H19       1.0  0.188  0.11670000000000001  0.9483  1.0000
  C   C39       1.0  0.05389999999999999  0.6495000000000001  0.7856000000000001  1.0000
  C   C40       1.0  0.23609999999999998  0.9598  0.8860000000000001  1.0000
  H   H20       1.0  0.15439999999999998  0.9301999999999999  0.8915000000000001  1.0000
  O   O14       1.0  0.39210000000000006  0.3199000000000001  0.874  1.0000
  O   O15       1.0  0.7012000000000002  0.0015999999999999986  0.8252  1.0000
  O   O16       1.0  0.4174  0.2515  0.0411  1.0000
  O   O17       1.0  0.19809999999999992  0.49740000000000006  0.8359000000000001  1.0000
  O   O18       1.0  0.5528  0.6821  0.7409  1.0000
  O   O19       1.0  0.5318  0.5872  0.5952  1.0000
  O   O20       1.0  0.6423  0.18270000000000003  0.8749  1.0000
