data_image0
_chemical_formula_structural       Er4H36C36O24
_chemical_formula_sum              "Er4 H36 C36 O24"
_cell_length_a       9.0835
_cell_length_b       9.0835
_cell_length_c       15.9193
_cell_angle_alpha    88.4173
_cell_angle_beta     88.4173
_cell_angle_gamma    84.7717

_space_group_name_H-M_alt    "P 1"
_space_group_IT_number       1

loop_
  _space_group_symop_operation_xyz
  'x, y, z'

loop_
  _atom_site_type_symbol
  _atom_site_label
  _atom_site_symmetry_multiplicity
  _atom_site_fract_x
  _atom_site_fract_y
  _atom_site_fract_z
  _atom_site_occupancy
  Er  Er1       1.0  0.47757  0.27785  0.01099  1.0000
  Er  Er2       1.0  0.72215  0.52243  0.48901  1.0000
  Er  Er3       1.0  0.52243  0.72215  0.98901  1.0000
  Er  Er4       1.0  0.27785  0.47757  0.51099  1.0000
  H   H1        1.0  0.7445  0.06530000000000001  0.7782  1.0000
  H   H2        1.0  0.555  0.8498  0.7327  1.0000
  H   H3        1.0  0.7158000000000001  0.811  0.7655  1.0000
  H   H4        1.0  0.8148  0.9358000000000001  0.6468  1.0000
  H   H5        1.0  0.5187000000000003  0.9817  0.5893  1.0000
  H   H6        1.0  0.6575  0.02930000000000001  0.538  1.0000
  H   H7        1.0  0.6983  0.2053  0.6384  1.0000
  H   H8        1.0  0.4449  0.1215  0.7305  1.0000
  H   H9        1.0  0.5441000000000001  0.24410000000000004  0.7572  1.0000
  H   H10       1.0  0.9347  0.2555  0.7218  1.0000
  H   H11       1.0  0.15020000000000003  0.44500000000000006  0.7673  1.0000
  H   H12       1.0  0.189  0.2842  0.7345  1.0000
  H   H13       1.0  0.0642  0.18519999999999998  0.8532  1.0000
  H   H14       1.0  0.018299999999999997  0.4813  0.9107  1.0000
  H   H15       1.0  0.9707  0.3425  0.962  1.0000
  H   H16       1.0  0.7947  0.3017  0.8616  1.0000
  H   H17       1.0  0.8785000000000001  0.5551  0.7695  1.0000
  H   H18       1.0  0.7559000000000002  0.4559000000000001  0.7428  1.0000
  H   H19       1.0  0.2555  0.9347  0.2218  1.0000
  H   H20       1.0  0.445  0.1502  0.2673  1.0000
  H   H21       1.0  0.2842000000000001  0.189  0.2345  1.0000
  H   H22       1.0  0.1852  0.0642  0.3532  1.0000
  H   H23       1.0  0.48129999999999995  0.0183  0.4107  1.0000
  H   H24       1.0  0.3425000000000001  0.9707  0.462  1.0000
  H   H25       1.0  0.3017  0.7947000000000002  0.3616  1.0000
  H   H26       1.0  0.5551000000000003  0.8785  0.2695  1.0000
  H   H27       1.0  0.45589999999999997  0.7559  0.2428  1.0000
  H   H28       1.0  0.06529999999999998  0.7445000000000002  0.2782  1.0000
  H   H29       1.0  0.8498  0.555  0.2327  1.0000
  H   H30       1.0  0.8110000000000002  0.7158  0.2655  1.0000
  H   H31       1.0  0.9358  0.8148  0.1468  1.0000
  H   H32       1.0  0.9817000000000001  0.5187  0.0893  1.0000
  H   H33       1.0  0.02930000000000001  0.6575  0.038  1.0000
  H   H34       1.0  0.2053  0.6983000000000001  0.1384  1.0000
  H   H35       1.0  0.1215  0.4449000000000001  0.2305  1.0000
  H   H36       1.0  0.24410000000000004  0.5441  0.2572  1.0000
  C   C1        1.0  0.6446  0.032799999999999996  0.7784  1.0000
  C   C2        1.0  0.6530000000000002  0.8840000000000001  0.7343  1.0000
  C   C3        1.0  0.7160000000000002  0.9012  0.6442  1.0000
  C   C4        1.0  0.6157  0.016700000000000003  0.5942  1.0000
  C   C5        1.0  0.601  0.16660000000000003  0.6385  1.0000
  C   C6        1.0  0.5453  0.1499  0.7298  1.0000
  C   C7        1.0  0.5884  0.025600000000000005  0.8688  1.0000
  C   C8        1.0  0.7271000000000002  0.7591  0.5968  1.0000
  C   C9        1.0  0.4958  0.2744  0.5904  1.0000
  C   C10       1.0  0.9672  0.3554  0.7216  1.0000
  C   C11       1.0  0.116  0.347  0.7657  1.0000
  C   C12       1.0  0.0988  0.284  0.8558  1.0000
  C   C13       1.0  0.9833  0.3843  0.9058  1.0000
  C   C14       1.0  0.8334  0.399  0.8615  1.0000
  C   C15       1.0  0.8501000000000003  0.45470000000000005  0.7702  1.0000
  C   C16       1.0  0.9744000000000002  0.4116  0.6312  1.0000
  C   C17       1.0  0.2409  0.2729  0.9032  1.0000
  C   C18       1.0  0.7256000000000001  0.5042  0.9096  1.0000
  C   C19       1.0  0.35540000000000005  0.9672  0.2216  1.0000
  C   C20       1.0  0.34700000000000003  0.116  0.2657  1.0000
  C   C21       1.0  0.284  0.09880000000000004  0.3558  1.0000
  C   C22       1.0  0.38430000000000003  0.9833000000000001  0.4058  1.0000
  C   C23       1.0  0.3990000000000001  0.8334  0.3615  1.0000
  C   C24       1.0  0.45470000000000005  0.8501000000000002  0.2702  1.0000
  C   C25       1.0  0.4116000000000002  0.9744000000000002  0.1312  1.0000
  C   C26       1.0  0.2729  0.24090000000000003  0.4032  1.0000
  C   C27       1.0  0.5042000000000001  0.7256  0.4096  1.0000
  C   C28       1.0  0.032799999999999996  0.6446000000000001  0.2784  1.0000
  C   C29       1.0  0.884  0.653  0.2343  1.0000
  C   C30       1.0  0.9012  0.716  0.1442  1.0000
  C   C31       1.0  0.016700000000000003  0.6157  0.0942  1.0000
  C   C32       1.0  0.1666  0.601  0.1385  1.0000
  C   C33       1.0  0.1499  0.5453  0.2298  1.0000
  C   C34       1.0  0.025600000000000008  0.5884  0.3688  1.0000
  C   C35       1.0  0.7591  0.7271  0.0968  1.0000
  C   C36       1.0  0.2744  0.4958000000000001  0.0904  1.0000
  O   O1        1.0  0.5926  0.1408  0.9102  1.0000
  O   O2        1.0  0.5398999999999999  0.9095000000000001  0.8976  1.0000
  O   O3        1.0  0.8386000000000001  0.726  0.5492  1.0000
  O   O4        1.0  0.623  0.6766  0.6006  1.0000
  O   O5        1.0  0.5424  0.38260000000000005  0.5495  1.0000
  O   O6        1.0  0.3608  0.2564  0.5903  1.0000
  O   O7        1.0  0.8592  0.4074  0.5898  1.0000
  O   O8        1.0  0.0905  0.4601  0.6024  1.0000
  O   O9        1.0  0.274  0.1614  0.9508  1.0000
  O   O10       1.0  0.3234  0.377  0.8994  1.0000
  O   O11       1.0  0.6174000000000002  0.4576  0.9505  1.0000
  O   O12       1.0  0.7436000000000004  0.6392  0.9097  1.0000
  O   O13       1.0  0.4074  0.8592000000000001  0.0898  1.0000
  O   O14       1.0  0.46010000000000006  0.0905  0.1024  1.0000
  O   O15       1.0  0.1614  0.274  0.4508  1.0000
  O   O16       1.0  0.377  0.3234000000000001  0.3994  1.0000
  O   O17       1.0  0.4576  0.6174  0.4505  1.0000
  O   O18       1.0  0.6392000000000002  0.7436  0.4097  1.0000
  O   O19       1.0  0.1408  0.5926  0.4102  1.0000
  O   O20       1.0  0.9095000000000001  0.5399000000000002  0.3976  1.0000
  O   O21       1.0  0.726  0.8386  0.0492  1.0000
  O   O22       1.0  0.6766000000000002  0.623  0.1006  1.0000
  O   O23       1.0  0.3826000000000001  0.5424  0.0495  1.0000
  O   O24       1.0  0.2564  0.3608  0.0903  1.0000
