data_image0
_chemical_formula_structural       Cu12H24C72O48
_chemical_formula_sum              "Cu12 H24 C72 O48"
_cell_length_a       18.70222624
_cell_length_b       18.69883985
_cell_length_c       18.70013151
_cell_angle_alpha    59.99532047999999
_cell_angle_beta     59.99128881
_cell_angle_gamma    59.99273919

_space_group_name_H-M_alt    "P 1"
_space_group_IT_number       1

loop_
  _space_group_symop_operation_xyz
  'x, y, z'

loop_
  _atom_site_type_symbol
  _atom_site_label
  _atom_site_symmetry_multiplicity
  _atom_site_fract_x
  _atom_site_fract_y
  _atom_site_fract_z
  _atom_site_occupancy
  Cu  Cu1       1.0  0.5658291500000001  0.43417051  2.19e-06  1.0000
  Cu  Cu2       1.0  0.4341791099999999  0.5658193799999999  0.9999981800000001  1.0000
  Cu  Cu3       1.0  5.999999999610859e-07  0.9999999  0.5657997  1.0000
  Cu  Cu4       1.0  0.9999976699999993  0.99999817  0.43419537000000014  1.0000
  Cu  Cu5       1.0  0.5661884399999998  6.1799999999178235e-06  0.9999984500000002  1.0000
  Cu  Cu6       1.0  0.4339357499999999  0.99999277  2.570000000000001e-06  1.0000
  Cu  Cu7       1.0  5.029999999987207e-06  0.5657913999999999  0.43420371  1.0000
  Cu  Cu8       1.0  0.99999289  0.4342084299999999  0.5657962100000002  1.0000
  Cu  Cu9       1.0  0.5657984599999999  7.989999999972127e-06  0.4341967100000001  1.0000
  Cu  Cu10      1.0  0.4341980499999999  0.99999131  0.56580598  1.0000
  Cu  Cu11      1.0  0.99999098  0.4342668  6.600000000000002e-07  1.0000
  Cu  Cu12      1.0  7.929999999894104e-06  0.56585727  0.9999998000000001  1.0000
  H   H1        1.0  0.26585174000000006  0.49623284  0.97207756  1.0000
  H   H2        1.0  0.49624320999999993  0.26584048  0.26583908  1.0000
  H   H3        1.0  0.97208089  0.265831  0.2658422  1.0000
  H   H4        1.0  0.26583942000000005  0.97208194  0.4962362200000001  1.0000
  H   H5        1.0  0.2658208900000001  0.9720795600000001  0.26585235  1.0000
  H   H6        1.0  0.49623919999999994  0.26585073999999986  0.9720749100000002  1.0000
  H   H7        1.0  0.9720815799999998  0.26583476999999994  0.4962437000000001  1.0000
  H   H8        1.0  0.26585075  0.49624472000000003  0.26582633  1.0000
  H   H9        1.0  0.26584215  0.26583827  0.49623531  1.0000
  H   H10       1.0  0.4962415199999997  0.9720791100000004  0.2658464500000001  1.0000
  H   H11       1.0  0.9720814000000002  0.49624303  0.265832  1.0000
  H   H12       1.0  0.2658271699999999  0.26584622  0.9720815200000001  1.0000
  H   H13       1.0  0.50375009  0.73413821  0.027924680000000007  1.0000
  H   H14       1.0  0.7341572200000002  0.5037563299999999  0.7341633000000002  1.0000
  H   H15       1.0  0.7341653999999999  0.02792058000000002  0.73415085  1.0000
  H   H16       1.0  0.027917619999999945  0.73416589  0.5037566600000001  1.0000
  H   H17       1.0  0.027918669999999878  0.7341551399999999  0.7341612900000002  1.0000
  H   H18       1.0  0.7341547099999999  0.50375667  0.02792267  1.0000
  H   H19       1.0  0.7341598500000001  0.027917609999999933  0.5037643600000002  1.0000
  H   H20       1.0  0.5037603  0.73414788  0.73416838  1.0000
  H   H21       1.0  0.7341567800000002  0.73416166  0.50376478  1.0000
  H   H22       1.0  0.027917700000000018  0.5037462499999998  0.7341654400000001  1.0000
  H   H23       1.0  0.50374778  0.02791985000000002  0.73415233  1.0000
  H   H24       1.0  0.7341624300000001  0.7341419900000002  0.027919870000000006  1.0000
  C   C1        1.0  0.29979718000000016  0.4294352700000002  0.97096188  1.0000
  C   C2        1.0  0.42945481  0.29977905  0.29980272  1.0000
  C   C3        1.0  0.9709752699999998  0.29977428000000006  0.2997974300000001  1.0000
  C   C4        1.0  0.2997902299999999  0.9709762000000001  0.4294349500000001  1.0000
  C   C5        1.0  0.2998014999999999  0.9709720500000001  0.2997700800000001  1.0000
  C   C6        1.0  0.42945680999999997  0.2997488899999999  0.9709585800000002  1.0000
  C   C7        1.0  0.9709758599999999  0.29978312  0.4294432  1.0000
  C   C8        1.0  0.29979742  0.42944835000000003  0.29979147  1.0000
  C   C9        1.0  0.2997957900000001  0.2997863599999999  0.42943582000000013  1.0000
  C   C10       1.0  0.4294487699999999  0.9709727900000004  0.2997585200000001  1.0000
  C   C11       1.0  0.9709766300000001  0.42943903  0.2997860000000001  1.0000
  C   C12       1.0  0.29981247  0.29975561999999994  0.97097673  1.0000
  C   C13       1.0  0.57053667  0.70022724  0.029042740000000008  1.0000
  C   C14       1.0  0.70021263  0.5705496000000001  0.70020009  1.0000
  C   C15       1.0  0.7001819500000002  0.029027309999999994  0.70023869  1.0000
  C   C16       1.0  0.029023149999999984  0.7002145899999999  0.5705578200000002  1.0000
  C   C17       1.0  0.02902377999999983  0.7002085200000001  0.7002093700000003  1.0000
  C   C18       1.0  0.70020754  0.57055099  0.029037770000000008  1.0000
  C   C19       1.0  0.70020648  0.029023269999999934  0.5705674900000002  1.0000
  C   C20       1.0  0.5705487299999996  0.7002052299999999  0.7002074500000002  1.0000
  C   C21       1.0  0.70020457  0.70020995  0.57056629  1.0000
  C   C22       1.0  0.02902240000000008  0.57054952  0.7002092  1.0000
  C   C23       1.0  0.57054063  0.029026650000000025  0.70023556  1.0000
  C   C24       1.0  0.70018001  0.70023141  0.029023950000000007  1.0000
  C   C25       1.0  0.38608967999999994  0.38606369999999995  0.9711090500000003  1.0000
  C   C26       1.0  0.4303613799999998  0.43040059999999997  0.9764414900000002  1.0000
  C   C27       1.0  0.38610110999999997  0.38608029999999993  0.2567125500000001  1.0000
  C   C28       1.0  0.43035652999999996  0.4304119000000001  0.1627914  1.0000
  C   C29       1.0  0.9711140400000001  0.25666675000000005  0.3861100400000001  1.0000
  C   C30       1.0  0.9764177800000001  0.16275131  0.4304134  1.0000
  C   C31       1.0  0.25668349  0.9711181199999999  0.3860975900000001  1.0000
  C   C32       1.0  0.16275455999999983  0.97641932  0.43040492000000014  1.0000
  C   C33       1.0  0.38613028000000016  0.9710885199999999  0.25663475000000013  1.0000
  C   C34       1.0  0.43050773000000003  0.97639472  0.16261247  1.0000
  C   C35       1.0  0.38613231  0.2566322499999999  0.9710875600000002  1.0000
  C   C36       1.0  0.4305029299999999  0.1626193499999999  0.9763979300000002  1.0000
  C   C37       1.0  0.97111536  0.38610426  0.38610185  1.0000
  C   C38       1.0  0.9764117499999997  0.43041722000000004  0.4304133800000001  1.0000
  C   C39       1.0  0.25668695  0.38609876000000004  0.38609899  1.0000
  C   C40       1.0  0.16277114999999995  0.43040973000000005  0.43040427  1.0000
  C   C41       1.0  0.38610552000000015  0.25667496  0.38610442  1.0000
  C   C42       1.0  0.43040629  0.16276908  0.4304085  1.0000
  C   C43       1.0  0.3861000900000001  0.9711182699999998  0.38608722  1.0000
  C   C44       1.0  0.4304196499999999  0.9764142300000002  0.43040361  1.0000
  C   C45       1.0  0.9711141600000001  0.3860947100000001  0.25667892  1.0000
  C   C46       1.0  0.97641323  0.43042371999999995  0.16275264000000006  1.0000
  C   C47       1.0  0.2567010899999999  0.3860816499999999  0.9711176400000002  1.0000
  C   C48       1.0  0.16276667999999997  0.43041090999999987  0.9764172200000002  1.0000
  C   C49       1.0  0.6139203399999998  0.6139087200000002  0.02889103  1.0000
  C   C50       1.0  0.56957807  0.5696515  0.023559280000000005  1.0000
  C   C51       1.0  0.61391558  0.6139009  0.74328907  1.0000
  C   C52       1.0  0.56958819  0.56964347  0.83720731  1.0000
  C   C53       1.0  0.7433081999999999  0.028881269999999945  0.6139082300000003  1.0000
  C   C54       1.0  0.8372415399999998  0.02357997  0.56959651  1.0000
  C   C55       1.0  0.028884789999999924  0.74332554  0.61389578  1.0000
  C   C56       1.0  0.02358099999999995  0.8372445400000001  0.5695886  1.0000
  C   C57       1.0  0.028884829999999962  0.61388663  0.74332149  1.0000
  C   C58       1.0  0.02358652999999995  0.5695909299999999  0.8372475400000002  1.0000
  C   C59       1.0  0.74329982  0.61390343  0.028882720000000008  1.0000
  C   C60       1.0  0.8372328199999999  0.5696080100000003  0.023583000000000007  1.0000
  C   C61       1.0  0.6139002000000001  0.028881140000000017  0.61390478  1.0000
  C   C62       1.0  0.5695776799999999  0.023585429999999945  0.5695957700000002  1.0000
  C   C63       1.0  0.6138956999999999  0.74331525  0.6139027400000001  1.0000
  C   C64       1.0  0.5695891800000001  0.8372280099999999  0.56959801  1.0000
  C   C65       1.0  0.7433212099999998  0.61389533  0.61389793  1.0000
  C   C66       1.0  0.83723177  0.56959101  0.56959105  1.0000
  C   C67       1.0  0.028883749999999955  0.61389258  0.61389387  1.0000
  C   C68       1.0  0.02358773999999993  0.5695821899999999  0.5695829600000002  1.0000
  C   C69       1.0  0.6138492899999999  0.028911290000000017  0.7433654900000002  1.0000
  C   C70       1.0  0.56951342  0.023604369999999975  0.83738818  1.0000
  C   C71       1.0  0.6138577400000002  0.7433491  0.028912850000000007  1.0000
  C   C72       1.0  0.56952017  0.83737309  0.02360249  1.0000
  O   O1        1.0  0.50807553  0.38603402  0.9794629800000002  1.0000
  O   O2        1.0  0.3860456299999999  0.50810816  0.12637416000000007  1.0000
  O   O3        1.0  0.9794722999999999  0.1263398199999999  0.5081241300000002  1.0000
  O   O4        1.0  0.12636377000000004  0.97946715  0.38605306  1.0000
  O   O5        1.0  0.5081410300000001  0.9795047200000001  0.12644502  1.0000
  O   O6        1.0  0.38592856  0.12642823000000003  0.97951717  1.0000
  O   O7        1.0  0.97946177  0.50813645  0.38604919  1.0000
  O   O8        1.0  0.1263707199999999  0.3860460800000002  0.50811947  1.0000
  O   O9        1.0  0.5081225899999999  0.12636589999999995  0.3860501600000001  1.0000
  O   O10       1.0  0.38605693999999985  0.9794612400000001  0.50811422  1.0000
  O   O11       1.0  0.9794637300000001  0.38606864  0.12633998  1.0000
  O   O12       1.0  0.12639561999999993  0.5081214699999999  0.9794602600000002  1.0000
  O   O13       1.0  0.61396065  0.49191970999999995  0.020539280000000004  1.0000
  O   O14       1.0  0.4918929399999997  0.6139525  0.87362129  1.0000
  O   O15       1.0  0.8736391700000002  0.020526179999999967  0.4918853600000001  1.0000
  O   O16       1.0  0.020530299999999817  0.8736540799999999  0.6139374800000003  1.0000
  O   O17       1.0  0.02052914999999999  0.49186609000000003  0.87367084  1.0000
  O   O18       1.0  0.87360454  0.61397019  0.020546280000000007  1.0000
  O   O19       1.0  0.49187955000000017  0.020538299999999947  0.6139446600000003  1.0000
  O   O20       1.0  0.6139451099999998  0.8736426999999999  0.4918787200000001  1.0000
  O   O21       1.0  0.8736269799999998  0.49187777999999993  0.6139581500000002  1.0000
  O   O22       1.0  0.020539579999999957  0.61394747  0.4918686600000001  1.0000
  O   O23       1.0  0.6140893500000001  0.020495709999999997  0.87354863  1.0000
  O   O24       1.0  0.49187398  0.8735612  0.020486120000000007  1.0000
  O   O25       1.0  0.49189815  0.6139628600000001  0.02053321  1.0000
  O   O26       1.0  0.6139527200000001  0.49191038  0.8736003700000002  1.0000
  O   O27       1.0  0.020526379999999768  0.8736557100000002  0.4918764600000001  1.0000
  O   O28       1.0  0.8736344999999999  0.020532869999999922  0.6139448000000002  1.0000
  O   O29       1.0  0.49186117999999995  0.02048215999999991  0.8735887000000002  1.0000
  O   O30       1.0  0.6140975100000002  0.87353124  0.020494440000000006  1.0000
  O   O31       1.0  0.020537090000000036  0.49186138  0.61394773  1.0000
  O   O32       1.0  0.87362993  0.61395481  0.49187703  1.0000
  O   O33       1.0  0.49188231999999976  0.8736311  0.6139461600000002  1.0000
  O   O34       1.0  0.61394655  0.020537099999999968  0.4918765800000001  1.0000
  O   O35       1.0  0.020546729999999923  0.61395432  0.87363504  1.0000
  O   O36       1.0  0.8736270100000001  0.49189102  0.020530160000000006  1.0000
  O   O37       1.0  0.3860361299999998  0.50809789  0.9794696000000003  1.0000
  O   O38       1.0  0.50808624  0.38604377  0.1264072  1.0000
  O   O39       1.0  0.12635646999999994  0.9794723299999999  0.5081150800000003  1.0000
  O   O40       1.0  0.97946882  0.12634415999999996  0.3860613300000001  1.0000
  O   O41       1.0  0.9794618100000001  0.50814173  0.12635486  1.0000
  O   O42       1.0  0.1263738199999999  0.38605467999999993  0.9794630100000002  1.0000
  O   O43       1.0  0.5081270400000001  0.9794619599999999  0.38605007  1.0000
  O   O44       1.0  0.3860597299999998  0.12635591  0.50811785  1.0000
  O   O45       1.0  0.12637607999999992  0.5081218400000002  0.38603925  1.0000
  O   O46       1.0  0.9794629200000001  0.38605200999999995  0.50812919  1.0000
  O   O47       1.0  0.3859349899999999  0.97951271  0.12641947000000006  1.0000
  O   O48       1.0  0.5081293499999999  0.1264680899999999  0.9795031100000002  1.0000
