data_image0
_chemical_formula_structural       Cu3H30C42N18O12
_chemical_formula_sum              "Cu3 H30 C42 N18 O12"
_cell_length_a       10.84732312
_cell_length_b       12.34821175
_cell_length_c       12.608141540000002
_cell_angle_alpha    61.85499029
_cell_angle_beta     74.9623251
_cell_angle_gamma    77.27289146

_space_group_name_H-M_alt    "P 1"
_space_group_IT_number       1

loop_
  _space_group_symop_operation_xyz
  'x, y, z'

loop_
  _atom_site_type_symbol
  _atom_site_label
  _atom_site_symmetry_multiplicity
  _atom_site_fract_x
  _atom_site_fract_y
  _atom_site_fract_z
  _atom_site_occupancy
  Cu  Cu1       1.0  0.3645146899999999  0.08223747999999995  0.39999605000000005  1.0000
  Cu  Cu2       1.0  0.6354184399999999  0.9178413900000002  0.60007896  1.0000
  Cu  Cu3       1.0  0.9999966299999998  0.49999695000000005  0.49999888  1.0000
  H   H1        1.0  0.8952309599999999  0.21033370999999998  0.72566504  1.0000
  H   H2        1.0  0.03727871999999999  0.26040532999999993  0.7193374300000002  1.0000
  H   H3        1.0  0.21201738  0.24697057  0.54813783  1.0000
  H   H4        1.0  0.1256459599999999  0.9245062400000003  0.56077835  1.0000
  H   H5        1.0  0.6790560900000001  0.04358504000000003  0.97733706  1.0000
  H   H6        1.0  0.7473655999999999  0.15687564999999995  0.83834841  1.0000
  H   H7        1.0  0.71209138  0.1226361  0.67072641  1.0000
  H   H8        1.0  0.7724757599999997  0.7333765000000003  0.8318702  1.0000
  H   H9        1.0  0.7164865799999998  0.8639511800000002  0.10799731000000001  1.0000
  H   H10       1.0  0.79026859  0.802316  0.23639592000000004  1.0000
  H   H11       1.0  0.5176529999999998  0.8826832500000001  0.29808648000000004  1.0000
  H   H12       1.0  0.6207454999999998  0.2270918  0.22090121000000001  1.0000
  H   H13       1.0  0.74752676  0.2675811100000001  0.46769965  1.0000
  H   H14       1.0  0.6451001699999999  0.6615062700000002  0.33586111  1.0000
  H   H15       1.0  0.3857196899999999  0.43915521999999996  0.34762163000000007  1.0000
  H   H16       1.0  0.10476940999999994  0.7896681  0.2743372  1.0000
  H   H17       1.0  0.9627198699999999  0.7395932999999999  0.28066455  1.0000
  H   H18       1.0  0.7879763800000001  0.75301492  0.45186618  1.0000
  H   H19       1.0  0.87434743  0.07551754  0.4392293  1.0000
  H   H20       1.0  0.32094321  0.95641355  0.022665210000000005  1.0000
  H   H21       1.0  0.25263568  0.84312234  0.16165261000000003  1.0000
  H   H22       1.0  0.28790921999999997  0.8773801600000002  0.32925629  1.0000
  H   H23       1.0  0.22752903999999996  0.26659985  0.16812905  1.0000
  H   H24       1.0  0.28351602  0.13604742  0.89200653  1.0000
  H   H25       1.0  0.2097339400000001  0.19768036999999997  0.7636008900000001  1.0000
  H   H26       1.0  0.48236550999999994  0.11733659000000002  0.70190363  1.0000
  H   H27       1.0  0.3792566899999999  0.7728742400000003  0.7791007700000001  1.0000
  H   H28       1.0  0.2524681399999999  0.7324255000000001  0.53229873  1.0000
  H   H29       1.0  0.3549018899999999  0.3384953  0.6641384800000001  1.0000
  H   H30       1.0  0.6142822699999999  0.5608369300000001  0.65238151  1.0000
  C   C1        1.0  0.99653432  0.08577235000000002  0.87681587  1.0000
  C   C2        1.0  0.88685112  0.02851843999999993  0.9525747900000001  1.0000
  C   C3        1.0  0.8907033299999998  0.9430965800000001  0.07505695  1.0000
  C   C4        1.0  0.9932935500000002  0.17765271999999993  0.7444970500000002  1.0000
  C   C5        1.0  0.16891448999999994  0.16511407000000006  0.57247984  1.0000
  C   C6        1.0  0.12112571999999999  0.0018149500000000662  0.58048658  1.0000
  C   C7        1.0  0.7636664099999999  0.05932959999999991  0.9043362000000001  1.0000
  C   C8        1.0  0.73469978  0.026055419999999992  0.73068219  1.0000
  C   C9        1.0  0.76440561  0.8285040300000001  0.8167087500000001  1.0000
  C   C10       1.0  0.7697252499999999  0.8877502999999999  0.15571007000000003  1.0000
  C   C11       1.0  0.5684646099999999  0.96158925  0.27004079  1.0000
  C   C12       1.0  0.62353917  0.13658388  0.22597692  1.0000
  C   C13       1.0  0.5646512899999998  0.3403832  0.40864327  1.0000
  C   C14       1.0  0.6811731099999998  0.35022543000000006  0.4296583600000001  1.0000
  C   C15       1.0  0.7100655400000001  0.46577993999999995  0.40450365  1.0000
  C   C16       1.0  0.62378584  0.57127224  0.35531330000000005  1.0000
  C   C17       1.0  0.5079112499999999  0.5626724400000002  0.33298532  1.0000
  C   C18       1.0  0.4780032600000001  0.44651929  0.36130201  1.0000
  C   C19       1.0  0.53395654  0.21467313  0.4398808900000001  1.0000
  C   C20       1.0  0.82635537  0.47769618  0.43517713  1.0000
  C   C21       1.0  0.41545725  0.67910261  0.28334685  1.0000
  C   C22       1.0  0.0034652199999999737  0.9142283900000001  0.12318198000000001  1.0000
  C   C23       1.0  0.11315478999999998  0.9714763100000001  0.04741965  1.0000
  C   C24       1.0  0.10930831000000005  0.056889759999999984  0.92493523  1.0000
  C   C25       1.0  0.006710029999999947  0.8223454000000002  0.25548796  1.0000
  C   C26       1.0  0.83107038  0.83486058  0.42753114  1.0000
  C   C27       1.0  0.8788473  0.99823141  0.419534  1.0000
  C   C28       1.0  0.23633831999999996  0.94067903  0.09567101000000001  1.0000
  C   C29       1.0  0.26528312  0.97397767  0.26931937  1.0000
  C   C30       1.0  0.23558222999999998  0.17143656000000004  0.18331042  1.0000
  C   C31       1.0  0.23024717999999994  0.11226950000000013  0.84430625  1.0000
  C   C32       1.0  0.4315544499999999  0.03844899999999997  0.72994251  1.0000
  C   C33       1.0  0.37648473999999993  0.86335439  0.7740155700000001  1.0000
  C   C34       1.0  0.43535707999999995  0.65958129  0.5913920800000001  1.0000
  C   C35       1.0  0.3188298499999999  0.6497910399999999  0.5703334900000001  1.0000
  C   C36       1.0  0.28994140999999996  0.53422518  0.5954934900000001  1.0000
  C   C37       1.0  0.37622088  0.4287304399999999  0.6446877700000001  1.0000
  C   C38       1.0  0.4920940299999999  0.43732507000000004  0.66701524  1.0000
  C   C39       1.0  0.5220106799999998  0.5534638700000001  0.63870515  1.0000
  C   C40       1.0  0.46600438999999994  0.78541478  0.56008171  1.0000
  C   C41       1.0  0.17364088999999996  0.52230318  0.5648209500000001  1.0000
  C   C42       1.0  0.5845370299999999  0.3208886700000001  0.71665541  1.0000
  N   N1        1.0  0.20705598999999997  0.08739776  0.52088119  1.0000
  N   N2        1.0  0.06545059000000002  0.12596197  0.65980974  1.0000
  N   N3        1.0  0.03329417  0.02221611000000003  0.66605928  1.0000
  N   N4        1.0  0.73500069  0.9279603399999999  0.71185102  1.0000
  N   N5        1.0  0.76110513  0.98570494  0.84219174  1.0000
  N   N6        1.0  0.7811111600000001  0.8599706699999999  0.8985398300000002  1.0000
  N   N7        1.0  0.5273574199999999  0.06223589999999998  0.29001370000000004  1.0000
  N   N8        1.0  0.6848580199999998  0.97613707  0.19842118000000003  1.0000
  N   N9        1.0  0.72173102  0.08717285999999998  0.16913677000000002  1.0000
  N   N10       1.0  0.7929567699999998  0.9126335000000002  0.47910707  1.0000
  N   N11       1.0  0.9345147999999999  0.8740105  0.34021439  1.0000
  N   N12       1.0  0.96665326  0.9777674300000001  0.33398668  1.0000
  N   N13       1.0  0.26505808  0.07198897000000001  0.28820088  1.0000
  N   N14       1.0  0.23887375  0.01432793999999999  0.15778082000000002  1.0000
  N   N15       1.0  0.21888726  0.14004622  0.10141297  1.0000
  N   N16       1.0  0.47263801999999977  0.9377612200000001  0.7099667  1.0000
  N   N17       1.0  0.31519362999999995  0.023891200000000036  0.80154748  1.0000
  N   N18       1.0  0.2783429999999999  0.9128320300000002  0.83081806  1.0000
  O   O1        1.0  0.42455026  0.21210148000000004  0.41941286000000005  1.0000
  O   O2        1.0  0.61626572  0.12338214000000003  0.48181476  1.0000
  O   O3        1.0  0.9158603399999999  0.38856725  0.4708013  1.0000
  O   O4        1.0  0.84253583  0.5822231899999999  0.42817597  1.0000
  O   O5        1.0  0.4621313  0.78095143  0.23924786000000003  1.0000
  O   O6        1.0  0.30014404999999994  0.6663954600000003  0.29113323  1.0000
  O   O7        1.0  0.5754603699999999  0.7877255200000002  0.58059975  1.0000
  O   O8        1.0  0.38372874999999995  0.8766774100000001  0.51814965  1.0000
  O   O9        1.0  0.08414276999999992  0.6114398300000001  0.5291984100000001  1.0000
  O   O10       1.0  0.15746763000000005  0.41778383999999996  0.57182612  1.0000
  O   O11       1.0  0.53786414  0.21904594999999996  0.7607476400000001  1.0000
  O   O12       1.0  0.6998543500000001  0.33360639  0.7088669500000001  1.0000
