# generated using pymatgen
data_CdH8C14S2N6O
_symmetry_space_group_name_H-M   'P 1'
_cell_length_a   8.08003000
_cell_length_b   9.64376000
_cell_length_c   24.73891000
_cell_angle_alpha   90.00184000
_cell_angle_beta   89.62660000
_cell_angle_gamma   89.99774000
_symmetry_Int_Tables_number   1
_chemical_formula_structural   CdH8C14S2N6O
_chemical_formula_sum   'Cd4 H32 C56 S8 N24 O4'
_cell_volume   1927.66119264
_cell_formula_units_Z   4
loop_
 _symmetry_equiv_pos_site_id
 _symmetry_equiv_pos_as_xyz
  1  'x, y, z'
loop_
 _atom_site_type_symbol
 _atom_site_label
 _atom_site_symmetry_multiplicity
 _atom_site_fract_x
 _atom_site_fract_y
 _atom_site_fract_z
 _atom_site_occupancy
  Cd  Cd1  1  0.74378000  0.24615000  0.75631000  1.0
  Cd  Cd2  1  0.25622000  0.74614000  0.74369000  1.0
  Cd  Cd3  1  0.25623000  0.75386000  0.24369000  1.0
  Cd  Cd4  1  0.74377000  0.25385000  0.25632000  1.0
  H  H1  1  0.67932000  0.51537000  0.68526000  1.0
  H  H2  1  0.52564000  0.60656000  0.60521000  1.0
  H  H3  1  0.31179000  0.19872000  0.58667000  1.0
  H  H4  1  0.47412000  0.12453000  0.66709000  1.0
  H  H5  1  0.02397000  0.61661000  0.39599000  1.0
  H  H6  1  0.86088000  0.52794000  0.31746000  1.0
  H  H7  1  0.96214000  0.11947000  0.35782000  1.0
  H  H8  1  0.12752000  0.19036000  0.43811000  1.0
  H  H9  1  0.32067000  0.01536000  0.81474000  1.0
  H  H10  1  0.47434000  0.10656000  0.89480000  1.0
  H  H11  1  0.68821000  0.69871000  0.91334000  1.0
  H  H12  1  0.52588000  0.62451000  0.83292000  1.0
  H  H13  1  0.97604000  0.11661000  0.10401000  1.0
  H  H14  1  0.13911000  0.02794000  0.18255000  1.0
  H  H15  1  0.03783000  0.61948000  0.14219000  1.0
  H  H16  1  0.87246000  0.69036000  0.06189000  1.0
  H  H17  1  0.32067000  0.48464000  0.31474000  1.0
  H  H18  1  0.47434000  0.39345000  0.39480000  1.0
  H  H19  1  0.68820000  0.80128000  0.41333000  1.0
  H  H20  1  0.52589000  0.87547000  0.33291000  1.0
  H  H21  1  0.97602000  0.38340000  0.60401000  1.0
  H  H22  1  0.13910000  0.47206000  0.68255000  1.0
  H  H23  1  0.03784000  0.88053000  0.64219000  1.0
  H  H24  1  0.87246000  0.80964000  0.56189000  1.0
  H  H25  1  0.67933000  0.98465000  0.18526000  1.0
  H  H26  1  0.52565000  0.89345000  0.10521000  1.0
  H  H27  1  0.31178000  0.30129000  0.08667000  1.0
  H  H28  1  0.47412000  0.37549000  0.16708000  1.0
  H  H29  1  0.02395000  0.88340000  0.89599000  1.0
  H  H30  1  0.86088000  0.97206000  0.81746000  1.0
  H  H31  1  0.96216000  0.38053000  0.85781000  1.0
  H  H32  1  0.12752000  0.30965000  0.93811000  1.0
  C  C1  1  0.59864000  0.44859000  0.66169000  1.0
  C  C2  1  0.51262000  0.49910000  0.61762000  1.0
  C  C3  1  0.40953000  0.40898000  0.58892000  1.0
  C  C4  1  0.39344000  0.27154000  0.60675000  1.0
  C  C5  1  0.48409000  0.22982000  0.65161000  1.0
  C  C6  1  0.32342000  0.46248000  0.54211000  1.0
  C  C7  1  0.18021000  0.46320000  0.46932000  1.0
  C  C8  1  0.08715000  0.41051000  0.42372000  1.0
  C  C9  1  0.01231000  0.50590000  0.38877000  1.0
  C  C10  1  0.92180000  0.45692000  0.34522000  1.0
  C  C11  1  0.97725000  0.22858000  0.36801000  1.0
  C  C12  1  0.07001000  0.26844000  0.41270000  1.0
  C  C13  1  0.09533000  0.06445000  0.71547000  1.0
  C  C14  1  0.38836000  0.42987000  0.78083000  1.0
  C  C15  1  0.40135000  0.94858000  0.83831000  1.0
  C  C16  1  0.48737000  0.99909000  0.88239000  1.0
  C  C17  1  0.59046000  0.90897000  0.91108000  1.0
  C  C18  1  0.60655000  0.77153000  0.89325000  1.0
  C  C19  1  0.51591000  0.72980000  0.84840000  1.0
  C  C20  1  0.67657000  0.96248000  0.95790000  1.0
  C  C21  1  0.81978000  0.96321000  0.03069000  1.0
  C  C22  1  0.91284000  0.91051000  0.07628000  1.0
  C  C23  1  0.98769000  0.00591000  0.11123000  1.0
  C  C24  1  0.07819000  0.95692000  0.15478000  1.0
  C  C25  1  0.02273000  0.72858000  0.13200000  1.0
  C  C26  1  0.92997000  0.76845000  0.08730000  1.0
  C  C27  1  0.90467000  0.56448000  0.78454000  1.0
  C  C28  1  0.61158000  0.92985000  0.71917000  1.0
  C  C29  1  0.40135000  0.55142000  0.33831000  1.0
  C  C30  1  0.48737000  0.50090000  0.38239000  1.0
  C  C31  1  0.59047000  0.59102000  0.41108000  1.0
  C  C32  1  0.60655000  0.72846000  0.39325000  1.0
  C  C33  1  0.51591000  0.77019000  0.34839000  1.0
  C  C34  1  0.67657000  0.53752000  0.45790000  1.0
  C  C35  1  0.81978000  0.53680000  0.53069000  1.0
  C  C36  1  0.91284000  0.58949000  0.57628000  1.0
  C  C37  1  0.98768000  0.49410000  0.61123000  1.0
  C  C38  1  0.07819000  0.54308000  0.65478000  1.0
  C  C39  1  0.02273000  0.77142000  0.63200000  1.0
  C  C40  1  0.92997000  0.73156000  0.58730000  1.0
  C  C41  1  0.90467000  0.93554000  0.28454000  1.0
  C  C42  1  0.61162000  0.57015000  0.21917000  1.0
  C  C43  1  0.59865000  0.05143000  0.16169000  1.0
  C  C44  1  0.51263000  0.00092000  0.11761000  1.0
  C  C45  1  0.40953000  0.09103000  0.08892000  1.0
  C  C46  1  0.39345000  0.22847000  0.10675000  1.0
  C  C47  1  0.48409000  0.27020000  0.15161000  1.0
  C  C48  1  0.32342000  0.03753000  0.04210000  1.0
  C  C49  1  0.18021000  0.03680000  0.96932000  1.0
  C  C50  1  0.08715000  0.08949000  0.92372000  1.0
  C  C51  1  0.01231000  0.99410000  0.88877000  1.0
  C  C52  1  0.92180000  0.04308000  0.84522000  1.0
  C  C53  1  0.97727000  0.27142000  0.86801000  1.0
  C  C54  1  0.07002000  0.23156000  0.91270000  1.0
  C  C55  1  0.09534000  0.43553000  0.21548000  1.0
  C  C56  1  0.38840000  0.07014000  0.28082000  1.0
  S  S1  1  0.99842000  0.18876000  0.68398000  1.0
  S  S2  1  0.47253000  0.31292000  0.81985000  1.0
  S  S3  1  0.00154000  0.68880000  0.81602000  1.0
  S  S4  1  0.52747000  0.81289000  0.68017000  1.0
  S  S5  1  0.00159000  0.81126000  0.31604000  1.0
  S  S6  1  0.52748000  0.68709000  0.18016000  1.0
  S  S7  1  0.99848000  0.31117000  0.18401000  1.0
  S  S8  1  0.47251000  0.18711000  0.31984000  1.0
  N  N1  1  0.58704000  0.31570000  0.67805000  1.0
  N  N2  1  0.31309000  0.59218000  0.52625000  1.0
  N  N3  1  0.22021000  0.59270000  0.47928000  1.0
  N  N4  1  0.90307000  0.32053000  0.33501000  1.0
  N  N5  1  0.16816000  0.97448000  0.73782000  1.0
  N  N6  1  0.32695000  0.51451000  0.75248000  1.0
  N  N7  1  0.41296000  0.81568000  0.82196000  1.0
  N  N8  1  0.68690000  0.09217000  0.97375000  1.0
  N  N9  1  0.77979000  0.09270000  0.02073000  1.0
  N  N10  1  0.09691000  0.82053000  0.16500000  1.0
  N  N11  1  0.83181000  0.47447000  0.76218000  1.0
  N  N12  1  0.67301000  0.01456000  0.74753000  1.0
  N  N13  1  0.41296000  0.68431000  0.32196000  1.0
  N  N14  1  0.68690000  0.40783000  0.47375000  1.0
  N  N15  1  0.77978000  0.40730000  0.52073000  1.0
  N  N16  1  0.09691000  0.67947000  0.66499000  1.0
  N  N17  1  0.83180000  0.02550000  0.26219000  1.0
  N  N18  1  0.67306000  0.48546000  0.24752000  1.0
  N  N19  1  0.58704000  0.18432000  0.17804000  1.0
  N  N20  1  0.31309000  0.90783000  0.02625000  1.0
  N  N21  1  0.22020000  0.90730000  0.97928000  1.0
  N  N22  1  0.90308000  0.17948000  0.83501000  1.0
  N  N23  1  0.16816000  0.52554000  0.23782000  1.0
  N  N24  1  0.32700000  0.98546000  0.25247000  1.0
  O  O1  1  0.24149000  0.37416000  0.50777000  1.0
  O  O2  1  0.75849000  0.87416000  0.99224000  1.0
  O  O3  1  0.75851000  0.62584000  0.49223000  1.0
  O  O4  1  0.24152000  0.12585000  0.00777000  1.0
