# generated using pymatgen
data_PrC12(OF)6
_symmetry_space_group_name_H-M   'P 1'
_cell_length_a   7.90500000
_cell_length_b   10.21200000
_cell_length_c   21.28800000
_cell_angle_alpha   90.00000000
_cell_angle_beta   90.00000000
_cell_angle_gamma   98.85100000
_symmetry_Int_Tables_number   1
_chemical_formula_structural   PrC12(OF)6
_chemical_formula_sum   'Pr4 C48 O24 F24'
_cell_volume   1698.02798495
_cell_formula_units_Z   4
loop_
 _symmetry_equiv_pos_site_id
 _symmetry_equiv_pos_as_xyz
  1  'x, y, z'
loop_
 _atom_site_type_symbol
 _atom_site_label
 _atom_site_symmetry_multiplicity
 _atom_site_fract_x
 _atom_site_fract_y
 _atom_site_fract_z
 _atom_site_occupancy
  Pr  Pr1  1  0.00493000  0.01055000  0.21505000  1.0
  Pr  Pr2  1  0.49507000  0.98945000  0.71505000  1.0
  Pr  Pr3  1  0.99507000  0.98945000  0.78495000  1.0
  Pr  Pr4  1  0.50493000  0.01055000  0.28495000  1.0
  C  C1  1  0.16170000  0.76910000  0.21670000  1.0
  C  C2  1  0.35700000  0.25290000  0.27200000  1.0
  C  C3  1  0.21160000  0.63630000  0.23010000  1.0
  C  C4  1  0.25030000  0.55200000  0.18290000  1.0
  C  C5  1  0.56670000  0.00030000  0.06020000  1.0
  C  C6  1  0.30600000  0.38740000  0.25660000  1.0
  C  C7  1  0.63640000  0.00070000  0.12720000  1.0
  C  C8  1  0.29480000  0.43100000  0.19630000  1.0
  C  C9  1  0.22160000  0.59110000  0.29200000  1.0
  C  C10  1  0.55780000  0.11750000  0.02960000  1.0
  C  C11  1  0.50840000  0.88310000  0.02990000  1.0
  C  C12  1  0.26760000  0.47060000  0.30360000  1.0
  C  C13  1  0.33830000  0.23090000  0.71670000  1.0
  C  C14  1  0.14300000  0.74710000  0.77200000  1.0
  C  C15  1  0.28840000  0.36370000  0.73010000  1.0
  C  C16  1  0.24970000  0.44800000  0.68290000  1.0
  C  C17  1  0.93330000  0.99970000  0.56020000  1.0
  C  C18  1  0.19400000  0.61260000  0.75660000  1.0
  C  C19  1  0.86360000  0.99930000  0.62720000  1.0
  C  C20  1  0.20520000  0.56900000  0.69630000  1.0
  C  C21  1  0.27840000  0.40890000  0.79200000  1.0
  C  C22  1  0.94220000  0.88250000  0.52960000  1.0
  C  C23  1  0.99160000  0.11690000  0.52990000  1.0
  C  C24  1  0.23240000  0.52940000  0.80360000  1.0
  C  C25  1  0.83830000  0.23090000  0.78330000  1.0
  C  C26  1  0.64300000  0.74710000  0.72800000  1.0
  C  C27  1  0.78840000  0.36370000  0.76990000  1.0
  C  C28  1  0.74970000  0.44800000  0.81710000  1.0
  C  C29  1  0.43330000  0.99970000  0.93980000  1.0
  C  C30  1  0.69400000  0.61260000  0.74340000  1.0
  C  C31  1  0.36360000  0.99930000  0.87280000  1.0
  C  C32  1  0.70520000  0.56900000  0.80370000  1.0
  C  C33  1  0.77840000  0.40890000  0.70800000  1.0
  C  C34  1  0.44220000  0.88250000  0.97040000  1.0
  C  C35  1  0.49160000  0.11690000  0.97010000  1.0
  C  C36  1  0.73240000  0.52940000  0.69640000  1.0
  C  C37  1  0.66170000  0.76910000  0.28330000  1.0
  C  C38  1  0.85700000  0.25290000  0.22800000  1.0
  C  C39  1  0.71160000  0.63630000  0.26990000  1.0
  C  C40  1  0.75030000  0.55200000  0.31710000  1.0
  C  C41  1  0.06670000  0.00030000  0.43980000  1.0
  C  C42  1  0.80600000  0.38740000  0.24340000  1.0
  C  C43  1  0.13640000  0.00070000  0.37280000  1.0
  C  C44  1  0.79480000  0.43100000  0.30370000  1.0
  C  C45  1  0.72160000  0.59110000  0.20800000  1.0
  C  C46  1  0.05780000  0.11750000  0.47040000  1.0
  C  C47  1  0.00840000  0.88310000  0.47010000  1.0
  C  C48  1  0.76760000  0.47060000  0.19640000  1.0
  O  O1  1  0.24850000  0.87090000  0.24050000  1.0
  O  O2  1  0.47030000  0.24640000  0.31010000  1.0
  O  O3  1  0.03380000  0.77550000  0.18380000  1.0
  O  O4  1  0.28290000  0.15220000  0.24200000  1.0
  O  O5  1  0.79110000  0.98980000  0.13280000  1.0
  O  O6  1  0.53070000  0.01450000  0.16980000  1.0
  O  O7  1  0.25150000  0.12910000  0.74050000  1.0
  O  O8  1  0.02970000  0.75360000  0.81010000  1.0
  O  O9  1  0.46620000  0.22450000  0.68380000  1.0
  O  O10  1  0.21710000  0.84780000  0.74200000  1.0
  O  O11  1  0.70890000  0.01020000  0.63280000  1.0
  O  O12  1  0.96930000  0.98550000  0.66980000  1.0
  O  O13  1  0.75150000  0.12910000  0.75950000  1.0
  O  O14  1  0.52970000  0.75360000  0.68990000  1.0
  O  O15  1  0.96620000  0.22450000  0.81620000  1.0
  O  O16  1  0.71710000  0.84780000  0.75800000  1.0
  O  O17  1  0.20890000  0.01020000  0.86720000  1.0
  O  O18  1  0.46930000  0.98550000  0.83020000  1.0
  O  O19  1  0.74850000  0.87090000  0.25950000  1.0
  O  O20  1  0.97030000  0.24640000  0.18990000  1.0
  O  O21  1  0.53380000  0.77550000  0.31620000  1.0
  O  O22  1  0.78290000  0.15220000  0.25800000  1.0
  O  O23  1  0.29110000  0.98980000  0.36720000  1.0
  O  O24  1  0.03070000  0.01450000  0.33020000  1.0
  F  F1  1  0.24160000  0.58940000  0.12270000  1.0
  F  F2  1  0.17750000  0.66600000  0.33880000  1.0
  F  F3  1  0.27250000  0.43190000  0.36440000  1.0
  F  F4  1  0.33780000  0.35630000  0.14780000  1.0
  F  F5  1  0.61230000  0.23020000  0.05900000  1.0
  F  F6  1  0.51550000  0.76930000  0.05920000  1.0
  F  F7  1  0.25840000  0.41060000  0.62270000  1.0
  F  F8  1  0.32250000  0.33400000  0.83880000  1.0
  F  F9  1  0.22750000  0.56810000  0.86440000  1.0
  F  F10  1  0.16220000  0.64370000  0.64780000  1.0
  F  F11  1  0.88770000  0.76980000  0.55900000  1.0
  F  F12  1  0.98450000  0.23070000  0.55920000  1.0
  F  F13  1  0.75840000  0.41060000  0.87730000  1.0
  F  F14  1  0.82250000  0.33400000  0.66120000  1.0
  F  F15  1  0.72750000  0.56810000  0.63560000  1.0
  F  F16  1  0.66220000  0.64370000  0.85220000  1.0
  F  F17  1  0.38770000  0.76980000  0.94100000  1.0
  F  F18  1  0.48450000  0.23070000  0.94080000  1.0
  F  F19  1  0.74160000  0.58940000  0.37730000  1.0
  F  F20  1  0.67750000  0.66600000  0.16120000  1.0
  F  F21  1  0.77250000  0.43190000  0.13560000  1.0
  F  F22  1  0.83780000  0.35630000  0.35220000  1.0
  F  F23  1  0.11230000  0.23020000  0.44100000  1.0
  F  F24  1  0.01550000  0.76930000  0.44080000  1.0
