# generated using pymatgen
data_MnPH4C3NO3
_symmetry_space_group_name_H-M   'P 1'
_cell_length_a   5.02212000
_cell_length_b   18.47915000
_cell_length_c   18.78785000
_cell_angle_alpha   64.26060000
_cell_angle_beta   85.63125000
_cell_angle_gamma   89.29069000
_symmetry_Int_Tables_number   1
_chemical_formula_structural   MnPH4C3NO3
_chemical_formula_sum   'Mn6 P6 H24 C18 N6 O18'
_cell_volume   1565.61554746
_cell_formula_units_Z   6
loop_
 _symmetry_equiv_pos_site_id
 _symmetry_equiv_pos_as_xyz
  1  'x, y, z'
loop_
 _atom_site_type_symbol
 _atom_site_label
 _atom_site_symmetry_multiplicity
 _atom_site_fract_x
 _atom_site_fract_y
 _atom_site_fract_z
 _atom_site_occupancy
  Mn  Mn0  1  0.25907000  0.24614000  0.45437000  1
  Mn  Mn1  1  0.87311000  0.27517000  0.30635000  1
  Mn  Mn2  1  0.40776000  0.41067000  0.26786000  1
  Mn  Mn3  1  0.88634000  0.62166000  0.64510000  1
  Mn  Mn4  1  0.26836000  0.80094000  0.57807000  1
  Mn  Mn5  1  0.41276000  0.63280000  0.74636000  1
  P  P6  1  0.95288000  0.47430000  0.20190000  1
  P  P7  1  0.68022000  0.32730000  0.45254000  1
  P  P8  1  0.38629000  0.19284000  0.32742000  1
  P  P9  1  0.87415000  0.52066000  0.80823000  1
  P  P10  1  0.41484000  0.66785000  0.53332000  1
  P  P11  1  0.72790000  0.80933000  0.64640000  1
  H  H12  1  0.75609000  0.47303000  0.06232000  1
  H  H13  1  0.58423000  0.37835000  0.10701000  1
  H  H14  1  0.10786000  0.57902000  0.04856000  1
  H  H15  1  0.45930000  0.59653000  0.02377000  1
  H  H16  1  0.43366000  0.47401000  0.45896000  1
  H  H17  1  0.22336000  0.50119000  0.37930000  1
  H  H18  1  0.88222000  0.35666000  0.60752000  1
  H  H19  1  0.20370000  0.40272000  0.59712000  1
  H  H20  1  0.77517000  0.01173000  0.56634000  1
  H  H21  1  0.55496000  0.08523000  0.57746000  1
  H  H22  1  0.67691000  0.07236000  0.35946000  1
  H  H23  1  0.83134000  0.00250000  0.44466000  1
  H  H24  1  0.24191000  0.62332000  0.90091000  1
  H  H25  1  0.07211000  0.52786000  0.94631000  1
  H  H26  1  0.37411000  0.40496000  0.98312000  1
  H  H27  1  0.72605000  0.42368000  0.95875000  1
  H  H28  1  0.84211000  0.47760000  0.63701000  1
  H  H29  1  0.68570000  0.49719000  0.54777000  1
  H  H30  1  0.96631000  0.59217000  0.41802000  1
  H  H31  1  0.30802000  0.61202000  0.42716000  1
  H  H32  1  0.43051000  0.93580000  0.41992000  1
  H  H33  1  0.21831000  0.01101000  0.42964000  1
  H  H34  1  0.15691000  0.01264000  0.56255000  1
  H  H35  1  0.33907000  0.94255000  0.64142000  1
  C  C36  1  0.23223000  0.44239000  0.16006000  1
  C  C37  1  0.57184000  0.44054000  0.06217000  1
  C  C38  1  0.28821000  0.55857000  0.02674000  1
  C  C39  1  0.83476000  0.40688000  0.45879000  1
  C  C40  1  0.22786000  0.49081000  0.44121000  1
  C  C41  1  0.00671000  0.41075000  0.57328000  1
  C  C42  1  0.45945000  0.15671000  0.43034000  1
  C  C43  1  0.58044000  0.04313000  0.55068000  1
  C  C44  1  0.64351000  0.03581000  0.42359000  1
  C  C45  1  0.58830000  0.55659000  0.84729000  1
  C  C46  1  0.25494000  0.56104000  0.94567000  1
  C  C47  1  0.54379000  0.44296000  0.98098000  1
  C  C48  1  0.12357000  0.60210000  0.56231000  1
  C  C49  1  0.87744000  0.48470000  0.57592000  1
  C  C50  1  0.14510000  0.56690000  0.44967000  1
  C  C51  1  0.56099000  0.86636000  0.56159000  1
  C  C52  1  0.40635000  0.97724000  0.44752000  1
  C  C53  1  0.35230000  0.98123000  0.57748000  1
  N  N54  1  0.34075000  0.47631000  0.08609000  1
  N  N55  1  0.04959000  0.42156000  0.49072000  1
  N  N56  1  0.58520000  0.08886000  0.46352000  1
  N  N57  1  0.48453000  0.52465000  0.92064000  1
  N  N58  1  0.06628000  0.55289000  0.53227000  1
  N  N59  1  0.38596000  0.92950000  0.53509000  1
  O  O60  1  0.77478000  0.54218000  0.15778000  1
  O  O61  1  0.09173000  0.47348000  0.27418000  1
  O  O62  1  0.77586000  0.39125000  0.23586000  1
  O  O63  1  0.50693000  0.27278000  0.52799000  1
  O  O64  1  0.88076000  0.27246000  0.42822000  1
  O  O65  1  0.48151000  0.36325000  0.38604000  1
  O  O66  1  0.17287000  0.13470000  0.33078000  1
  O  O67  1  0.64176000  0.21100000  0.27130000  1
  O  O68  1  0.26635000  0.27754000  0.31389000  1
  O  O69  1  0.04016000  0.45823000  0.86600000  1
  O  O70  1  0.74754000  0.50852000  0.74171000  1
  O  O71  1  0.02548000  0.60752000  0.75898000  1
  O  O72  1  0.62608000  0.65686000  0.47852000  1
  O  O73  1  0.30598000  0.75480000  0.50545000  1
  O  O74  1  0.49428000  0.63991000  0.62234000  1
  O  O75  1  0.88017000  0.85336000  0.68101000  1
  O  O76  1  0.48031000  0.75303000  0.69641000  1
  O  O77  1  0.90728000  0.75638000  0.61457000  1
