# generated using pymatgen
data_NiH29C32N7O2
_symmetry_space_group_name_H-M   'P 1'
_cell_length_a   8.59763000
_cell_length_b   14.69720000
_cell_length_c   15.70362430
_cell_angle_alpha   62.32482153
_cell_angle_beta   75.54559073
_cell_angle_gamma   89.99864000
_symmetry_Int_Tables_number   1
_chemical_formula_structural   NiH29C32N7O2
_chemical_formula_sum   'Ni2 H58 C64 N14 O4'
_cell_volume   1686.06966306
_cell_formula_units_Z   2
loop_
 _symmetry_equiv_pos_site_id
 _symmetry_equiv_pos_as_xyz
  1  'x, y, z'
loop_
 _atom_site_type_symbol
 _atom_site_label
 _atom_site_symmetry_multiplicity
 _atom_site_fract_x
 _atom_site_fract_y
 _atom_site_fract_z
 _atom_site_occupancy
  Ni  Ni0  1  0.49643000  0.23014000  0.43597000  1
  Ni  Ni1  1  0.49638000  0.66240000  0.56596000  1
  H  H2  1  0.65917000  0.04145000  0.52613000  1
  H  H3  1  0.62110000  0.92577000  0.73212000  1
  H  H4  1  0.27998000  0.14039000  0.67675000  1
  H  H5  1  0.72586000  0.22328000  0.57576000  1
  H  H6  1  0.94179000  0.39910000  0.50544000  1
  H  H7  1  0.62881000  0.46255000  0.31969000  1
  H  H8  1  0.43755000  0.08150000  0.35874000  1
  H  H9  1  0.97391000  0.18037000  0.34408000  1
  H  H10  1  0.11958000  0.26860000  0.43186000  1
  H  H11  1  0.31105000  0.13586000  0.82418000  1
  H  H12  1  0.16725000  0.06936000  0.00326000  1
  H  H13  1  0.27800000  0.76291000  0.06446000  1
  H  H14  1  0.41100000  0.82777000  0.88427000  1
  H  H15  1  0.40276000  0.94549000  0.15589000  1
  H  H16  1  0.43646000  0.05024000  0.23768000  1
  H  H17  1  0.91694000  0.05350000  0.31737000  1
  H  H18  1  0.88864000  0.94835000  0.23510000  1
  H  H19  1  0.09565000  0.75550000  0.34456000  1
  H  H20  1  0.95556000  0.57741000  0.45209000  1
  H  H21  1  0.83869000  0.58129000  0.19873000  1
  H  H22  1  0.96674000  0.76323000  0.09334000  1
  H  H23  1  0.92991000  0.34218000  0.16590000  1
  H  H24  1  0.91565000  0.22155000  0.16681000  1
  H  H25  1  0.86877000  0.36636000  0.01113000  1
  H  H26  1  0.70567000  0.39396000  0.08533000  1
  H  H27  1  0.71627000  0.18409000  0.08858000  1
  H  H28  1  0.55263000  0.22307000  0.14983000  1
  H  H29  1  0.64027000  0.26060000  0.94131000  1
  H  H30  1  0.63956000  0.37966000  0.94054000  1
  H  H31  1  0.33972000  0.56443000  0.47179000  1
  H  H32  1  0.37938000  0.65725000  0.26549000  1
  H  H33  1  0.71513000  0.81475000  0.32632000  1
  H  H34  1  0.27094000  0.79679000  0.42429000  1
  H  H35  1  0.05868000  0.90572000  0.49290000  1
  H  H36  1  0.36425000  0.77787000  0.68262000  1
  H  H37  1  0.55755000  0.43664000  0.64277000  1
  H  H38  1  0.02038000  0.52305000  0.65669000  1
  H  H39  1  0.87229000  0.69759000  0.57003000  1
  H  H40  1  0.68556000  0.95853000  0.17850000  1
  H  H41  1  0.82990000  0.07155000  0.99975000  1
  H  H42  1  0.72248000  0.82798000  0.93495000  1
  H  H43  1  0.58922000  0.71235000  0.11468000  1
  H  H44  1  0.59569000  0.09989000  0.84558000  1
  H  H45  1  0.56010000  0.28557000  0.76375000  1
  H  H46  1  0.07886000  0.37006000  0.68437000  1
  H  H47  1  0.10904000  0.18364000  0.76700000  1
  H  H48  1  0.90474000  0.10013000  0.65631000  1
  H  H49  1  0.04378000  0.02919000  0.54830000  1
  H  H50  1  0.15950000  0.78008000  0.80122000  1
  H  H51  1  0.03280000  0.85701000  0.90705000  1
  H  H52  1  0.06306000  0.50263000  0.83745000  1
  H  H53  1  0.07974000  0.38287000  0.83681000  1
  H  H54  1  0.12801000  0.37436000  0.99107000  1
  H  H55  1  0.28885000  0.47701000  0.91675000  1
  H  H56  1  0.28293000  0.27056000  0.91283000  1
  H  H57  1  0.44494000  0.37142000  0.85148000  1
  H  H58  1  0.35823000  0.20193000  0.06028000  1
  H  H59  1  0.35949000  0.32057000  0.06034000  1
  C  C60  1  0.57489000  0.04348000  0.58920000  1
  C  C61  1  0.55628000  0.98597000  0.69033000  1
  C  C62  1  0.38093000  0.10084000  0.66251000  1
  C  C63  1  0.73726000  0.29935000  0.51220000  1
  C  C64  1  0.84472000  0.38592000  0.47845000  1
  C  C65  1  0.68331000  0.42033000  0.37946000  1
  C  C66  1  0.33251000  0.12061000  0.36607000  1
  C  C67  1  0.09087000  0.17441000  0.35907000  1
  C  C68  1  0.16474000  0.21676000  0.40297000  1
  C  C69  1  0.71957000  0.23665000  0.27280000  1
  C  C70  1  0.36607000  0.98571000  0.84130000  1
  C  C71  1  0.29926000  0.05351000  0.87629000  1
  C  C72  1  0.21989000  0.01639000  0.97716000  1
  C  C73  1  0.20832000  0.91075000  0.04652000  1
  C  C74  1  0.28269000  0.84415000  0.01155000  1
  C  C75  1  0.35892000  0.88089000  0.91031000  1
  C  C76  1  0.14287000  0.93762000  0.19292000  1
  C  C77  1  0.29733000  0.96793000  0.19284000  1
  C  C78  1  0.31575000  0.02655000  0.23904000  1
  C  C79  1  0.17913000  0.05582000  0.28606000  1
  C  C80  1  0.02407000  0.02779000  0.28486000  1
  C  C81  1  0.00764000  0.96913000  0.23804000  1
  C  C82  1  0.04416000  0.77202000  0.21037000  1
  C  C83  1  0.03911000  0.71773000  0.31248000  1
  C  C84  1  0.96122000  0.61649000  0.37306000  1
  C  C85  1  0.88940000  0.56617000  0.33265000  1
  C  C86  1  0.89322000  0.61975000  0.23105000  1
  C  C87  1  0.96757000  0.72167000  0.17124000  1
  C  C88  1  0.84550000  0.28283000  0.17016000  1
  C  C89  1  0.77135000  0.33104000  0.08202000  1
  C  C90  1  0.65524000  0.25195000  0.08177000  1
  C  C91  1  0.59207000  0.29683000  0.98809000  1
  C  C92  1  0.42343000  0.63017000  0.40984000  1
  C  C93  1  0.44279000  0.67494000  0.30850000  1
  C  C94  1  0.61523000  0.76115000  0.33915000  1
  C  C95  1  0.25897000  0.80927000  0.48817000  1
  C  C96  1  0.15348000  0.86383000  0.52108000  1
  C  C97  1  0.31089000  0.79640000  0.62215000  1
  C  C98  1  0.66172000  0.48356000  0.63565000  1
  C  C99  1  0.90301000  0.53149000  0.64224000  1
  C  C100  1  0.82802000  0.61696000  0.59880000  1
  C  C101  1  0.27256000  0.50567000  0.72888000  1
  C  C102  1  0.63212000  0.82638000  0.15950000  1
  C  C103  1  0.69816000  0.92879000  0.12566000  1
  C  C104  1  0.77785000  0.99278000  0.02498000  1
  C  C105  1  0.79059000  0.95711000  0.95468000  1
  C  C106  1  0.71692000  0.85592000  0.98853000  1
  C  C107  1  0.64047000  0.79123000  0.08953000  1
  C  C108  1  0.85533000  0.12992000  0.80886000  1
  C  C109  1  0.70051000  0.15943000  0.80878000  1
  C  C110  1  0.68104000  0.26373000  0.76244000  1
  C  C111  1  0.81689000  0.34020000  0.71529000  1
  C  C112  1  0.97225000  0.31170000  0.71673000  1
  C  C113  1  0.98974000  0.20676000  0.76388000  1
  C  C114  1  0.95533000  0.98251000  0.79044000  1
  C  C115  1  0.96073000  0.03025000  0.68825000  1
  C  C116  1  0.03810000  0.98935000  0.62734000  1
  C  C117  1  0.10884000  0.89843000  0.66755000  1
  C  C118  1  0.10539000  0.85083000  0.76910000  1
  C  C119  1  0.03177000  0.89320000  0.82918000  1
  C  C120  1  0.14896000  0.44847000  0.83244000  1
  C  C121  1  0.22473000  0.41040000  0.91987000  1
  C  C122  1  0.34267000  0.33212000  0.91961000  1
  C  C123  1  0.40642000  0.28455000  0.01307000  1
  N  N124  1  0.46490000  0.11473000  0.57285000  1
  N  N125  1  0.43313000  0.02304000  0.73713000  1
  N  N126  1  0.63723000  0.32113000  0.44980000  1
  N  N127  1  0.81044000  0.46290000  0.39356000  1
  N  N128  1  0.31500000  0.18285000  0.40680000  1
  N  N129  1  0.19929000  0.11365000  0.33481000  1
  N  N130  1  0.12507000  0.87425000  0.14839000  1
  N  N131  1  0.53150000  0.68454000  0.42801000  1
  N  N132  1  0.56456000  0.75901000  0.26337000  1
  N  N133  1  0.35650000  0.76700000  0.55184000  1
  N  N134  1  0.18652000  0.85521000  0.60675000  1
  N  N135  1  0.67795000  0.58619000  0.59524000  1
  N  N136  1  0.79554000  0.44624000  0.66651000  1
  N  N137  1  0.87446000  0.02255000  0.85304000  1
  O  O138  1  0.62173000  0.29801000  0.28661000  1
  O  O139  1  0.71971000  0.14380000  0.33752000  1
  O  O140  1  0.37020000  0.58069000  0.71525000  1
  O  O141  1  0.27065000  0.47852000  0.66335000  1
