# generated using pymatgen
data_Zn4H6C18O13
_symmetry_space_group_name_H-M   'P 1'
_cell_length_a   10.63990000
_cell_length_b   10.63993000
_cell_length_c   16.03267000
_cell_angle_alpha   90.00000000
_cell_angle_beta   90.00000000
_cell_angle_gamma   106.30563000
_symmetry_Int_Tables_number   1
_chemical_formula_structural   Zn4H6C18O13
_chemical_formula_sum   'Zn8 H12 C36 O26'
_cell_volume   1742.01876724
_cell_formula_units_Z   2
loop_
 _symmetry_equiv_pos_site_id
 _symmetry_equiv_pos_as_xyz
  1  'x, y, z'
loop_
 _atom_site_type_symbol
 _atom_site_label
 _atom_site_symmetry_multiplicity
 _atom_site_fract_x
 _atom_site_fract_y
 _atom_site_fract_z
 _atom_site_occupancy
  Zn  Zn0  1  0.12366000  0.23519000  0.91786000  1
  Zn  Zn1  1  0.40908000  0.22032000  0.94378000  1
  Zn  Zn2  1  0.87634000  0.76481000  0.41786000  1
  Zn  Zn3  1  0.59092000  0.77968000  0.44378000  1
  Zn  Zn4  1  0.76481000  0.87635000  0.58215000  1
  Zn  Zn5  1  0.77968000  0.59092000  0.55622000  1
  Zn  Zn6  1  0.23519000  0.12366000  0.08215000  1
  Zn  Zn7  1  0.22032000  0.40908000  0.05623000  1
  H  H8  1  0.51414000  0.07441000  0.71098000  1
  H  H9  1  0.24649000  0.82238000  0.53920000  1
  H  H10  1  0.11074000  0.07905000  0.70114000  1
  H  H11  1  0.48585000  0.92559000  0.21098000  1
  H  H12  1  0.75350000  0.17762000  0.03920000  1
  H  H13  1  0.88926000  0.92096000  0.20114000  1
  H  H14  1  0.92559000  0.48585000  0.78902000  1
  H  H15  1  0.17761000  0.75350000  0.96080000  1
  H  H16  1  0.92095000  0.88927000  0.79886000  1
  H  H17  1  0.07441000  0.51415000  0.28903000  1
  H  H18  1  0.82238000  0.24650000  0.46081000  1
  H  H19  1  0.07904000  0.11074000  0.29886000  1
  C  C20  1  0.31438000  0.08757000  0.71304000  1
  C  C21  1  0.41686000  0.04003000  0.68377000  1
  C  C22  1  0.39302000  0.94687000  0.61949000  1
  C  C23  1  0.26611000  0.89740000  0.58725000  1
  C  C24  1  0.16429000  0.94427000  0.61648000  1
  C  C25  1  0.18929000  0.04151000  0.67814000  1
  C  C26  1  0.33135000  0.17675000  0.78686000  1
  C  C27  1  0.50032000  0.89857000  0.58390000  1
  C  C28  1  0.02821000  0.88960000  0.58384000  1
  C  C29  1  0.68561000  0.91243000  0.21304000  1
  C  C30  1  0.58314000  0.95998000  0.18377000  1
  C  C31  1  0.60698000  0.05313000  0.11950000  1
  C  C32  1  0.73388000  0.10261000  0.08726000  1
  C  C33  1  0.83570000  0.05573000  0.11648000  1
  C  C34  1  0.81071000  0.95849000  0.17814000  1
  C  C35  1  0.66865000  0.82325000  0.28686000  1
  C  C36  1  0.49967000  0.10143000  0.08390000  1
  C  C37  1  0.97179000  0.11040000  0.08384000  1
  C  C38  1  0.91243000  0.68561000  0.78696000  1
  C  C39  1  0.95997000  0.58314000  0.81624000  1
  C  C40  1  0.05312000  0.60697000  0.88051000  1
  C  C41  1  0.10261000  0.73389000  0.91275000  1
  C  C42  1  0.05573000  0.83571000  0.88352000  1
  C  C43  1  0.95849000  0.81071000  0.82186000  1
  C  C44  1  0.82325000  0.66865000  0.71315000  1
  C  C45  1  0.10143000  0.49969000  0.91611000  1
  C  C46  1  0.11041000  0.97179000  0.91617000  1
  C  C47  1  0.08757000  0.31439000  0.28696000  1
  C  C48  1  0.04002000  0.41686000  0.31624000  1
  C  C49  1  0.94687000  0.39303000  0.38051000  1
  C  C50  1  0.89739000  0.26611000  0.41275000  1
  C  C51  1  0.94427000  0.16429000  0.38352000  1
  C  C52  1  0.04151000  0.18929000  0.32186000  1
  C  C53  1  0.17675000  0.33135000  0.21315000  1
  C  C54  1  0.89856000  0.50031000  0.41611000  1
  C  C55  1  0.88959000  0.02821000  0.41617000  1
  O  O56  1  0.24366000  0.23012000  0.80643000  1
  O  O57  1  0.43794000  0.18787000  0.82990000  1
  O  O58  1  0.61380000  0.93702000  0.61676000  1
  O  O59  1  0.46852000  0.82100000  0.52095000  1
  O  O60  1  0.94930000  0.95736000  0.60267000  1
  O  O61  1  0.99893000  0.78306000  0.54246000  1
  O  O62  1  0.75634000  0.76989000  0.30643000  1
  O  O63  1  0.56206000  0.81213000  0.32990000  1
  O  O64  1  0.38619000  0.06298000  0.11676000  1
  O  O65  1  0.53147000  0.17900000  0.02095000  1
  O  O66  1  0.05069000  0.04264000  0.10267000  1
  O  O67  1  0.00107000  0.21694000  0.04246000  1
  O  O68  1  0.76988000  0.75634000  0.69358000  1
  O  O69  1  0.81212000  0.56205000  0.67010000  1
  O  O70  1  0.06297000  0.38619000  0.88324000  1
  O  O71  1  0.17900000  0.53147000  0.97906000  1
  O  O72  1  0.04263000  0.05069000  0.89734000  1
  O  O73  1  0.21694000  0.00107000  0.95754000  1
  O  O74  1  0.23011000  0.24366000  0.19358000  1
  O  O75  1  0.18787000  0.43795000  0.17010000  1
  O  O76  1  0.93702000  0.61381000  0.38324000  1
  O  O77  1  0.82100000  0.46853000  0.47906000  1
  O  O78  1  0.95736000  0.94931000  0.39734000  1
  O  O79  1  0.78305000  0.99893000  0.45754000  1
  O  O80  1  0.27622000  0.27622000  1.00000000  1
  O  O81  1  0.72378000  0.72378000  0.50000000  1
