# generated using pymatgen
data_SiH24(C10N)4
_symmetry_space_group_name_H-M   'P 1'
_cell_length_a   23.86065000
_cell_length_b   23.86065000
_cell_length_c   38.96220000
_cell_angle_alpha   90.00000000
_cell_angle_beta   90.00000000
_cell_angle_gamma   120.00000000
_symmetry_Int_Tables_number   1
_chemical_formula_structural   SiH24(C10N)4
_chemical_formula_sum   'Si4 H96 C160 N16'
_cell_volume   19210.49889891
_cell_formula_units_Z   4
loop_
 _symmetry_equiv_pos_site_id
 _symmetry_equiv_pos_as_xyz
  1  'x, y, z'
loop_
 _atom_site_type_symbol
 _atom_site_label
 _atom_site_symmetry_multiplicity
 _atom_site_fract_x
 _atom_site_fract_y
 _atom_site_fract_z
 _atom_site_occupancy
  C  1  1  0.56920600  0.11960600  0.97256200  1
  C  2  1  0.58992850  0.13587950  0.93830400  1
  C  3  1  0.62350150  0.20095650  0.92789900  1
  C  4  1  0.63578400  0.25168700  0.95108500  1
  C  5  1  0.61857050  0.23478850  0.98596300  1
  C  6  1  0.58514800  0.16965900  0.99653200  1
  C  8  1  0.74705300  0.35816600  0.95821900  1
  C  9  1  0.77078850  0.40751550  0.98345600  1
  C  10  1  0.83534350  0.43687450  0.99474400  1
  C  11  1  0.87761900  0.41675600  0.98165100  1
  C  12  1  0.85207850  0.36237050  0.95975400  1
  C  13  1  0.78781750  0.33363750  0.94814200  1
  C  14  1  0.68246000  0.33907000  0.89689200  1
  C  15  1  0.63720900  0.36977300  0.95011400  1
  C  16  1  0.66846400  0.43749900  0.94435000  1
  C  17  1  0.63843250  0.47345950  0.95282700  1
  C  18  1  0.57469650  0.44252950  0.96581900  1
  C  19  1  0.54251000  0.37487000  0.97087000  1
  C  20  1  0.57290550  0.33898350  0.96270600  1
  C  21  1  0.62721650  0.30691950  0.87548700  1
  C  22  1  0.63331250  0.30952350  0.83952300  1
  C  23  1  0.69440500  0.34687000  0.82374400  1
  C  24  1  0.74785300  0.38624500  0.84499300  1
  C  25  1  0.74223650  0.38181250  0.88091400  1
  C  42  1  0.43373750  0.88132850  0.47260700  1
  C  43  1  0.41301650  0.86508350  0.43834500  1
  C  44  1  0.37943450  0.80001550  0.42793000  1
  C  45  1  0.36711350  0.74925550  0.45110400  1
  C  46  1  0.38431850  0.76613250  0.48598400  1
  C  47  1  0.41775350  0.83125450  0.49656900  1
  C  49  1  0.25583850  0.64278150  0.45820800  1
  C  50  1  0.23208850  0.59341750  0.48343800  1
  C  51  1  0.16752850  0.56407150  0.49472300  1
  C  52  1  0.12527250  0.58421550  0.48163600  1
  C  53  1  0.15083000  0.63861200  0.45974600  1
  C  54  1  0.21509150  0.66733250  0.44813700  1
  C  55  1  0.32046250  0.66192150  0.39688700  1
  C  56  1  0.36567450  0.63115950  0.45010300  1
  C  57  1  0.33440750  0.56343450  0.44433100  1
  C  58  1  0.36441100  0.52744800  0.45280800  1
  C  59  1  0.42813550  0.55834850  0.46581600  1
  C  60  1  0.46034200  0.62601000  0.47086900  1
  C  61  1  0.42996250  0.66191550  0.46271800  1
  C  62  1  0.37571200  0.69409500  0.37549000  1
  C  63  1  0.36963050  0.69155250  0.33952700  1
  C  64  1  0.30854800  0.65421700  0.32373400  1
  C  65  1  0.25508550  0.61483650  0.34497500  1
  C  66  1  0.26068850  0.61921350  0.38089500  1
  C  83  1  0.44590150  0.86282550  0.01866400  1
  C  84  1  0.45155000  0.85402800  0.05408100  1
  C  85  1  0.42215050  0.79159450  0.06840700  1
  C  86  1  0.38466250  0.73597350  0.04798500  1
  C  87  1  0.38573150  0.74500450  0.01195500  1
  C  88  1  0.41593750  0.80736250  0.99752800  1
  C  90  1  0.37880100  0.62375700  0.04912000  1
  C  91  1  0.35442000  0.58173300  0.02042300  1
  C  92  1  0.38969700  0.55551600  0.00538000  1
  C  93  1  0.45141750  0.57174250  0.01795900  1
  C  94  1  0.47620700  0.61319200  0.04663800  1
  C  95  1  0.44095500  0.63986400  0.06152100  1
  C  96  1  0.33499700  0.66018500  0.10698100  1
  C  97  1  0.26381400  0.62465900  0.05236600  1
  C  98  1  0.22334600  0.55772000  0.05932400  1
  C  99  1  0.15933650  0.52362750  0.04716400  1
  C  100  1  0.13373700  0.55584200  0.02807100  1
  C  101  1  0.17160550  0.62347350  0.02366400  1
  C  102  1  0.23558750  0.65745250  0.03585000  1
  C  103  1  0.31454350  0.70000950  0.12326600  1
  C  104  1  0.30509400  0.69766100  0.15890500  1
  C  105  1  0.30899500  0.65079700  0.17934300  1
  C  106  1  0.32778850  0.60973250  0.16306300  1
  C  107  1  0.34040250  0.61417850  0.12755700  1
  C  124  1  0.55708200  0.13809900  0.51873400  1
  C  125  1  0.55145050  0.14692450  0.55414700  1
  C  126  1  0.58082750  0.20937150  0.56845900  1
  C  127  1  0.61826400  0.26498500  0.54801800  1
  C  128  1  0.61716950  0.25591950  0.51199100  1
  C  129  1  0.58703650  0.19354750  0.49758500  1
  C  131  1  0.62404950  0.37716850  0.54914300  1
  C  132  1  0.64844050  0.41920350  0.52044600  1
  C  133  1  0.61311600  0.44535300  0.50538200  1
  C  134  1  0.55140000  0.42912700  0.51796900  1
  C  135  1  0.52661650  0.38766950  0.54664500  1
  C  136  1  0.56190150  0.36105250  0.56154700  1
  C  137  1  0.66797350  0.34082350  0.60699600  1
  C  138  1  0.73908550  0.37633550  0.55236100  1
  C  139  1  0.77953700  0.44328200  0.55930600  1
  C  140  1  0.84350850  0.47739750  0.54709700  1
  C  141  1  0.86915350  0.44517350  0.52805300  1
  C  142  1  0.83131050  0.37753450  0.52366700  1
  C  143  1  0.76733250  0.34354650  0.53586000  1
  C  144  1  0.68847000  0.30104600  0.62328600  1
  C  145  1  0.69791950  0.30342350  0.65892600  1
  C  146  1  0.69399500  0.35029200  0.67935100  1
  C  147  1  0.67517250  0.39132350  0.66305800  1
  C  148  1  0.66253500  0.38683500  0.62755400  1
  C  165  1  0.70419700  0.35314800  0.71554000  1
  C  166  1  0.75334750  0.34693650  0.73299800  1
  C  167  1  0.74997200  0.34045700  0.76958900  1
  C  168  1  0.70119300  0.34657500  0.78746400  1
  C  171  1  0.79416750  0.32630450  0.78650300  1
  C  172  1  0.84393600  0.32409500  0.76846700  1
  C  173  1  0.85106700  0.33680900  0.73317000  1
  C  174  1  0.80625400  0.34811300  0.71565500  1
  C  179  1  0.29882350  0.64800050  0.21553200  1
  C  180  1  0.24964500  0.65417900  0.23298000  1
  C  181  1  0.25300700  0.66065800  0.26957400  1
  C  182  1  0.30178850  0.65455250  0.28745600  1
  C  185  1  0.20879200  0.67478700  0.28648000  1
  C  186  1  0.15897500  0.67691100  0.26844500  1
  C  187  1  0.15191400  0.66428500  0.23313900  1
  C  188  1  0.19673900  0.65299000  0.21563000  1
  C  193  1  0.47023350  0.92598350  0.00497200  1
  C  194  1  0.43426400  0.94710400  0.98494400  1
  C  195  1  0.46626550  0.01254350  0.97296100  1
  C  196  1  0.53194750  0.05405050  0.98236800  1
  C  199  1  0.43109850  0.03452650  0.95317800  1
  C  200  1  0.36550200  0.99320900  0.94542700  1
  C  201  1  0.33355650  0.92957050  0.95783600  1
  C  202  1  0.36742150  0.90695550  0.97758200  1
  C  207  1  0.48715550  0.54644250  0.00182000  1
  C  208  1  0.50733300  0.55688800  0.96692100  1
  C  209  1  0.53605300  0.52166100  0.95300700  1
  C  210  1  0.54453200  0.47874600  0.97493300  1
  C  213  1  0.55309250  0.52940450  0.91773200  1
  C  214  1  0.54505000  0.57302500  0.89700400  1
  C  215  1  0.51955700  0.60962500  0.91106900  1
  C  216  1  0.50064200  0.60147400  0.94566700  1
  C  221  1  0.07202500  0.52060600  0.01267100  1
  C  222  1  0.06059850  0.51569350  0.97668500  1
  C  223  1  0.99518200  0.48165700  0.96475700  1
  C  224  1  0.94456350  0.45215950  0.98944300  1
  C  227  1  0.98346950  0.48021150  0.92895000  1
  C  228  1  0.03470350  0.50825650  0.90532700  1
  C  229  1  0.09880850  0.53867950  0.91699200  1
  C  230  1  0.11165600  0.54265700  0.95233400  1
  C  235  1  0.53276050  0.07492750  0.50505900  1
  C  236  1  0.56869600  0.05382600  0.48498800  1
  C  237  1  0.53668150  0.98839550  0.47299200  1
  C  238  1  0.47101300  0.94687800  0.48242400  1
  C  241  1  0.57182650  0.96641950  0.45318500  1
  C  242  1  0.63742200  0.00773700  0.44542900  1
  C  243  1  0.66937250  0.07137550  0.45783600  1
  C  244  1  0.63552450  0.09398950  0.47759600  1
  C  249  1  0.51565000  0.45441400  0.50183000  1
  C  250  1  0.49548250  0.44397550  0.46692700  1
  C  251  1  0.46676250  0.47920150  0.45301400  1
  C  252  1  0.45826000  0.52210000  0.47494200  1
  C  255  1  0.44974250  0.47147050  0.41773600  1
  C  256  1  0.45780600  0.42786600  0.39700500  1
  C  257  1  0.48330550  0.39127350  0.41107000  1
  C  258  1  0.50218100  0.39939300  0.44567300  1
  C  263  1  0.93086500  0.48041600  0.51265100  1
  C  264  1  0.94229400  0.48530700  0.47666700  1
  C  265  1  0.00771200  0.51932300  0.46474000  1
  C  266  1  0.05832850  0.54883450  0.48942800  1
  C  269  1  0.01942650  0.52077050  0.42893400  1
  C  270  1  0.96819300  0.49273200  0.40531100  1
  C  271  1  0.90408700  0.46229300  0.41697300  1
  C  272  1  0.89123750  0.45833650  0.45231500  1
  H  26  1  0.66362850  0.52258650  0.94940600  1
  H  27  1  0.71448850  0.46222850  0.93461800  1
  H  28  1  0.49601550  0.35090550  0.97996000  1
  H  29  1  0.54658700  0.28993500  0.96578600  1
  H  30  1  0.58222900  0.27759500  0.88572600  1
  H  31  1  0.59295150  0.28183950  0.82498700  1
  H  32  1  0.79212500  0.41711700  0.83448000  1
  H  33  1  0.78292450  0.41034850  0.89497200  1
  H  34  1  0.77279850  0.29709350  0.93047400  1
  H  35  1  0.88119050  0.34573150  0.95040700  1
  H  36  1  0.85211600  0.47542200  0.01119600  1
  H  37  1  0.74265800  0.42491600  0.99310600  1
  H  38  1  0.62851000  0.26963400  0.00410400  1
  H  39  1  0.63891150  0.21002250  0.90301600  1
  H  40  1  0.58041350  0.10044050  0.92062000  1
  H  41  1  0.57119650  0.15903650  0.02164900  1
  H  67  1  0.33919900  0.47832400  0.44938200  1
  H  68  1  0.28839150  0.53872350  0.43458300  1
  H  69  1  0.50680850  0.64994650  0.48000400  1
  H  70  1  0.45628450  0.71095850  0.46582100  1
  H  71  1  0.42069800  0.72339400  0.38573800  1
  H  72  1  0.41000900  0.71922200  0.32500000  1
  H  73  1  0.21082250  0.58395450  0.33445500  1
  H  74  1  0.21999600  0.59066100  0.39494700  1
  H  75  1  0.23012400  0.70389000  0.43047400  1
  H  76  1  0.12172950  0.65526750  0.45040300  1
  H  77  1  0.15074650  0.52551850  0.51117200  1
  H  78  1  0.26020700  0.57600400  0.49308600  1
  H  79  1  0.37439850  0.73127450  0.50411400  1
  H  80  1  0.36402250  0.79097150  0.40304500  1
  H  81  1  0.42255000  0.90053700  0.42066900  1
  H  82  1  0.43174250  0.84185550  0.52168300  1
  H  108  1  0.13279200  0.47461800  0.05086200  1
  H  109  1  0.24084900  0.53186700  0.07182400  1
  H  110  1  0.15351650  0.64822850  0.01060500  1
  H  111  1  0.26113450  0.70628450  0.03179000  1
  H  112  1  0.30752250  0.73262850  0.10955000  1
  H  113  1  0.29437400  0.73029200  0.16967700  1
  H  114  1  0.33131900  0.57515300  0.17690700  1
  H  115  1  0.35151700  0.58171800  0.11696700  1
  H  116  1  0.46184450  0.67184250  0.08138900  1
  H  117  1  0.52123050  0.62635950  0.05599800  1
  H  118  1  0.37053700  0.52563600  0.98455800  1
  H  119  1  0.31161650  0.57103250  0.00902200  1
  H  120  1  0.36153400  0.70643500  0.99571000  1
  H  121  1  0.42726500  0.78811400  0.09421500  1
  H  122  1  0.47462700  0.89313800  0.07007800  1
  H  123  1  0.41321350  0.81192250  0.97154100  1
  H  149  1  0.87009300  0.52639000  0.55084900  1
  H  150  1  0.76203300  0.46912700  0.57181300  1
  H  151  1  0.84939800  0.35278700  0.51060000  1
  H  152  1  0.74178400  0.29472000  0.53178500  1
  H  153  1  0.69544150  0.26838150  0.60958300  1
  H  154  1  0.70862150  0.27079350  0.66971300  1
  H  155  1  0.67162700  0.42590200  0.67689200  1
  H  156  1  0.65138750  0.41926650  0.61695700  1
  H  157  1  0.54103550  0.32909450  0.58142800  1
  H  158  1  0.48162450  0.37456150  0.55603100  1
  H  159  1  0.63225750  0.47520850  0.48455200  1
  H  160  1  0.69119250  0.42982950  0.50901100  1
  H  161  1  0.64131650  0.29448050  0.49573400  1
  H  162  1  0.57572800  0.21287100  0.59426600  1
  H  163  1  0.52839750  0.10782650  0.57015800  1
  H  164  1  0.58966500  0.18895500  0.47159600  1
  H  175  1  0.79041900  0.31640800  0.81216400  1
  H  176  1  0.87577300  0.31456000  0.78116800  1
  H  177  1  0.88822950  0.33675450  0.72011100  1
  H  178  1  0.81353250  0.35788650  0.69000700  1
  H  189  1  0.21250150  0.68464650  0.31214600  1
  H  190  1  0.12714300  0.68646000  0.28113900  1
  H  191  1  0.11472000  0.66427600  0.22008000  1
  H  192  1  0.18947650  0.64322650  0.18998200  1
  H  203  1  0.45235850  0.08117350  0.94453200  1
  H  204  1  0.34064000  0.00990200  0.93138100  1
  H  205  1  0.28539050  0.89989550  0.95283700  1
  H  206  1  0.34178400  0.86096300  0.98699800  1
  H  217  1  0.57101250  0.50299350  0.90643300  1
  H  218  1  0.55796350  0.57828650  0.87167100  1
  H  219  1  0.51411900  0.64172100  0.89602500  1
  H  220  1  0.48235100  0.62904400  0.95508500  1
  H  231  1  0.93752050  0.45923550  0.91939800  1
  H  232  1  0.02531000  0.50625900  0.87960300  1
  H  233  1  0.13614950  0.55873350  0.89977800  1
  H  234  1  0.15900200  0.56531200  0.95988700  1
  H  245  1  0.55055900  0.91978000  0.44453100  1
  H  246  1  0.66226500  0.99105900  0.43135400  1
  H  247  1  0.71753850  0.10105050  0.45282900  1
  H  248  1  0.66118600  0.13995700  0.48704400  1
  H  259  1  0.43182750  0.49788450  0.40643500  1
  H  260  1  0.44491150  0.42261950  0.37166800  1
  H  261  1  0.48874750  0.35917950  0.39602800  1
  H  262  1  0.52048150  0.37183450  0.45509000  1
  H  273  1  0.06537750  0.54176750  0.41938100  1
  H  274  1  0.97758900  0.49473900  0.37958600  1
  H  275  1  0.86674900  0.44226400  0.39975900  1
  H  276  1  0.84389250  0.43568850  0.45986900  1
  N  169  1  0.65794200  0.35432900  0.76846300  1
  N  170  1  0.65892100  0.35653700  0.73508900  1
  N  183  1  0.34502700  0.64676500  0.26846000  1
  N  184  1  0.34406600  0.64456300  0.23508700  1
  N  197  1  0.56144750  0.02994450  0.00229500  1
  N  198  1  0.53249650  0.97008350  0.01276100  1
  N  211  1  0.52405000  0.47289600  0.00791800  1
  N  212  1  0.49686300  0.50410200  0.02046100  1
  N  225  1  0.96091600  0.45930100  0.02316100  1
  N  226  1  0.02046800  0.49133500  0.03406400  1
  N  239  1  0.44153800  0.97097200  0.50237700  1
  N  240  1  0.47050050  0.03082950  0.51285600  1
  N  253  1  0.47875000  0.52795900  0.50792600  1
  N  254  1  0.50594300  0.49675600  0.52046900  1
  N  267  1  0.04197400  0.54168900  0.52314600  1
  N  268  1  0.98241950  0.50966650  0.53404600  1
  Si  7  1  0.67502750  0.32943250  0.93940400  1
  Si  48  1  0.32787500  0.67152200  0.43940300  1
  Si  89  1  0.34128850  0.66162250  0.06436300  1
  Si  130  1  0.66162150  0.33935250  0.56437800  1
