# generated using pymatgen
data_SrH3(CO)5
_symmetry_space_group_name_H-M   'P 1'
_cell_length_a   8.09870000
_cell_length_b   9.77280000
_cell_length_c   11.18060000
_cell_angle_alpha   97.12690000
_cell_angle_beta   90.00000000
_cell_angle_gamma   114.47800000
_symmetry_Int_Tables_number   1
_chemical_formula_structural   SrH3(CO)5
_chemical_formula_sum   'Sr4 H12 C20 O20'
_cell_volume   797.85702380
_cell_formula_units_Z   4
loop_
 _symmetry_equiv_pos_site_id
 _symmetry_equiv_pos_as_xyz
  1  'x, y, z'
loop_
 _atom_site_type_symbol
 _atom_site_label
 _atom_site_symmetry_multiplicity
 _atom_site_fract_x
 _atom_site_fract_y
 _atom_site_fract_z
 _atom_site_occupancy
  Sr  Sr1  1  0.89256000  0.51716000  0.68609000  1.0
  Sr  Sr2  1  0.37540000  0.48284000  0.81391000  1.0
  Sr  Sr3  1  0.10744000  0.48284000  0.31391000  1.0
  Sr  Sr4  1  0.62460000  0.51716000  0.18609000  1.0
  H  H1  1  0.99520000  0.25360000  0.66090000  1.0
  H  H2  1  0.09620000  0.35000000  0.58850000  1.0
  H  H3  1  0.36050000  0.05220000  0.84450000  1.0
  H  H4  1  0.74160000  0.74640000  0.83910000  1.0
  H  H5  1  0.74620000  0.65000000  0.91150000  1.0
  H  H6  1  0.30830000  0.94780000  0.65550000  1.0
  H  H7  1  0.00480000  0.74640000  0.33910000  1.0
  H  H8  1  0.90380000  0.65000000  0.41150000  1.0
  H  H9  1  0.63950000  0.94780000  0.15550000  1.0
  H  H10  1  0.25840000  0.25360000  0.16090000  1.0
  H  H11  1  0.25380000  0.35000000  0.08850000  1.0
  H  H12  1  0.69170000  0.05220000  0.34450000  1.0
  C  C1  1  0.19530000  0.76080000  0.85560000  1.0
  C  C2  1  0.34930000  0.88400000  0.93460000  1.0
  C  C3  1  0.43181000  0.85182000  0.03060000  1.0
  C  C4  1  0.41768000  0.03096000  0.90720000  1.0
  C  C5  1  0.36158000  0.69756000  0.07520000  1.0
  C  C6  1  0.43450000  0.23920000  0.64440000  1.0
  C  C7  1  0.46530000  0.11600000  0.56540000  1.0
  C  C8  1  0.57999000  0.14818000  0.46940000  1.0
  C  C9  1  0.38672000  0.96904000  0.59280000  1.0
  C  C10  1  0.66402000  0.30244000  0.42480000  1.0
  C  C11  1  0.80470000  0.23920000  0.14440000  1.0
  C  C12  1  0.65070000  0.11600000  0.06540000  1.0
  C  C13  1  0.56819000  0.14818000  0.96940000  1.0
  C  C14  1  0.58232000  0.96904000  0.09280000  1.0
  C  C15  1  0.63842000  0.30244000  0.92480000  1.0
  C  C16  1  0.56550000  0.76080000  0.35560000  1.0
  C  C17  1  0.53470000  0.88400000  0.43460000  1.0
  C  C18  1  0.42001000  0.85182000  0.53060000  1.0
  C  C19  1  0.61328000  0.03096000  0.40720000  1.0
  C  C20  1  0.33598000  0.69756000  0.57520000  1.0
  O  O1  1  0.16992000  0.62464000  0.85720000  1.0
  O  O2  1  0.10148000  0.79876000  0.78870000  1.0
  O  O3  1  0.44419000  0.61558000  0.04490000  1.0
  O  O4  1  0.23326000  0.66652000  0.14440000  1.0
  O  O5  1  0.06747000  0.34634000  0.66140000  1.0
  O  O6  1  0.54528000  0.37536000  0.64280000  1.0
  O  O7  1  0.30272000  0.20124000  0.71130000  1.0
  O  O8  1  0.82861000  0.38442000  0.45510000  1.0
  O  O9  1  0.56674000  0.33348000  0.35560000  1.0
  O  O10  1  0.72113000  0.65366000  0.83860000  1.0
  O  O11  1  0.83008000  0.37536000  0.14280000  1.0
  O  O12  1  0.89852000  0.20124000  0.21130000  1.0
  O  O13  1  0.55581000  0.38442000  0.95510000  1.0
  O  O14  1  0.76674000  0.33348000  0.85560000  1.0
  O  O15  1  0.93253000  0.65366000  0.33860000  1.0
  O  O16  1  0.45472000  0.62464000  0.35720000  1.0
  O  O17  1  0.69728000  0.79876000  0.28870000  1.0
  O  O18  1  0.17139000  0.61558000  0.54490000  1.0
  O  O19  1  0.43326000  0.66652000  0.64440000  1.0
  O  O20  1  0.27887000  0.34634000  0.16140000  1.0
