# generated using pymatgen
data_H8C13N5O2
_symmetry_space_group_name_H-M   'P 1'
_cell_length_a   24.33478258
_cell_length_b   25.50500000
_cell_length_c   38.93670000
_cell_angle_alpha   90.78020000
_cell_angle_beta   90.00000000
_cell_angle_gamma   118.49350000
_symmetry_Int_Tables_number   1
_chemical_formula_structural   H8C13N5O2
_chemical_formula_sum   'H64 C104 N40 O16'
_cell_volume   21236.60360108
_cell_formula_units_Z   8
loop_
 _symmetry_equiv_pos_site_id
 _symmetry_equiv_pos_as_xyz
  1  'x, y, z'
loop_
 _atom_site_type_symbol
 _atom_site_label
 _atom_site_symmetry_multiplicity
 _atom_site_fract_x
 _atom_site_fract_y
 _atom_site_fract_z
 _atom_site_occupancy
  C  1  1  0.26100750  0.69988650  0.94759700  1
  C  2  1  0.20324350  0.66569850  0.96427300  1
  C  3  1  0.16710500  0.69192800  0.97608300  1
  C  4  1  0.19257300  0.75457800  0.97473350  1
  C  5  1  0.25439900  0.79088300  0.96343300  1
  C  6  1  0.28628750  0.76287250  0.94723950  1
  C  9  1  0.28820500  0.66997200  0.92896200  1
  C  10  1  0.30031950  0.62629550  0.94432800  1
  C  11  1  0.32123000  0.59256800  0.92433950  1
  C  12  1  0.32678800  0.60081700  0.88844150  1
  C  13  1  0.31654400  0.64487500  0.87243200  1
  C  14  1  0.29790750  0.67932650  0.89314850  1
  C  25  1  0.74725150  0.30906050  0.44723750  1
  C  26  1  0.80551500  0.34369400  0.46394700  1
  C  27  1  0.84158100  0.31759800  0.47560200  1
  C  28  1  0.81560900  0.25484200  0.47411100  1
  C  29  1  0.75340600  0.21837100  0.46276600  1
  C  30  1  0.72151500  0.24601600  0.44665300  1
  C  33  1  0.72012750  0.33860650  0.42873400  1
  C  34  1  0.70841350  0.38286550  0.44443400  1
  C  35  1  0.68844650  0.41685450  0.42460900  1
  C  36  1  0.68350950  0.40825450  0.38858350  1
  C  37  1  0.69317300  0.36350200  0.37223600  1
  C  38  1  0.71093100  0.32884000  0.39275100  1
  C  49  1  0.56975000  0.32103900  0.04817100  1
  C  50  1  0.54263850  0.35502450  0.03507900  1
  C  51  1  0.48543950  0.32789950  0.01672600  1
  C  52  1  0.45584750  0.26581450  0.01069400  1
  C  53  1  0.48115300  0.23020300  0.02348800  1
  C  54  1  0.53758750  0.25811050  0.04282150  1
  C  57  1  0.62737800  0.34995100  0.06640400  1
  C  58  1  0.68177950  0.39766750  0.05204700  1
  C  59  1  0.73996100  0.42198600  0.06970600  1
  C  60  1  0.74093650  0.40483150  0.10397800  1
  C  61  1  0.68633550  0.36215450  0.12000750  1
  C  62  1  0.63061100  0.33278100  0.10049150  1
  C  73  1  0.44094700  0.69257000  0.54858200  1
  C  74  1  0.46830550  0.65838950  0.53554100  1
  C  75  1  0.52518500  0.68507400  0.51737100  1
  C  76  1  0.55409550  0.74685050  0.51143500  1
  C  77  1  0.52847100  0.78267200  0.52414700  1
  C  78  1  0.47243000  0.75524000  0.54336300  1
  C  81  1  0.38365350  0.66397850  0.56660300  1
  C  82  1  0.32913750  0.61591050  0.55172800  1
  C  83  1  0.27130850  0.59149750  0.56929900  1
  C  84  1  0.27095550  0.60891850  0.60388400  1
  C  85  1  0.32580150  0.65182750  0.62036900  1
  C  86  1  0.38108750  0.68141050  0.60102500  1
  C  97  1  0.34567000  0.68189300  0.71124500  1
  C  99  1  0.35823950  0.62143550  0.75378900  1
  C  100  1  0.34437000  0.65154900  0.78022600  1
  C  102  1  0.33083650  0.71239550  0.73745200  1
  C  104  1  0.31554050  0.75886550  0.73220350  1
  C  109  1  0.35355150  0.69615450  0.67690300  1
  C  111  1  0.34503050  0.63708350  0.81431400  1
  C  113  1  0.66720050  0.32982950  0.21011500  1
  C  115  1  0.65222850  0.38777450  0.25440200  1
  C  116  1  0.66564500  0.35679600  0.27996200  1
  C  118  1  0.68167450  0.29854750  0.23545500  1
  C  120  1  0.69774050  0.25271250  0.22887700  1
  C  125  1  0.66006400  0.31670800  0.17537050  1
  C  127  1  0.66314400  0.36931600  0.31444150  1
  C  129  1  0.35658550  0.95468250  0.97847750  1
  C  131  1  0.32145200  0.02692600  0.98851250  1
  C  132  1  0.38284100  0.07126600  0.99664350  1
  C  134  1  0.41909250  0.99983550  0.98531250  1
  C  136  1  0.47335950  0.99296050  0.98284450  1
  C  141  1  0.33947900  0.89463500  0.97092050  1
  C  143  1  0.39770650  0.13048450  0.00459200  1
  C  145  1  0.37471100  0.48331800  0.94799600  1
  C  147  1  0.43384050  0.49048150  0.99885800  1
  C  148  1  0.43419950  0.43690150  0.98998650  1
  C  150  1  0.37619500  0.42994000  0.93845450  1
  C  152  1  0.35050250  0.39594150  0.90804350  1
  C  157  1  0.34706800  0.51036700  0.92820300  1
  C  159  1  0.46624600  0.41405600  0.00948150  1
  C  161  1  0.00366450  0.61397250  0.00778700  1
  C  163  1  0.96389150  0.52866650  0.04421800  1
  C  164  1  0.90331350  0.52271850  0.04251850  1
  C  166  1  0.94272600  0.60861300  0.00605400  1
  C  168  1  0.92550850  0.64507650  0.98658800  1
  C  173  1  0.05817500  0.66097100  0.99403150  1
  C  175  1  0.85337000  0.47845000  0.06080950  1
  C  177  1  0.65107300  0.05550000  0.47801000  1
  C  179  1  0.68656250  0.98410950  0.48892700  1
  C  180  1  0.62535600  0.94023100  0.49702000  1
  C  182  1  0.58872450  0.01072550  0.48482050  1
  C  184  1  0.53437200  0.01735300  0.48195650  1
  C  189  1  0.66803750  0.11503550  0.47008750  1
  C  191  1  0.61089000  0.88160900  0.50531900  1
  C  193  1  0.63625250  0.52764050  0.44880500  1
  C  195  1  0.57729750  0.52221550  0.49932200  1
  C  196  1  0.57700650  0.57555150  0.49067950  1
  C  198  1  0.63492600  0.58081100  0.43951500  1
  C  200  1  0.66055800  0.61381300  0.40938650  1
  C  205  1  0.66371900  0.49986800  0.42900900  1
  C  207  1  0.54500500  0.59904600  0.51008250  1
  C  209  1  0.00594950  0.39654450  0.50711500  1
  C  211  1  0.04679900  0.48347600  0.54381350  1
  C  212  1  0.10736500  0.48947400  0.54185700  1
  C  214  1  0.06687050  0.40194350  0.50512400  1
  C  216  1  0.08349700  0.36466000  0.48538700  1
  C  221  1  0.95097950  0.34890450  0.49337500  1
  C  223  1  0.15780700  0.53454600  0.56022900  1
  H  7  1  0.18318400  0.62005100  0.96375200  1
  H  8  1  0.16853450  0.77417250  0.98568400  1
  H  15  1  0.34157750  0.57638450  0.87401450  1
  H  16  1  0.28717800  0.70904100  0.88139450  1
  H  19  1  0.33640150  0.81388650  0.91198000  1
  H  20  1  0.25963050  0.58079750  0.98357000  1
  H  31  1  0.82586550  0.38934450  0.46356700  1
  H  32  1  0.83968200  0.23550400  0.48498400  1
  H  39  1  0.66988250  0.43317650  0.37420600  1
  H  40  1  0.72149500  0.29875100  0.38079700  1
  H  43  1  0.67045150  0.19399850  0.41111100  1
  H  44  1  0.74926400  0.42869000  0.48436350  1
  H  55  1  0.56459200  0.40016000  0.03926500  1
  H  56  1  0.41548950  0.24655350  0.99645700  1
  H  63  1  0.78115700  0.42637200  0.11824400  1
  H  64  1  0.59046000  0.30309200  0.11245000  1
  H  67  1  0.54057800  0.20262600  0.07367700  1
  H  68  1  0.68381350  0.45238550  0.01900400  1
  H  79  1  0.44673300  0.61344400  0.53960700  1
  H  80  1  0.59413850  0.76568550  0.49726700  1
  H  87  1  0.23107650  0.58721750  0.61802600  1
  H  88  1  0.42144250  0.71130750  0.61325900  1
  H  91  1  0.46908700  0.81130400  0.57457300  1
  H  92  1  0.32718650  0.56100750  0.51787200  1
  H  103  1  0.36886150  0.58803850  0.75883050  1
  H  107  1  0.26583250  0.73031350  0.68746000  1
  H  108  1  0.27103550  0.79310250  0.70377450  1
  H  110  1  0.38324950  0.73747850  0.66996500  1
  H  112  1  0.36426450  0.61154550  0.81994650  1
  H  119  1  0.64081650  0.42052450  0.26041500  1
  H  123  1  0.74853850  0.28339150  0.18514300  1
  H  124  1  0.74358900  0.22024200  0.19956150  1
  H  126  1  0.63141500  0.27532800  0.16730400  1
  H  128  1  0.64057700  0.39176800  0.32080150  1
  H  135  1  0.28460250  0.03563750  0.98935850  1
  H  139  1  0.45853650  0.95570950  0.93484550  1
  H  140  1  0.52662300  0.97012200  0.95274300  1
  H  142  1  0.37374650  0.88255950  0.97022050  1
  H  144  1  0.36362250  0.14283450  0.00224400  1
  H  151  1  0.45502100  0.51392600  0.02079000  1
  H  155  1  0.39587100  0.46154600  0.87330950  1
  H  156  1  0.35203950  0.39384850  0.85610600  1
  H  158  1  0.33058050  0.49396750  0.90419550  1
  H  160  1  0.49406200  0.43885800  0.02953700  1
  H  167  1  0.97327250  0.50005250  0.05806000  1
  H  171  1  0.97124100  0.64843900  0.94217200  1
  H  172  1  0.92805000  0.68306000  0.94093150  1
  H  174  1  0.05752300  0.69832300  0.98542600  1
  H  176  1  0.86296350  0.45380150  0.07797100  1
  H  183  1  0.72350100  0.97557400  0.49009000  1
  H  187  1  0.54834800  0.05145700  0.43380100  1
  H  188  1  0.48055050  0.03815750  0.45138050  1
  H  190  1  0.63378650  0.12709550  0.46905600  1
  H  192  1  0.64514500  0.86939600  0.50323400  1
  H  199  1  0.55609800  0.49946600  0.52102100  1
  H  203  1  0.61496900  0.54710200  0.37411900  1
  H  204  1  0.65883700  0.61423600  0.35744600  1
  H  206  1  0.68035500  0.51566100  0.40521900  1
  H  208  1  0.51732800  0.57492900  0.52991900  1
  H  215  1  0.03780600  0.51264600  0.55786200  1
  H  219  1  0.03609300  0.35910200  0.44119000  1
  H  220  1  0.07938200  0.32457100  0.43955600  1
  H  222  1  0.95128250  0.31113150  0.48458100  1
  H  224  1  0.14861050  0.55971350  0.57765700  1
  N  21  1  0.32152150  0.65475450  0.83859500  1
  N  22  1  0.33763950  0.55525050  0.94062150  1
  N  23  1  0.27937300  0.85040800  0.97029350  1
  N  24  1  0.10909650  0.65420650  0.98769750  1
  N  45  1  0.68924950  0.35397150  0.33819400  1
  N  46  1  0.67245400  0.45485500  0.44110700  1
  N  47  1  0.72816900  0.15917200  0.46961100  1
  N  48  1  0.90000800  0.35558700  0.48719950  1
  N  69  1  0.68760550  0.35914950  0.15397600  1
  N  70  1  0.79271250  0.46127250  0.05324500  1
  N  71  1  0.45457550  0.17045750  0.01720750  1
  N  72  1  0.45708900  0.35804000  0.00378950  1
  N  93  1  0.32499900  0.65457200  0.65440500  1
  N  94  1  0.21829700  0.55165567  0.55254650  1
  N  95  1  0.55433800  0.84205700  0.51782300  1
  N  96  1  0.55374200  0.65470100  0.50449700  1
  N  98  1  0.35892750  0.63808250  0.72088200  1
  N  101  1  0.33140450  0.69560150  0.77054600  1
  N  106  1  0.28318850  0.76195050  0.70474700  1
  N  114  1  0.65288300  0.37271600  0.22101300  1
  N  117  1  0.67968500  0.31367400  0.26903500  1
  N  122  1  0.73101350  0.25107050  0.20143500  1
  N  130  1  0.31083650  0.97087650  0.98054450  1
  N  133  1  0.42849850  0.05516150  0.99461650  1
  N  138  1  0.48648700  0.96949300  0.95466150  1
  N  146  1  0.40357500  0.51066000  0.97800600  1
  N  149  1  0.40477500  0.40916800  0.96027750  1
  N  154  1  0.36636550  0.41958450  0.87641100  1
  N  162  1  0.01070150  0.57302250  0.02667900  1
  N  165  1  0.89582950  0.56289350  0.02321700  1
  N  170  1  0.94486350  0.66173050  0.95407050  1
  N  178  1  0.69692250  0.03954750  0.48054000  1
  N  181  1  0.57957500  0.95607400  0.49454200  1
  N  186  1  0.52074200  0.03896300  0.45354050  1
  N  194  1  0.60739950  0.50126350  0.47852600  1
  N  197  1  0.60640900  0.60232400  0.46126000  1
  N  202  1  0.64454150  0.58915350  0.37756300  1
  N  210  1  0.99946000  0.43829100  0.52625700  1
  N  213  1  0.11430650  0.44849350  0.52231000  1
  N  218  1  0.06296650  0.34644550  0.45288900  1
  O  17  1  0.34330400  0.79572300  0.93253450  1
  O  18  1  0.29602500  0.61980000  0.97914100  1
  O  41  1  0.66411500  0.21286500  0.43185150  1
  O  42  1  0.71248750  0.38991150  0.47933700  1
  O  65  1  0.56430450  0.22464850  0.05352000  1
  O  66  1  0.68082350  0.41254550  0.01860400  1
  O  89  1  0.44542950  0.78872650  0.55414000  1
  O  90  1  0.32959250  0.60060950  0.51805400  1
  O  105  1  0.32817100  0.79954100  0.75781750  1
  O  121  1  0.68477550  0.21107550  0.25321300  1
  O  137  1  0.51953650  0.02119550  0.00639150  1
  O  153  1  0.31921900  0.33576800  0.91029650  1
  O  169  1  0.88004350  0.65624250  0.99890800  1
  O  185  1  0.48860350  0.99064050  0.50541550  1
  O  201  1  0.69194550  0.67406250  0.41207700  1
  O  217  1  0.12949850  0.35419150  0.49741300  1
