# generated using pymatgen
data_CuH9C14NO4
_symmetry_space_group_name_H-M   'P 1'
_cell_length_a   10.90937599
_cell_length_b   10.94395855
_cell_length_c   16.27051053
_cell_angle_alpha   89.85918150
_cell_angle_beta   97.32446299
_cell_angle_gamma   89.86151996
_symmetry_Int_Tables_number   1
_chemical_formula_structural   CuH9C14NO4
_chemical_formula_sum   'Cu4 H36 C56 N4 O16'
_cell_volume   1926.70061346
_cell_formula_units_Z   4
loop_
 _symmetry_equiv_pos_site_id
 _symmetry_equiv_pos_as_xyz
  1  'x, y, z'
loop_
 _atom_site_type_symbol
 _atom_site_label
 _atom_site_symmetry_multiplicity
 _atom_site_fract_x
 _atom_site_fract_y
 _atom_site_fract_z
 _atom_site_occupancy
  Cu  Cu1  1  0.68410109  0.83930256  0.22437048  1.0
  Cu  Cu2  1  0.71566818  0.83884232  0.38574953  1.0
  Cu  Cu3  1  0.31593162  0.16063978  0.77564115  1.0
  Cu  Cu4  1  0.28430085  0.16119162  0.61435979  1.0
  H  H1  1  0.48826540  0.88703785  0.07261392  1.0
  H  H2  1  0.47324697  0.89075318  0.91740287  1.0
  H  H3  1  0.84754102  0.75084565  0.94327384  1.0
  H  H4  1  0.84668774  0.75762209  0.09614740  1.0
  H  H5  1  0.34202065  0.83792295  0.43760017  1.0
  H  H6  1  0.11286748  0.83562913  0.43951553  1.0
  H  H7  1  0.28739388  0.84589474  0.17176853  1.0
  H  H8  1  0.05746822  0.84488844  0.17355227  1.0
  H  H9  1  0.72635102  0.22176792  0.43553701  1.0
  H  H10  1  0.84342254  0.80814186  0.81568149  1.0
  H  H11  1  0.67941282  0.45753095  0.17190914  1.0
  H  H12  1  0.68255762  0.22882585  0.16944915  1.0
  H  H13  1  0.54129890  0.84226998  0.66685103  1.0
  H  H14  1  0.56145056  0.85125988  0.79449280  1.0
  H  H15  1  0.72442084  0.45047632  0.43799296  1.0
  H  H16  1  0.92245359  0.82959691  0.53591735  1.0
  H  H17  1  0.94102329  0.81937269  0.69055421  1.0
  H  H18  1  0.54172011  0.85297847  0.51507900  1.0
  H  H19  1  0.51172721  0.11296889  0.92739538  1.0
  H  H20  1  0.52676014  0.10924914  0.08260849  1.0
  H  H21  1  0.15245594  0.24915547  0.05673434  1.0
  H  H22  1  0.15332352  0.24237829  0.90386605  1.0
  H  H23  1  0.65798372  0.16207799  0.56239466  1.0
  H  H24  1  0.88712522  0.16437120  0.56047949  1.0
  H  H25  1  0.71261130  0.15410711  0.82823368  1.0
  H  H26  1  0.94252725  0.15511435  0.82645064  1.0
  H  H27  1  0.27364840  0.77822613  0.56445664  1.0
  H  H28  1  0.15657638  0.19185760  0.18431887  1.0
  H  H29  1  0.32058700  0.54247477  0.82809442  1.0
  H  H30  1  0.31744125  0.77116781  0.83055358  1.0
  H  H31  1  0.45870553  0.15772947  0.33314306  1.0
  H  H32  1  0.43855285  0.14873936  0.20550721  1.0
  H  H33  1  0.27557869  0.54952885  0.56200180  1.0
  H  H34  1  0.07755228  0.17040095  0.46406764  1.0
  H  H35  1  0.05897112  0.18062642  0.30943975  1.0
  H  H36  1  0.45826794  0.14702140  0.48490139  1.0
  C  C1  1  0.56579603  0.85864588  0.04089243  1.0
  C  C2  1  0.55771527  0.85967817  0.95488842  1.0
  C  C3  1  0.66051170  0.82425621  0.91639191  1.0
  C  C4  1  0.76595790  0.78408616  0.96864340  1.0
  C  C5  1  0.76605999  0.78641401  0.05384742  1.0
  C  C6  1  0.27910450  0.83837111  0.38003858  1.0
  C  C7  1  0.32781266  0.84090623  0.30443723  1.0
  C  C8  1  0.15187585  0.83731925  0.38116634  1.0
  C  C9  1  0.70002886  0.60442735  0.30596426  1.0
  C  C10  1  0.70163248  0.46732917  0.30501308  1.0
  C  C11  1  0.24799875  0.84321791  0.22994347  1.0
  C  C12  1  0.07199732  0.83922631  0.30659753  1.0
  C  C13  1  0.12069504  0.84255591  0.23101381  1.0
  C  C14  1  0.93498893  0.83843055  0.30749034  1.0
  C  C15  1  0.71638540  0.27412617  0.37809990  1.0
  C  C16  1  0.70411858  0.21151514  0.30246159  1.0
  C  C17  1  0.75044615  0.82211781  0.78301849  1.0
  C  C18  1  0.68990585  0.40500028  0.22931636  1.0
  C  C19  1  0.70249672  0.07449909  0.30166755  1.0
  C  C20  1  0.46467776  0.84170445  0.30302624  1.0
  C  C21  1  0.69134387  0.27784198  0.22804824  1.0
  C  C22  1  0.62903025  0.84027985  0.64166121  1.0
  C  C23  1  0.65357644  0.83199387  0.82674536  1.0
  C  C24  1  0.71516269  0.40125337  0.37946855  1.0
  C  C25  1  0.84070221  0.83264229  0.56811873  1.0
  C  C26  1  0.85010306  0.82686391  0.65414231  1.0
  C  C27  1  0.74234955  0.83023571  0.69323683  1.0
  C  C28  1  0.62806390  0.84577381  0.55659422  1.0
  C  C29  1  0.43418527  0.14136352  0.95913990  1.0
  C  C30  1  0.44229952  0.14031129  0.04512742  1.0
  C  C31  1  0.33948804  0.17574362  0.08361063  1.0
  C  C32  1  0.23403001  0.21591924  0.03137026  1.0
  C  C33  1  0.23396291  0.21358225  0.94618802  1.0
  C  C34  1  0.72088473  0.16162843  0.61996120  1.0
  C  C35  1  0.67215747  0.15908985  0.69556757  1.0
  C  C36  1  0.84813422  0.16268145  0.61883315  1.0
  C  C37  1  0.29997179  0.39551732  0.69402828  1.0
  C  C38  1  0.29837097  0.53263458  0.69498865  1.0
  C  C39  1  0.75200584  0.15678439  0.77006440  1.0
  C  C40  1  0.92803414  0.16077481  0.69340559  1.0
  C  C41  1  0.87930404  0.15744484  0.76899449  1.0
  C  C42  1  0.06505915  0.16157169  0.69250282  1.0
  C  C43  1  0.28361436  0.72588425  0.62189784  1.0
  C  C44  1  0.29588016  0.78851948  0.69754071  1.0
  C  C45  1  0.24955409  0.17788180  0.21698049  1.0
  C  C46  1  0.31009564  0.59500154  0.77069197  1.0
  C  C47  1  0.29749650  0.92555132  0.69831315  1.0
  C  C48  1  0.53526680  0.15829414  0.69695215  1.0
  C  C49  1  0.30865932  0.72215576  0.77195954  1.0
  C  C50  1  0.37098757  0.15972185  0.35832350  1.0
  C  C51  1  0.34642711  0.16800583  0.17325693  1.0
  C  C52  1  0.28483627  0.59873643  0.62053025  1.0
  C  C53  1  0.15930216  0.16735597  0.43184267  1.0
  C  C54  1  0.14987868  0.17313902  0.34584022  1.0
  C  C55  1  0.25765102  0.16976358  0.30676629  1.0
  C  C56  1  0.37192462  0.15422583  0.44336505  1.0
  N  N1  1  0.73172861  0.84161917  0.51962157  1.0
  N  N2  1  0.66849211  0.82480325  0.09013150  1.0
  N  N3  1  0.26826074  0.15836549  0.48031135  1.0
  N  N4  1  0.33151863  0.17522124  0.90992339  1.0
  O  O1  1  0.89657294  0.83419965  0.37809477  1.0
  O  O2  1  0.68875721  0.65738969  0.23558728  1.0
  O  O3  1  0.71023277  0.65557986  0.37654933  1.0
  O  O4  1  0.68252525  0.02300474  0.23095340  1.0
  O  O5  1  0.86852084  0.84240810  0.23718342  1.0
  O  O6  1  0.71965716  0.02175951  0.37193841  1.0
  O  O7  1  0.50283048  0.84099601  0.23218673  1.0
  O  O8  1  0.53157739  0.84314014  0.37309684  1.0
  O  O9  1  0.10366991  0.16579193  0.62189646  1.0
  O  O10  1  0.31124770  0.34245082  0.76440782  1.0
  O  O11  1  0.28975175  0.34410660  0.62344022  1.0
  O  O12  1  0.31746462  0.97717057  0.76903506  1.0
  O  O13  1  0.13160057  0.15759302  0.76281161  1.0
  O  O14  1  0.28035998  0.97853038  0.62804885  1.0
  O  O15  1  0.49703134  0.15901106  0.76780522  1.0
  O  O16  1  0.46819976  0.15687646  0.62689310  1.0
