# generated using pymatgen
data_CoH13C18N3O4
_symmetry_space_group_name_H-M   'P 1'
_cell_length_a   11.44342000
_cell_length_b   17.77020000
_cell_length_c   17.91818000
_cell_angle_alpha   90.00000000
_cell_angle_beta   99.17383000
_cell_angle_gamma   90.00000000
_symmetry_Int_Tables_number   1
_chemical_formula_structural   CoH13C18N3O4
_chemical_formula_sum   'Co4 H52 C72 N12 O16'
_cell_volume   3597.08944794
_cell_formula_units_Z   4
loop_
 _symmetry_equiv_pos_site_id
 _symmetry_equiv_pos_as_xyz
  1  'x, y, z'
loop_
 _atom_site_type_symbol
 _atom_site_label
 _atom_site_symmetry_multiplicity
 _atom_site_fract_x
 _atom_site_fract_y
 _atom_site_fract_z
 _atom_site_occupancy
  Co  Co0  1  0.03156000  0.08119000  0.92659000  1
  Co  Co1  1  0.96844000  0.58119000  0.57341000  1
  Co  Co2  1  0.96844000  0.91881000  0.07341000  1
  Co  Co3  1  0.03155000  0.41881000  0.42659000  1
  H  H4  1  0.99126000  0.01200000  0.21770000  1
  H  H5  1  0.99716000  0.04512000  0.30872000  1
  H  H6  1  0.04607000  0.23719000  0.07949000  1
  H  H7  1  0.99796000  0.17387000  0.34226000  1
  H  H8  1  0.04415000  0.33988000  0.17567000  1
  H  H9  1  0.47306000  0.15148000  0.02365000  1
  H  H10  1  0.25466000  0.14824000  0.02028000  1
  H  H11  1  0.20649000  0.00563000  0.83649000  1
  H  H12  1  0.42063000  0.00413000  0.82895000  1
  H  H13  1  0.64135000  0.17017000  0.00562000  1
  H  H14  1  0.85555000  0.16727000  0.99996000  1
  H  H15  1  0.81526000  0.99611000  0.84223000  1
  H  H16  1  0.59988000  0.98863000  0.84230000  1
  H  H17  1  0.00874000  0.51200000  0.28230000  1
  H  H18  1  0.00284000  0.54512000  0.19129000  1
  H  H19  1  0.95392000  0.73720000  0.42052000  1
  H  H20  1  0.00204000  0.67387000  0.15774000  1
  H  H21  1  0.95584000  0.83988000  0.32433000  1
  H  H22  1  0.52694000  0.65148000  0.47636000  1
  H  H23  1  0.74534000  0.64825000  0.47973000  1
  H  H24  1  0.79351000  0.50563000  0.66351000  1
  H  H25  1  0.57937000  0.50414000  0.67105000  1
  H  H26  1  0.35865000  0.67018000  0.49438000  1
  H  H27  1  0.14445000  0.66727000  0.50004000  1
  H  H28  1  0.18474000  0.49610000  0.65777000  1
  H  H29  1  0.40012000  0.48862000  0.65770000  1
  H  H30  1  0.00874000  0.98800000  0.78230000  1
  H  H31  1  0.00284000  0.95488000  0.69129000  1
  H  H32  1  0.95393000  0.76280000  0.92052000  1
  H  H33  1  0.00204000  0.82613000  0.65774000  1
  H  H34  1  0.95585000  0.66011000  0.82433000  1
  H  H35  1  0.52694000  0.84852000  0.97636000  1
  H  H36  1  0.74534000  0.85175000  0.97972000  1
  H  H37  1  0.79351000  0.99437000  0.16352000  1
  H  H38  1  0.57937000  0.99586000  0.17106000  1
  H  H39  1  0.35865000  0.82982000  0.99438000  1
  H  H40  1  0.14445000  0.83272000  0.00004000  1
  H  H41  1  0.18474000  0.00389000  0.15777000  1
  H  H42  1  0.40012000  0.01137000  0.15770000  1
  H  H43  1  0.99126000  0.48800000  0.71770000  1
  H  H44  1  0.99716000  0.45488000  0.80871000  1
  H  H45  1  0.04607000  0.26280000  0.57948000  1
  H  H46  1  0.99796000  0.32613000  0.84226000  1
  H  H47  1  0.04415000  0.16011000  0.67567000  1
  H  H48  1  0.47306000  0.34852000  0.52364000  1
  H  H49  1  0.25466000  0.35175000  0.52028000  1
  H  H50  1  0.20649000  0.49436000  0.33649000  1
  H  H51  1  0.42063000  0.49586000  0.32895000  1
  H  H52  1  0.64135000  0.32982000  0.50562000  1
  H  H53  1  0.85555000  0.33272000  0.49996000  1
  H  H54  1  0.81526000  0.50389000  0.34223000  1
  H  H55  1  0.59988000  0.51137000  0.34230000  1
  C  C56  1  0.01696000  0.14801000  0.15494000  1
  C  C57  1  0.00214000  0.12849000  0.23021000  1
  C  C58  1  0.00692000  0.18696000  0.28404000  1
  C  C59  1  0.02101000  0.26188000  0.26457000  1
  C  C60  1  0.03380000  0.28112000  0.19001000  1
  C  C61  1  0.03366000  0.22427000  0.13705000  1
  C  C62  1  0.01532000  0.09133000  0.09422000  1
  C  C63  1  0.02210000  0.32148000  0.32332000  1
  C  C64  1  0.46887000  0.07771000  0.92630000  1
  C  C65  1  0.41851000  0.11841000  0.98042000  1
  C  C66  1  0.29659000  0.11700000  0.97950000  1
  C  C67  1  0.26907000  0.03742000  0.87663000  1
  C  C68  1  0.38991000  0.03654000  0.87345000  1
  C  C69  1  0.59833000  0.07876000  0.92466000  1
  C  C70  1  0.67440000  0.12941000  0.96890000  1
  C  C71  1  0.79513000  0.12870000  0.96601000  1
  C  C72  1  0.77294000  0.03304000  0.87826000  1
  C  C73  1  0.65151000  0.02983000  0.87838000  1
  C  C74  1  0.98304000  0.64801000  0.34506000  1
  C  C75  1  0.99786000  0.62849000  0.26979000  1
  C  C76  1  0.99308000  0.68696000  0.21597000  1
  C  C77  1  0.97898000  0.76189000  0.23543000  1
  C  C78  1  0.96620000  0.78113000  0.31000000  1
  C  C79  1  0.96633000  0.72427000  0.36295000  1
  C  C80  1  0.98468000  0.59134000  0.40578000  1
  C  C81  1  0.97790000  0.82148000  0.17669000  1
  C  C82  1  0.53113000  0.57771000  0.57370000  1
  C  C83  1  0.58149000  0.61842000  0.51958000  1
  C  C84  1  0.70341000  0.61700000  0.52050000  1
  C  C85  1  0.73093000  0.53742000  0.62337000  1
  C  C86  1  0.61009000  0.53654000  0.62655000  1
  C  C87  1  0.40167000  0.57876000  0.57534000  1
  C  C88  1  0.32560000  0.62942000  0.53110000  1
  C  C89  1  0.20487000  0.62870000  0.53399000  1
  C  C90  1  0.22706000  0.53304000  0.62174000  1
  C  C91  1  0.34849000  0.52983000  0.62162000  1
  C  C92  1  0.98304000  0.85199000  0.84506000  1
  C  C93  1  0.99786000  0.87151000  0.76979000  1
  C  C94  1  0.99308000  0.81303000  0.71597000  1
  C  C95  1  0.97898000  0.73811000  0.73543000  1
  C  C96  1  0.96620000  0.71887000  0.81000000  1
  C  C97  1  0.96634000  0.77573000  0.86295000  1
  C  C98  1  0.98468000  0.90866000  0.90578000  1
  C  C99  1  0.97790000  0.67851000  0.67668000  1
  C  C100  1  0.53113000  0.92229000  0.07370000  1
  C  C101  1  0.58149000  0.88158000  0.01959000  1
  C  C102  1  0.70341000  0.88300000  0.02050000  1
  C  C103  1  0.73093000  0.96258000  0.12337000  1
  C  C104  1  0.61009000  0.96346000  0.12656000  1
  C  C105  1  0.40167000  0.92123000  0.07534000  1
  C  C106  1  0.32560000  0.87058000  0.03110000  1
  C  C107  1  0.20487000  0.87129000  0.03399000  1
  C  C108  1  0.22706000  0.96696000  0.12174000  1
  C  C109  1  0.34849000  0.97017000  0.12162000  1
  C  C110  1  0.01696000  0.35199000  0.65494000  1
  C  C111  1  0.00214000  0.37151000  0.73021000  1
  C  C112  1  0.00692000  0.31303000  0.78403000  1
  C  C113  1  0.02102000  0.23811000  0.76457000  1
  C  C114  1  0.03380000  0.21887000  0.69001000  1
  C  C115  1  0.03366000  0.27573000  0.63705000  1
  C  C116  1  0.01532000  0.40866000  0.59422000  1
  C  C117  1  0.02210000  0.17851000  0.82332000  1
  C  C118  1  0.46887000  0.42229000  0.42630000  1
  C  C119  1  0.41851000  0.38158000  0.48042000  1
  C  C120  1  0.29659000  0.38299000  0.47950000  1
  C  C121  1  0.26907000  0.46258000  0.37663000  1
  C  C122  1  0.38991000  0.46346000  0.37345000  1
  C  C123  1  0.59832000  0.42123000  0.42467000  1
  C  C124  1  0.67439000  0.37058000  0.46891000  1
  C  C125  1  0.79512000  0.37129000  0.46601000  1
  C  C126  1  0.77293000  0.46696000  0.37826000  1
  C  C127  1  0.65150000  0.47017000  0.37839000  1
  N  N128  1  0.98191000  0.05607000  0.25256000  1
  N  N129  1  0.22207000  0.07705000  0.92868000  1
  N  N130  1  0.84520000  0.08098000  0.92195000  1
  N  N131  1  0.01808000  0.55607000  0.24744000  1
  N  N132  1  0.77793000  0.57705000  0.57132000  1
  N  N133  1  0.15480000  0.58098000  0.57805000  1
  N  N134  1  0.01808000  0.94393000  0.74744000  1
  N  N135  1  0.77793000  0.92295000  0.07132000  1
  N  N136  1  0.15480000  0.91902000  0.07805000  1
  N  N137  1  0.98192000  0.44392000  0.75256000  1
  N  N138  1  0.22206000  0.42294000  0.42869000  1
  N  N139  1  0.84520000  0.41901000  0.42195000  1
  O  O140  1  0.05934000  0.11007000  0.03545000  1
  O  O141  1  0.97056000  0.02672000  0.10367000  1
  O  O142  1  0.03488000  0.30316000  0.39322000  1
  O  O143  1  0.01095000  0.39078000  0.30385000  1
  O  O144  1  0.94065000  0.61007000  0.46455000  1
  O  O145  1  0.02943000  0.52672000  0.39633000  1
  O  O146  1  0.96512000  0.80316000  0.10678000  1
  O  O147  1  0.98904000  0.89079000  0.19615000  1
  O  O148  1  0.94065000  0.88993000  0.96455000  1
  O  O149  1  0.02944000  0.97328000  0.89633000  1
  O  O150  1  0.96512000  0.69684000  0.60678000  1
  O  O151  1  0.98904000  0.60921000  0.69615000  1
  O  O152  1  0.05934000  0.38993000  0.53545000  1
  O  O153  1  0.97057000  0.47328000  0.60367000  1
  O  O154  1  0.03488000  0.19684000  0.89322000  1
  O  O155  1  0.01096000  0.10921000  0.80385000  1
