# generated using pymatgen
data_Ag2H3C7NO4
_symmetry_space_group_name_H-M   'P 1'
_cell_length_a   10.06495000
_cell_length_b   10.06877000
_cell_length_c   10.51350000
_cell_angle_alpha   108.21169000
_cell_angle_beta   108.28529000
_cell_angle_gamma   99.85054000
_symmetry_Int_Tables_number   1
_chemical_formula_structural   Ag2H3C7NO4
_chemical_formula_sum   'Ag8 H12 C28 N4 O16'
_cell_volume   917.20149994
_cell_formula_units_Z   4
loop_
 _symmetry_equiv_pos_site_id
 _symmetry_equiv_pos_as_xyz
  1  'x, y, z'
loop_
 _atom_site_type_symbol
 _atom_site_label
 _atom_site_symmetry_multiplicity
 _atom_site_fract_x
 _atom_site_fract_y
 _atom_site_fract_z
 _atom_site_occupancy
  Ag  Ag1  1  0.73762000  0.11266000  0.57996000  1.0
  Ag  Ag2  1  0.78592000  0.48817000  0.85699000  1.0
  Ag  Ag3  1  0.88732000  0.26236000  0.92007000  1.0
  Ag  Ag4  1  0.51184000  0.21409000  0.64296000  1.0
  Ag  Ag5  1  0.26238000  0.88733000  0.42004000  1.0
  Ag  Ag6  1  0.21408000  0.51183000  0.14301000  1.0
  Ag  Ag7  1  0.11268000  0.73764000  0.07992000  1.0
  Ag  Ag8  1  0.48816000  0.78590000  0.35704000  1.0
  H  H1  1  0.75363000  0.76548000  0.75743000  1.0
  H  H2  1  0.40043000  0.90308000  0.85120000  1.0
  H  H3  1  0.56721000  0.58058000  0.98566000  1.0
  H  H4  1  0.23453000  0.24631000  0.74264000  1.0
  H  H5  1  0.09694000  0.59956000  0.64870000  1.0
  H  H6  1  0.41935000  0.43283000  0.51444000  1.0
  H  H7  1  0.24636000  0.23452000  0.24257000  1.0
  H  H8  1  0.59956000  0.09692000  0.14879000  1.0
  H  H9  1  0.43279000  0.41941000  0.01434000  1.0
  H  H10  1  0.76546000  0.75369000  0.25736000  1.0
  H  H11  1  0.90305000  0.40044000  0.35130000  1.0
  H  H12  1  0.58065000  0.56716000  0.48556000  1.0
  C  C1  1  0.67354000  0.76053000  0.80661000  1.0
  C  C2  1  0.58134000  0.84977000  0.79904000  1.0
  C  C3  1  0.59384000  0.95244000  0.72352000  1.0
  C  C4  1  0.47691000  0.83877000  0.86012000  1.0
  C  C5  1  0.47147000  0.74213000  0.93045000  1.0
  C  C6  1  0.56905000  0.65842000  0.93394000  1.0
  C  C7  1  0.36127000  0.71977000  0.99656000  1.0
  C  C8  1  0.23945000  0.32642000  0.69343000  1.0
  C  C9  1  0.15023000  0.41863000  0.70097000  1.0
  C  C10  1  0.04758000  0.40614000  0.77648000  1.0
  C  C11  1  0.16123000  0.52307000  0.63985000  1.0
  C  C12  1  0.25784000  0.52855000  0.56955000  1.0
  C  C13  1  0.34152000  0.43096000  0.56611000  1.0
  C  C14  1  0.28024000  0.63875000  0.50343000  1.0
  C  C15  1  0.32646000  0.23947000  0.19338000  1.0
  C  C16  1  0.41865000  0.15023000  0.20095000  1.0
  C  C17  1  0.40616000  0.04756000  0.27648000  1.0
  C  C18  1  0.52309000  0.16123000  0.13988000  1.0
  C  C19  1  0.52853000  0.25787000  0.06954000  1.0
  C  C20  1  0.43095000  0.34158000  0.06606000  1.0
  C  C21  1  0.63873000  0.28022000  0.00344000  1.0
  C  C22  1  0.76054000  0.67357000  0.30656000  1.0
  C  C23  1  0.84976000  0.58137000  0.29903000  1.0
  C  C24  1  0.95242000  0.59385000  0.22352000  1.0
  C  C25  1  0.83877000  0.47692000  0.36014000  1.0
  C  C26  1  0.74215000  0.47145000  0.43044000  1.0
  C  C27  1  0.65847000  0.56903000  0.43388000  1.0
  C  C28  1  0.71976000  0.36124000  0.49657000  1.0
  N  N1  1  0.66702000  0.66524000  0.87176000  1.0
  N  N2  1  0.33470000  0.33296000  0.62830000  1.0
  N  N3  1  0.33298000  0.33476000  0.12824000  1.0
  N  N4  1  0.66529000  0.66703000  0.37170000  1.0
  O  O1  1  0.70072000  0.96094000  0.68172000  1.0
  O  O2  1  0.49881000  0.02032000  0.70772000  1.0
  O  O3  1  0.26493000  0.78704000  0.98026000  1.0
  O  O4  1  0.37313000  0.63263000  0.06226000  1.0
  O  O5  1  0.03905000  0.29927000  0.81831000  1.0
  O  O6  1  0.97972000  0.50115000  0.79222000  1.0
  O  O7  1  0.21301000  0.73509000  0.51971000  1.0
  O  O8  1  0.36735000  0.62690000  0.43775000  1.0
  O  O9  1  0.29927000  0.03906000  0.31828000  1.0
  O  O10  1  0.50119000  0.97967000  0.29227000  1.0
  O  O11  1  0.73506000  0.21296000  0.01973000  1.0
  O  O12  1  0.62686000  0.36737000  0.93774000  1.0
  O  O13  1  0.96094000  0.70073000  0.18169000  1.0
  O  O14  1  0.02027000  0.49884000  0.20778000  1.0
  O  O15  1  0.78699000  0.26491000  0.48028000  1.0
  O  O16  1  0.63265000  0.37310000  0.56225000  1.0
