# generated using pymatgen
data_Y4H18C57(O4F3)6
_symmetry_space_group_name_H-M   'P 1'
_cell_length_a   7.15096107
_cell_length_b   21.46132683
_cell_length_c   21.96046785
_cell_angle_alpha   92.28689087
_cell_angle_beta   95.08717318
_cell_angle_gamma   98.39250298
_symmetry_Int_Tables_number   1
_chemical_formula_structural   Y4H18C57(O4F3)6
_chemical_formula_sum   'Y8 H36 C114 O48 F36'
_cell_volume   3316.25040977
_cell_formula_units_Z   2
loop_
 _symmetry_equiv_pos_site_id
 _symmetry_equiv_pos_as_xyz
  1  'x, y, z'
loop_
 _atom_site_type_symbol
 _atom_site_label
 _atom_site_symmetry_multiplicity
 _atom_site_fract_x
 _atom_site_fract_y
 _atom_site_fract_z
 _atom_site_occupancy
  Y  Y1  1  0.87071401  0.40009286  0.71840901  1.0
  Y  Y2  1  0.18867054  0.47201446  0.56026410  1.0
  Y  Y3  1  0.33512925  0.24766389  0.89651016  1.0
  Y  Y4  1  0.64208997  0.11567682  0.97834676  1.0
  Y  Y5  1  0.12928599  0.59990714  0.28159099  1.0
  Y  Y6  1  0.81132946  0.52798554  0.43973590  1.0
  Y  Y7  1  0.66487075  0.75233611  0.10348984  1.0
  Y  Y8  1  0.35791003  0.88432318  0.02165324  1.0
  H  H1  1  0.12856780  0.61745173  0.76944162  1.0
  H  H2  1  0.97438953  0.70115391  0.56749503  1.0
  H  H3  1  0.15606759  0.77216070  0.64837545  1.0
  H  H4  1  0.47661830  0.72860457  0.88344799  1.0
  H  H5  1  0.78999076  0.73699020  0.89344806  1.0
  H  H6  1  0.91739331  0.73028373  0.79242245  1.0
  H  H7  1  0.22174715  0.29264101  0.56485602  1.0
  H  H8  1  0.45825024  0.19645344  0.75172416  1.0
  H  H9  1  0.39726642  0.13245261  0.65554110  1.0
  H  H10  1  0.62851856  0.24917623  0.58474910  1.0
  H  H11  1  0.42664527  0.32310849  0.38341421  1.0
  H  H12  1  0.27992896  0.21823007  0.41265665  1.0
  H  H13  1  0.08497192  0.09232819  0.78563969  1.0
  H  H14  1  0.96408098  0.87659755  0.85791368  1.0
  H  H15  1  0.80600305  0.89947431  0.75932385  1.0
  H  H16  1  0.65804021  0.06175904  0.78664643  1.0
  H  H17  1  0.00419361  0.23544122  0.68208254  1.0
  H  H18  1  0.96500127  0.12829636  0.63607439  1.0
  H  H19  1  0.87143220  0.38254827  0.23055838  1.0
  H  H20  1  0.02561047  0.29884609  0.43250497  1.0
  H  H21  1  0.84393241  0.22783930  0.35162455  1.0
  H  H22  1  0.52338170  0.27139543  0.11655201  1.0
  H  H23  1  0.21000924  0.26300980  0.10655194  1.0
  H  H24  1  0.08260669  0.26971627  0.20757755  1.0
  H  H25  1  0.77825285  0.70735899  0.43514398  1.0
  H  H26  1  0.54174976  0.80354656  0.24827584  1.0
  H  H27  1  0.60273358  0.86754739  0.34445890  1.0
  H  H28  1  0.37148144  0.75082377  0.41525090  1.0
  H  H29  1  0.57335473  0.67689151  0.61658579  1.0
  H  H30  1  0.72007104  0.78176993  0.58734335  1.0
  H  H31  1  0.91502808  0.90767181  0.21436031  1.0
  H  H32  1  0.03591902  0.12340245  0.14208632  1.0
  H  H33  1  0.19399695  0.10052569  0.24067615  1.0
  H  H34  1  0.34195979  0.93824096  0.21335357  1.0
  H  H35  1  0.99580639  0.76455878  0.31791746  1.0
  H  H36  1  0.03499873  0.87170364  0.36392561  1.0
  C  C1  1  0.27941152  0.74231919  0.76704982  1.0
  C  C2  1  0.15814095  0.70021051  0.71556288  1.0
  C  C3  1  0.09973851  0.63634671  0.72483470  1.0
  C  C4  1  0.00884220  0.59458742  0.67694461  1.0
  C  C5  1  0.96373085  0.61861355  0.61943506  1.0
  C  C6  1  0.01108469  0.68310224  0.61183824  1.0
  C  C7  1  0.11242021  0.72323747  0.65826668  1.0
  C  C8  1  0.96874353  0.52597906  0.68969375  1.0
  C  C9  1  0.88479252  0.58183488  0.56130144  1.0
  C  C10  1  0.20672019  0.73136320  0.83010948  1.0
  C  C11  1  0.32534524  0.73008050  0.88404615  1.0
  C  C12  1  0.25429260  0.73407847  0.94095455  1.0
  C  C13  1  0.06134244  0.73930314  0.94475148  1.0
  C  C14  1  0.94014896  0.73432682  0.89077546  1.0
  C  C15  1  0.01184472  0.73075357  0.83418186  1.0
  C  C16  1  0.39519214  0.73936963  0.99679153  1.0
  C  C17  1  0.99441252  0.76219315  0.00356574  1.0
  C  C18  1  0.48823776  0.73002046  0.76549510  1.0
  C  C19  1  0.27699344  0.81433865  0.75678425  1.0
  C  C20  1  0.31495529  0.17713343  0.53628287  1.0
  C  C21  1  0.30840861  0.20720890  0.60161642  1.0
  C  C22  1  0.27202687  0.27010498  0.60547922  1.0
  C  C23  1  0.31366292  0.30693898  0.65995176  1.0
  C  C24  1  0.38901054  0.28144155  0.71320009  1.0
  C  C25  1  0.40490715  0.21750845  0.71080691  1.0
  C  C26  1  0.36818961  0.18077681  0.65564155  1.0
  C  C27  1  0.27309113  0.37348062  0.66267292  1.0
  C  C28  1  0.47039074  0.32489901  0.76798253  1.0
  C  C29  1  0.43470671  0.22808112  0.50294007  1.0
  C  C30  1  0.58340853  0.26441638  0.53990876  1.0
  C  C31  1  0.66144562  0.32395531  0.52441706  1.0
  C  C32  1  0.59774594  0.34608895  0.46793263  1.0
  C  C33  1  0.47267712  0.30530995  0.42700831  1.0
  C  C34  1  0.38891128  0.24655449  0.44395336  1.0
  C  C35  1  0.80407022  0.35970062  0.57184728  1.0
  C  C36  1  0.62945848  0.41405246  0.45511088  1.0
  C  C37  1  0.10971236  0.15986692  0.50466388  1.0
  C  C38  1  0.41607410  0.11748129  0.53504005  1.0
  C  C39  1  0.84694447  0.01580113  0.70138279  1.0
  C  C40  1  0.93493124  0.99758487  0.76389489  1.0
  C  C41  1  0.05530540  0.04449184  0.80043139  1.0
  C  C42  1  0.13771030  0.03295979  0.85803925  1.0
  C  C43  1  0.10998318  0.97124352  0.87836665  1.0
  C  C44  1  0.98844982  0.92441275  0.84229658  1.0
  C  C45  1  0.90010161  0.93721077  0.78591635  1.0
  C  C46  1  0.24720928  0.08708515  0.89697639  1.0
  C  C47  1  0.21313261  0.95100124  0.93489671  1.0
  C  C48  1  0.81912234  0.08530506  0.70980223  1.0
  C  C49  1  0.73246516  0.09924710  0.76212926  1.0
  C  C50  1  0.75888004  0.15976592  0.78948683  1.0
  C  C51  1  0.86918300  0.20934273  0.76300454  1.0
  C  C52  1  0.92644323  0.19727057  0.70514235  1.0
  C  C53  1  0.90406161  0.13575544  0.67877947  1.0
  C  C54  1  0.66753931  0.16632334  0.84701862  1.0
  C  C55  1  0.95133734  0.26979655  0.79902086  1.0
  C  C56  1  0.99065978  0.00476024  0.65450576  1.0
  C  C57  1  0.65133876  0.97549477  0.67974749  1.0
  C  C58  1  0.72058848  0.25768081  0.23295018  1.0
  C  C59  1  0.84185905  0.29978949  0.28443712  1.0
  C  C60  1  0.90026149  0.36365329  0.27516530  1.0
  C  C61  1  0.99115780  0.40541258  0.32305539  1.0
  C  C62  1  0.03626915  0.38138645  0.38056494  1.0
  C  C63  1  0.98891531  0.31689776  0.38816176  1.0
  C  C64  1  0.88757979  0.27676253  0.34173332  1.0
  C  C65  1  0.03125647  0.47402094  0.31030625  1.0
  C  C66  1  0.11520748  0.41816512  0.43869856  1.0
  C  C67  1  0.79327981  0.26863680  0.16989052  1.0
  C  C68  1  0.67465476  0.26991950  0.11595385  1.0
  C  C69  1  0.74570740  0.26592153  0.05904545  1.0
  C  C70  1  0.93865756  0.26069686  0.05524852  1.0
  C  C71  1  0.05985104  0.26567318  0.10922454  1.0
  C  C72  1  0.98815528  0.26924643  0.16581814  1.0
  C  C73  1  0.60480786  0.26063037  0.00320847  1.0
  C  C74  1  0.00558748  0.23780685  0.99643426  1.0
  C  C75  1  0.51176224  0.26997954  0.23450490  1.0
  C  C76  1  0.72300656  0.18566135  0.24321575  1.0
  C  C77  1  0.68504471  0.82286657  0.46371713  1.0
  C  C78  1  0.69159139  0.79279110  0.39838358  1.0
  C  C79  1  0.72797313  0.72989502  0.39452078  1.0
  C  C80  1  0.68633708  0.69306102  0.34004824  1.0
  C  C81  1  0.61098946  0.71855845  0.28679991  1.0
  C  C82  1  0.59509285  0.78249155  0.28919309  1.0
  C  C83  1  0.63181039  0.81922319  0.34435845  1.0
  C  C84  1  0.72690887  0.62651938  0.33732708  1.0
  C  C85  1  0.52960926  0.67510099  0.23201747  1.0
  C  C86  1  0.56529329  0.77191888  0.49705993  1.0
  C  C87  1  0.41659147  0.73558362  0.46009124  1.0
  C  C88  1  0.33855438  0.67604469  0.47558294  1.0
  C  C89  1  0.40225406  0.65391105  0.53206737  1.0
  C  C90  1  0.52732288  0.69469005  0.57299169  1.0
  C  C91  1  0.61108872  0.75344551  0.55604664  1.0
  C  C92  1  0.19592978  0.64029938  0.42815272  1.0
  C  C93  1  0.37054152  0.58594754  0.54488912  1.0
  C  C94  1  0.89028764  0.84013308  0.49533612  1.0
  C  C95  1  0.58392590  0.88251871  0.46495995  1.0
  C  C96  1  0.15305553  0.98419887  0.29861721  1.0
  C  C97  1  0.06506876  0.00241513  0.23610511  1.0
  C  C98  1  0.94469460  0.95550816  0.19956861  1.0
  C  C99  1  0.86228970  0.96704021  0.14196075  1.0
  C  C100  1  0.89001682  0.02875648  0.12163335  1.0
  C  C101  1  0.01155018  0.07558725  0.15770342  1.0
  C  C102  1  0.09989839  0.06278923  0.21408365  1.0
  C  C103  1  0.75279072  0.91291485  0.10302361  1.0
  C  C104  1  0.78686739  0.04899876  0.06510329  1.0
  C  C105  1  0.18087766  0.91469494  0.29019777  1.0
  C  C106  1  0.26753484  0.90075290  0.23787074  1.0
  C  C107  1  0.24111996  0.84023408  0.21051317  1.0
  C  C108  1  0.13081700  0.79065727  0.23699546  1.0
  C  C109  1  0.07355677  0.80272943  0.29485765  1.0
  C  C110  1  0.09593839  0.86424456  0.32122053  1.0
  C  C111  1  0.33246069  0.83367666  0.15298138  1.0
  C  C112  1  0.04866266  0.73020345  0.20097914  1.0
  C  C113  1  0.00934022  0.99523976  0.34549424  1.0
  C  C114  1  0.34866124  0.02450523  0.32025251  1.0
  O  O1  1  0.90920540  0.50920027  0.74091363  1.0
  O  O2  1  0.99609551  0.48343424  0.65023278  1.0
  O  O3  1  0.96916773  0.53666833  0.54309729  1.0
  O  O4  1  0.75527422  0.59906553  0.52628807  1.0
  O  O5  1  0.49126423  0.79521476  0.01090391  1.0
  O  O6  1  0.42595098  0.69357486  0.02779350  1.0
  O  O7  1  0.10067464  0.81021442  0.03034317  1.0
  O  O8  1  0.83934089  0.73679850  0.02127638  1.0
  O  O9  1  0.16918076  0.38707140  0.70411461  1.0
  O  O10  1  0.33967039  0.41114707  0.62432816  1.0
  O  O11  1  0.42493974  0.31238353  0.82081796  1.0
  O  O12  1  0.58690032  0.37313233  0.75625092  1.0
  O  O13  1  0.76251054  0.35734530  0.62767702  1.0
  O  O14  1  0.96073119  0.38521268  0.55624978  1.0
  O  O15  1  0.63395346  0.43195621  0.40009600  1.0
  O  O16  1  0.65354139  0.45432719  0.50064740  1.0
  O  O17  1  0.23986804  0.14300729  0.88000960  1.0
  O  O18  1  0.34205316  0.07441346  0.94575646  1.0
  O  O19  1  0.37529558  0.93298541  0.92948691  1.0
  O  O20  1  0.13384443  0.94471541  0.98460260  1.0
  O  O21  1  0.60663195  0.21734476  0.86017394  1.0
  O  O22  1  0.64682812  0.11714711  0.87821190  1.0
  O  O23  1  0.92028325  0.32202577  0.77870040  1.0
  O  O24  1  0.05599895  0.26394558  0.84757444  1.0
  O  O25  1  0.09079460  0.49079973  0.25908637  1.0
  O  O26  1  0.00390449  0.51656576  0.34976722  1.0
  O  O27  1  0.03083227  0.46333167  0.45690271  1.0
  O  O28  1  0.24472578  0.40093447  0.47371193  1.0
  O  O29  1  0.50873577  0.20478524  0.98909609  1.0
  O  O30  1  0.57404902  0.30642514  0.97220650  1.0
  O  O31  1  0.89932536  0.18978558  0.96965683  1.0
  O  O32  1  0.16065911  0.26320150  0.97872362  1.0
  O  O33  1  0.83081924  0.61292860  0.29588539  1.0
  O  O34  1  0.66032961  0.58885293  0.37567184  1.0
  O  O35  1  0.57506026  0.68761647  0.17918204  1.0
  O  O36  1  0.41309968  0.62686767  0.24374908  1.0
  O  O37  1  0.23748946  0.64265470  0.37232298  1.0
  O  O38  1  0.03926881  0.61478732  0.44375022  1.0
  O  O39  1  0.36604654  0.56804379  0.59990400  1.0
  O  O40  1  0.34645861  0.54567281  0.49935260  1.0
  O  O41  1  0.76013196  0.85699271  0.11999040  1.0
  O  O42  1  0.65794684  0.92558654  0.05424354  1.0
  O  O43  1  0.62470442  0.06701459  0.07051309  1.0
  O  O44  1  0.86615557  0.05528459  0.01539740  1.0
  O  O45  1  0.39336805  0.78265524  0.13982606  1.0
  O  O46  1  0.35317188  0.88285289  0.12178810  1.0
  O  O47  1  0.07971675  0.67797423  0.22129960  1.0
  O  O48  1  0.94400105  0.73605442  0.15242556  1.0
  F  F1  1  0.54642590  0.73203874  0.70852223  1.0
  F  F2  1  0.61436648  0.77397514  0.80120005  1.0
  F  F3  1  0.51056515  0.67242009  0.78614713  1.0
  F  F4  1  0.37729660  0.83505597  0.70977760  1.0
  F  F5  1  0.09578163  0.82583320  0.74368128  1.0
  F  F6  1  0.35107601  0.85103629  0.80724390  1.0
  F  F7  1  0.02193504  0.21217870  0.49902980  1.0
  F  F8  1  0.99976798  0.11950664  0.53749035  1.0
  F  F9  1  0.10243250  0.13229976  0.44758029  1.0
  F  F10  1  0.44910005  0.10118422  0.47702215  1.0
  F  F11  1  0.31636757  0.06614871  0.55746975  1.0
  F  F12  1  0.58875978  0.12935912  0.56850567  1.0
  F  F13  1  0.03804432  0.94575697  0.65641750  1.0
  F  F14  1  0.15568885  0.04547047  0.66813337  1.0
  F  F15  1  0.92406453  0.01295276  0.59605176  1.0
  F  F16  1  0.66656978  0.91554321  0.66024137  1.0
  F  F17  1  0.53453976  0.97107137  0.72574451  1.0
  F  F18  1  0.56083888  0.00182804  0.63271091  1.0
  F  F19  1  0.45357410  0.26796126  0.29147777  1.0
  F  F20  1  0.38563352  0.22602486  0.19879995  1.0
  F  F21  1  0.48943485  0.32757991  0.21385287  1.0
  F  F22  1  0.62270340  0.16494403  0.29022240  1.0
  F  F23  1  0.90421837  0.17416680  0.25631872  1.0
  F  F24  1  0.64892399  0.14896371  0.19275610  1.0
  F  F25  1  0.97806496  0.78782130  0.50097020  1.0
  F  F26  1  0.00023202  0.88049336  0.46250965  1.0
  F  F27  1  0.89756750  0.86770024  0.55241971  1.0
  F  F28  1  0.55089995  0.89881578  0.52297785  1.0
  F  F29  1  0.68363243  0.93385129  0.44253025  1.0
  F  F30  1  0.41124022  0.87064088  0.43149433  1.0
  F  F31  1  0.96195568  0.05424303  0.34358250  1.0
  F  F32  1  0.84431115  0.95452953  0.33186663  1.0
  F  F33  1  0.07593547  0.98704724  0.40394824  1.0
  F  F34  1  0.33343022  0.08445679  0.33975863  1.0
  F  F35  1  0.46546024  0.02892863  0.27425549  1.0
  F  F36  1  0.43916112  0.99817196  0.36728909  1.0
