# generated using pymatgen
data_TbH5C9NO8
_symmetry_space_group_name_H-M   'P 1'
_cell_length_a   13.51677000
_cell_length_b   13.71240000
_cell_length_c   15.13866000
_cell_angle_alpha   97.28063000
_cell_angle_beta   90.29834000
_cell_angle_gamma   117.40588000
_symmetry_Int_Tables_number   1
_chemical_formula_structural   TbH5C9NO8
_chemical_formula_sum   'Tb4 H20 C36 N4 O32'
_cell_volume   2464.47364084
_cell_formula_units_Z   4
loop_
 _symmetry_equiv_pos_site_id
 _symmetry_equiv_pos_as_xyz
  1  'x, y, z'
loop_
 _atom_site_type_symbol
 _atom_site_label
 _atom_site_symmetry_multiplicity
 _atom_site_fract_x
 _atom_site_fract_y
 _atom_site_fract_z
 _atom_site_occupancy
  Tb  Tb0  1  0.98963000  0.86135000  0.97725000  1
  Tb  Tb1  1  0.37141000  0.86719000  0.48119000  1
  Tb  Tb2  1  0.01038000  0.13863000  0.02278000  1
  Tb  Tb3  1  0.62911000  0.13388000  0.51963000  1
  H  H4  1  0.28210000  0.27509000  0.88142000  1
  H  H5  1  0.48614000  0.25884000  0.66700000  1
  H  H6  1  0.19994000  0.96114000  0.72171000  1
  H  H7  1  0.44780000  0.43517000  0.92674000  1
  H  H8  1  0.36170000  0.45253000  0.84677000  1
  H  H9  1  0.53005000  0.62862000  0.92450000  1
  H  H10  1  0.61778000  0.58328000  0.86318000  1
  H  H11  1  0.47606000  0.72560000  0.67110000  1
  H  H12  1  0.74652000  0.04952000  0.76806000  1
  H  H13  1  0.70167000  0.76782000  0.89290000  1
  H  H14  1  0.71790000  0.72490000  0.11857000  1
  H  H15  1  0.51385000  0.74117000  0.33300000  1
  H  H16  1  0.80006000  0.03885000  0.27828000  1
  H  H17  1  0.55220000  0.56483000  0.07325000  1
  H  H18  1  0.63831000  0.54746000  0.15323000  1
  H  H19  1  0.46995000  0.37138000  0.07550000  1
  H  H20  1  0.38222000  0.41672000  0.13682000  1
  H  H21  1  0.52393000  0.27438000  0.32889000  1
  H  H22  1  0.25348000  0.95047000  0.23194000  1
  H  H23  1  0.29834000  0.23218000  0.10709000  1
  C  C24  1  0.13709000  0.06012000  0.86278000  1
  C  C25  1  0.23317000  0.11308000  0.80755000  1
  C  C26  1  0.30201000  0.22861000  0.82719000  1
  C  C27  1  0.39465000  0.28054000  0.77777000  1
  C  C28  1  0.41566000  0.21746000  0.70662000  1
  C  C29  1  0.34444000  0.10340000  0.68615000  1
  C  C30  1  0.25373000  0.05002000  0.73755000  1
  C  C31  1  0.36024000  0.03444000  0.60928000  1
  C  C32  1  0.44512000  0.46023000  0.86074000  1
  C  C33  1  0.53446000  0.57881000  0.86293000  1
  C  C34  1  0.57976000  0.73231000  0.78359000  1
  C  C35  1  0.54817000  0.77793000  0.71763000  1
  C  C36  1  0.60912000  0.89126000  0.71170000  1
  C  C37  1  0.70088000  0.96125000  0.77199000  1
  C  C38  1  0.73243000  0.91503000  0.83689000  1
  C  C39  1  0.67364000  0.80085000  0.84234000  1
  C  C40  1  0.82831000  0.98753000  0.90185000  1
  C  C41  1  0.57313000  0.93754000  0.64178000  1
  C  C42  1  0.86290000  0.93988000  0.13722000  1
  C  C43  1  0.76682000  0.88692000  0.19245000  1
  C  C44  1  0.69799000  0.77138000  0.17280000  1
  C  C45  1  0.60536000  0.71947000  0.22224000  1
  C  C46  1  0.58436000  0.78256000  0.29339000  1
  C  C47  1  0.65555000  0.89662000  0.31387000  1
  C  C48  1  0.74627000  0.94998000  0.26246000  1
  C  C49  1  0.63975000  0.96565000  0.39077000  1
  C  C50  1  0.55488000  0.53976000  0.13925000  1
  C  C51  1  0.46554000  0.42119000  0.13707000  1
  C  C52  1  0.42024000  0.26768000  0.21641000  1
  C  C53  1  0.45182000  0.22206000  0.28236000  1
  C  C54  1  0.39091000  0.10873000  0.28830000  1
  C  C55  1  0.29913000  0.03875000  0.22801000  1
  C  C56  1  0.26757000  0.08497000  0.16310000  1
  C  C57  1  0.32636000  0.19915000  0.15765000  1
  C  C58  1  0.17169000  0.01247000  0.09815000  1
  C  C59  1  0.42697000  0.06248000  0.35833000  1
  N  N60  1  0.85239000  0.63986000  0.99144000  1
  N  N61  1  0.27190000  0.64283000  0.49768000  1
  N  N62  1  0.14761000  0.36014000  0.00855000  1
  N  N63  1  0.72815000  0.35722000  0.50230000  1
  O  O64  1  0.95909000  0.68520000  0.01100000  1
  O  O65  1  0.82173000  0.69191000  0.93905000  1
  O  O66  1  0.78503000  0.55770000  0.02134000  1
  O  O67  1  0.09865000  0.95700000  0.87040000  1
  O  O68  1  0.09911000  0.12330000  0.90123000  1
  O  O69  1  0.46880000  0.39128000  0.79326000  1
  O  O70  1  0.51385000  0.62168000  0.78638000  1
  O  O71  1  0.88522000  0.94592000  0.93797000  1
  O  O72  1  0.85533000  0.08967000  0.92390000  1
  O  O73  1  0.64056000  0.03523000  0.62512000  1
  O  O74  1  0.47630000  0.87721000  0.60223000  1
  O  O75  1  0.28123000  0.93824000  0.58145000  1
  O  O76  1  0.45399000  0.07103000  0.57131000  1
  O  O77  1  0.22200000  0.70360000  0.51885000  1
  O  O78  1  0.35387000  0.68581000  0.44606000  1
  O  O79  1  0.24685000  0.55575000  0.52577000  1
  O  O80  1  0.04091000  0.31480000  0.98900000  1
  O  O81  1  0.17827000  0.30808000  0.06095000  1
  O  O82  1  0.21497000  0.44230000  0.97865000  1
  O  O83  1  0.90136000  0.04300000  0.12960000  1
  O  O84  1  0.90090000  0.87670000  0.09876000  1
  O  O85  1  0.53120000  0.60872000  0.20674000  1
  O  O86  1  0.48616000  0.37832000  0.21361000  1
  O  O87  1  0.11477000  0.05408000  0.06202000  1
  O  O88  1  0.14466000  0.91033000  0.07609000  1
  O  O89  1  0.35947000  0.96475000  0.37488000  1
  O  O90  1  0.52376000  0.12286000  0.39797000  1
  O  O91  1  0.71874000  0.06174000  0.41870000  1
  O  O92  1  0.54599000  0.92901000  0.42875000  1
  O  O93  1  0.77806000  0.29653000  0.48120000  1
  O  O94  1  0.64614000  0.31424000  0.55395000  1
  O  O95  1  0.75317000  0.44432000  0.47420000  1
