# generated using pymatgen
data_CaH2C6O5
_symmetry_space_group_name_H-M   'P 1'
_cell_length_a   9.59004000
_cell_length_b   10.42977000
_cell_length_c   11.66160000
_cell_angle_alpha   74.96311000
_cell_angle_beta   85.46993000
_cell_angle_gamma   79.93637000
_symmetry_Int_Tables_number   1
_chemical_formula_structural   CaH2C6O5
_chemical_formula_sum   'Ca4 H8 C24 O20'
_cell_volume   1108.45006879
_cell_formula_units_Z   4
loop_
 _symmetry_equiv_pos_site_id
 _symmetry_equiv_pos_as_xyz
  1  'x, y, z'
loop_
 _atom_site_type_symbol
 _atom_site_label
 _atom_site_symmetry_multiplicity
 _atom_site_fract_x
 _atom_site_fract_y
 _atom_site_fract_z
 _atom_site_occupancy
  Ca  Ca0  1  0.46990000  0.41696000  0.35129000  1
  Ca  Ca1  1  0.53010000  0.58303000  0.64871000  1
  Ca  Ca2  1  0.50000000  0.00000000  0.50000000  1
  Ca  Ca3  1  0.50000000  0.50000000  0.00000000  1
  H  H4  1  0.03953000  0.71636000  0.95939000  1
  H  H5  1  0.75941000  0.68021000  0.99637000  1
  H  H6  1  0.36154000  0.78219000  0.13345000  1
  H  H7  1  0.35320000  0.04945000  0.02247000  1
  H  H8  1  0.96047000  0.28364000  0.04061000  1
  H  H9  1  0.24058000  0.31978000  0.00363000  1
  H  H10  1  0.63845000  0.21780000  0.86655000  1
  H  H11  1  0.64679000  0.95055000  0.97753000  1
  C  C12  1  0.21224000  0.55226000  0.16422000  1
  C  C13  1  0.06046000  0.57780000  0.13660000  1
  C  C14  1  0.99051000  0.65597000  0.03679000  1
  C  C15  1  0.84684000  0.63730000  0.05535000  1
  C  C16  1  0.83694000  0.54875000  0.16552000  1
  C  C17  1  0.71585000  0.48986000  0.22999000  1
  C  C18  1  0.45948000  0.73820000  0.39456000  1
  C  C19  1  0.42509000  0.84447000  0.28587000  1
  C  C20  1  0.38445000  0.86086000  0.17165000  1
  C  C21  1  0.38014000  0.00031000  0.11361000  1
  C  C22  1  0.41801000  0.06208000  0.19471000  1
  C  C23  1  0.44456000  0.19543000  0.20038000  1
  C  C24  1  0.78775000  0.44774000  0.83578000  1
  C  C25  1  0.93954000  0.42219000  0.86340000  1
  C  C26  1  0.00948000  0.34402000  0.96321000  1
  C  C27  1  0.15315000  0.36270000  0.94465000  1
  C  C28  1  0.16305000  0.45125000  0.83447000  1
  C  C29  1  0.28415000  0.51014000  0.77001000  1
  C  C30  1  0.54051000  0.26179000  0.60544000  1
  C  C31  1  0.57491000  0.15553000  0.71413000  1
  C  C32  1  0.61554000  0.13914000  0.82835000  1
  C  C33  1  0.61985000  0.99968000  0.88639000  1
  C  C34  1  0.58199000  0.93792000  0.80529000  1
  C  C35  1  0.55544000  0.80456000  0.79961000  1
  O  O36  1  0.29397000  0.60572000  0.07981000  1
  O  O37  1  0.25052000  0.48043000  0.26607000  1
  O  O38  1  0.96696000  0.51255000  0.21668000  1
  O  O39  1  0.72277000  0.42251000  0.33686000  1
  O  O40  1  0.59992000  0.51327000  0.17159000  1
  O  O41  1  0.50621000  0.77881000  0.47898000  1
  O  O42  1  0.44485000  0.61900000  0.40529000  1
  O  O43  1  0.44432000  0.96749000  0.30071000  1
  O  O44  1  0.47520000  0.20083000  0.30477000  1
  O  O45  1  0.43800000  0.28876000  0.10718000  1
  O  O46  1  0.70603000  0.39427000  0.92019000  1
  O  O47  1  0.74947000  0.51956000  0.73393000  1
  O  O48  1  0.03303000  0.48745000  0.78332000  1
  O  O49  1  0.27722000  0.57749000  0.66314000  1
  O  O50  1  0.40007000  0.48672000  0.82841000  1
  O  O51  1  0.49379000  0.22119000  0.52102000  1
  O  O52  1  0.55514000  0.38100000  0.59471000  1
  O  O53  1  0.55568000  0.03251000  0.69929000  1
  O  O54  1  0.52479000  0.79917000  0.69523000  1
  O  O55  1  0.56199000  0.71124000  0.89282000  1
