# generated using pymatgen
data_SrZnH8(C2O)8
_symmetry_space_group_name_H-M   'P 1'
_cell_length_a   10.45192000
_cell_length_b   14.80713000
_cell_length_c   18.68642000
_cell_angle_alpha   90.02590000
_cell_angle_beta   90.02543000
_cell_angle_gamma   78.94936000
_symmetry_Int_Tables_number   1
_chemical_formula_structural   SrZnH8(C2O)8
_chemical_formula_sum   'Sr4 Zn4 H32 C64 O32'
_cell_volume   2838.34241800
_cell_formula_units_Z   4
loop_
 _symmetry_equiv_pos_site_id
 _symmetry_equiv_pos_as_xyz
  1  'x, y, z'
loop_
 _atom_site_type_symbol
 _atom_site_label
 _atom_site_symmetry_multiplicity
 _atom_site_fract_x
 _atom_site_fract_y
 _atom_site_fract_z
 _atom_site_occupancy
  Sr  Sr0  1  0.09868000  0.66941000  0.69840000  1
  Sr  Sr1  1  0.40157000  0.83056000  0.19942000  1
  Sr  Sr2  1  0.90132000  0.33059000  0.30161000  1
  Sr  Sr3  1  0.59843000  0.16945000  0.80058000  1
  Zn  Zn4  1  0.19689000  0.44405000  0.81936000  1
  Zn  Zn5  1  0.30321000  0.05682000  0.31835000  1
  Zn  Zn6  1  0.80311000  0.55595000  0.18065000  1
  Zn  Zn7  1  0.69679000  0.94318000  0.68165000  1
  H  H8  1  0.41768000  0.10231000  0.92260000  1
  H  H9  1  0.41958000  0.01162000  0.03531000  1
  H  H10  1  0.22164000  0.25105000  0.14602000  1
  H  H11  1  0.21355000  0.34258000  0.03270000  1
  H  H12  1  0.76642000  0.67285000  0.73430000  1
  H  H13  1  0.52828000  0.67399000  0.72004000  1
  H  H14  1  0.55405000  0.45713000  0.87460000  1
  H  H15  1  0.79633000  0.45111000  0.88546000  1
  H  H16  1  0.08241000  0.39808000  0.42283000  1
  H  H17  1  0.08020000  0.48857000  0.53551000  1
  H  H18  1  0.27832000  0.24900000  0.64603000  1
  H  H19  1  0.28617000  0.15784000  0.53276000  1
  H  H20  1  0.73371000  0.82707000  0.23415000  1
  H  H21  1  0.97180000  0.82595000  0.22013000  1
  H  H22  1  0.94582000  0.04292000  0.37469000  1
  H  H23  1  0.70349000  0.04893000  0.38535000  1
  H  H24  1  0.58232000  0.89769000  0.07740000  1
  H  H25  1  0.58042000  0.98838000  0.96469000  1
  H  H26  1  0.77836000  0.74896000  0.85399000  1
  H  H27  1  0.78645000  0.65742000  0.96730000  1
  H  H28  1  0.23358000  0.32715000  0.26570000  1
  H  H29  1  0.47172000  0.32601000  0.27996000  1
  H  H30  1  0.44595000  0.54287000  0.12540000  1
  H  H31  1  0.20366000  0.54889000  0.11454000  1
  H  H32  1  0.91759000  0.60193000  0.57718000  1
  H  H33  1  0.91980000  0.51144000  0.46449000  1
  H  H34  1  0.72167000  0.75101000  0.35397000  1
  H  H35  1  0.71383000  0.84217000  0.46724000  1
  H  H36  1  0.26629000  0.17293000  0.76585000  1
  H  H37  1  0.02820000  0.17406000  0.77987000  1
  H  H38  1  0.05418000  0.95708000  0.62531000  1
  H  H39  1  0.29651000  0.95107000  0.61465000  1
  C  C40  1  0.31867000  0.22913000  0.97124000  1
  C  C41  1  0.37613000  0.13537000  0.97158000  1
  C  C42  1  0.37744000  0.08442000  0.03414000  1
  C  C43  1  0.32473000  0.12638000  0.09751000  1
  C  C44  1  0.26457000  0.21956000  0.09696000  1
  C  C45  1  0.26034000  0.27036000  0.03394000  1
  C  C46  1  0.31986000  0.28454000  0.90427000  1
  C  C47  1  0.33505000  0.07090000  0.16475000  1
  C  C48  1  0.79557000  0.56121000  0.81044000  1
  C  C49  1  0.72019000  0.62477000  0.76417000  1
  C  C50  1  0.58704000  0.62616000  0.75668000  1
  C  C51  1  0.52717000  0.56583000  0.79674000  1
  C  C52  1  0.60259000  0.50290000  0.84372000  1
  C  C53  1  0.73611000  0.49988000  0.84996000  1
  C  C54  1  0.93936000  0.55714000  0.81614000  1
  C  C55  1  0.38397000  0.56695000  0.78930000  1
  C  C56  1  0.18102000  0.27109000  0.47128000  1
  C  C57  1  0.12372000  0.36486000  0.47181000  1
  C  C58  1  0.12237000  0.41576000  0.53448000  1
  C  C59  1  0.17502000  0.37378000  0.59795000  1
  C  C60  1  0.23522000  0.28068000  0.59709000  1
  C  C61  1  0.23930000  0.22998000  0.53402000  1
  C  C62  1  0.18087000  0.21526000  0.40431000  1
  C  C63  1  0.16441000  0.42888000  0.66558000  1
  C  C64  1  0.70452000  0.93868000  0.31041000  1
  C  C65  1  0.77988000  0.87507000  0.26419000  1
  C  C66  1  0.91301000  0.87370000  0.25680000  1
  C  C67  1  0.97275000  0.93419000  0.29683000  1
  C  C68  1  0.89732000  0.99709000  0.34382000  1
  C  C69  1  0.76385000  0.00008000  0.34998000  1
  C  C70  1  0.56078000  0.94294000  0.31602000  1
  C  C71  1  0.11580000  0.93329000  0.28915000  1
  C  C72  1  0.68133000  0.77087000  0.02876000  1
  C  C73  1  0.62387000  0.86464000  0.02842000  1
  C  C74  1  0.62256000  0.91559000  0.96586000  1
  C  C75  1  0.67527000  0.87362000  0.90249000  1
  C  C76  1  0.73543000  0.78045000  0.90305000  1
  C  C77  1  0.73966000  0.72965000  0.96606000  1
  C  C78  1  0.68014000  0.71546000  0.09573000  1
  C  C79  1  0.66495000  0.92911000  0.83525000  1
  C  C80  1  0.20443000  0.43880000  0.18956000  1
  C  C81  1  0.27981000  0.37524000  0.23583000  1
  C  C82  1  0.41296000  0.37384000  0.24332000  1
  C  C83  1  0.47283000  0.43418000  0.20326000  1
  C  C84  1  0.39741000  0.49711000  0.15628000  1
  C  C85  1  0.26389000  0.50012000  0.15004000  1
  C  C86  1  0.06064000  0.44287000  0.18386000  1
  C  C87  1  0.61603000  0.43306000  0.21070000  1
  C  C88  1  0.81898000  0.72891000  0.52872000  1
  C  C89  1  0.87628000  0.63515000  0.52819000  1
  C  C90  1  0.87762000  0.58425000  0.46552000  1
  C  C91  1  0.82498000  0.62623000  0.40205000  1
  C  C92  1  0.76478000  0.71933000  0.40291000  1
  C  C93  1  0.76070000  0.77003000  0.46598000  1
  C  C94  1  0.81912000  0.78474000  0.59569000  1
  C  C95  1  0.83558000  0.57112000  0.33443000  1
  C  C96  1  0.29548000  0.06133000  0.68959000  1
  C  C97  1  0.22012000  0.12494000  0.73581000  1
  C  C98  1  0.08698000  0.12631000  0.74320000  1
  C  C99  1  0.02725000  0.06581000  0.70317000  1
  C  C100  1  0.10268000  0.00292000  0.65618000  1
  C  C101  1  0.23615000  0.99993000  0.65002000  1
  C  C102  1  0.43922000  0.05706000  0.68398000  1
  C  C103  1  0.88420000  0.06671000  0.71086000  1
  O  O104  1  0.40974000  0.25958000  0.85840000  1
  O  O105  1  0.22743000  0.35435000  0.89818000  1
  O  O106  1  0.29159000  0.11366000  0.22204000  1
  O  O107  1  0.38698000  0.98582000  0.16114000  1
  O  O108  1  0.00732000  0.48207000  0.83990000  1
  O  O109  1  0.98575000  0.62687000  0.79688000  1
  O  O110  1  0.33762000  0.51355000  0.83233000  1
  O  O111  1  0.31867000  0.61912000  0.74282000  1
  O  O112  1  0.09256000  0.24039000  0.35740000  1
  O  O113  1  0.27253000  0.14486000  0.39944000  1
  O  O114  1  0.20879000  0.38653000  0.72291000  1
  O  O115  1  0.11098000  0.51374000  0.66225000  1
  O  O116  1  0.49278000  0.01879000  0.33822000  1
  O  O117  1  0.51419000  0.87269000  0.29838000  1
  O  O118  1  0.16160000  0.98862000  0.33066000  1
  O  O119  1  0.18152000  0.87931000  0.24395000  1
  O  O120  1  0.59025000  0.74042000  0.14160000  1
  O  O121  1  0.77257000  0.64566000  0.10182000  1
  O  O122  1  0.70840000  0.88634000  0.77796000  1
  O  O123  1  0.61302000  0.01419000  0.83886000  1
  O  O124  1  0.99268000  0.51794000  0.16010000  1
  O  O125  1  0.01425000  0.37314000  0.20312000  1
  O  O126  1  0.66238000  0.48645000  0.16768000  1
  O  O127  1  0.68133000  0.38089000  0.25718000  1
  O  O128  1  0.90744000  0.75962000  0.64260000  1
  O  O129  1  0.72746000  0.85515000  0.60056000  1
  O  O130  1  0.79121000  0.61348000  0.27710000  1
  O  O131  1  0.88902000  0.48627000  0.33775000  1
  O  O132  1  0.50722000  0.98121000  0.66179000  1
  O  O133  1  0.48581000  0.12732000  0.70162000  1
  O  O134  1  0.83840000  0.01139000  0.66935000  1
  O  O135  1  0.81848000  0.12070000  0.75605000  1
