# generated using pymatgen
data_Nd2H6C18(SO4)3
_symmetry_space_group_name_H-M   'P 1'
_cell_length_a   12.17990000
_cell_length_b   16.98360000
_cell_length_c   25.78020000
_cell_angle_alpha   102.10900000
_cell_angle_beta   90.00000000
_cell_angle_gamma   90.00000000
_symmetry_Int_Tables_number   1
_chemical_formula_structural   Nd2H6C18(SO4)3
_chemical_formula_sum   'Nd8 H24 C72 S12 O48'
_cell_volume   5214.20035114
_cell_formula_units_Z   4
loop_
 _symmetry_equiv_pos_site_id
 _symmetry_equiv_pos_as_xyz
  1  'x, y, z'
loop_
 _atom_site_type_symbol
 _atom_site_label
 _atom_site_symmetry_multiplicity
 _atom_site_fract_x
 _atom_site_fract_y
 _atom_site_fract_z
 _atom_site_occupancy
  Nd  Nd1  1  0.47639000  0.48566000  0.41848000  1.0
  Nd  Nd2  1  0.99845000  0.96057000  0.41749000  1.0
  Nd  Nd3  1  0.47639000  0.01434000  0.08152000  1.0
  Nd  Nd4  1  0.99845000  0.53943000  0.08251000  1.0
  Nd  Nd5  1  0.52361000  0.51434000  0.58152000  1.0
  Nd  Nd6  1  0.00155000  0.03943000  0.58251000  1.0
  Nd  Nd7  1  0.52361000  0.98566000  0.91848000  1.0
  Nd  Nd8  1  0.00155000  0.46057000  0.91749000  1.0
  H  H1  1  0.71470000  0.67000000  0.57920000  1.0
  H  H2  1  0.82500000  0.79400000  0.59460000  1.0
  H  H3  1  0.48970000  0.58080000  0.23900000  1.0
  H  H4  1  0.60000000  0.58860000  0.16150000  1.0
  H  H5  1  0.26830000  0.74420000  0.60240000  1.0
  H  H6  1  0.17320000  0.86470000  0.58930000  1.0
  H  H7  1  0.71470000  0.83000000  0.92080000  1.0
  H  H8  1  0.82500000  0.70600000  0.90540000  1.0
  H  H9  1  0.48970000  0.91920000  0.26100000  1.0
  H  H10  1  0.60000000  0.91140000  0.33850000  1.0
  H  H11  1  0.26830000  0.75580000  0.89760000  1.0
  H  H12  1  0.17320000  0.63530000  0.91070000  1.0
  H  H13  1  0.28530000  0.33000000  0.42080000  1.0
  H  H14  1  0.17500000  0.20600000  0.40540000  1.0
  H  H15  1  0.51030000  0.41920000  0.76100000  1.0
  H  H16  1  0.40000000  0.41140000  0.83850000  1.0
  H  H17  1  0.73170000  0.25580000  0.39760000  1.0
  H  H18  1  0.82680000  0.13530000  0.41070000  1.0
  H  H19  1  0.28530000  0.17000000  0.07920000  1.0
  H  H20  1  0.17500000  0.29400000  0.09460000  1.0
  H  H21  1  0.51030000  0.08080000  0.73900000  1.0
  H  H22  1  0.40000000  0.08860000  0.66150000  1.0
  H  H23  1  0.73170000  0.24420000  0.10240000  1.0
  H  H24  1  0.82680000  0.36470000  0.08930000  1.0
  C  C1  1  0.72000000  0.66430000  0.49960000  1.0
  C  C2  1  0.74000000  0.69390000  0.55220000  1.0
  C  C3  1  0.80510000  0.76540000  0.56110000  1.0
  C  C4  1  0.83410000  0.78660000  0.51590000  1.0
  C  C5  1  0.65030000  0.59570000  0.47540000  1.0
  C  C6  1  0.89730000  0.85850000  0.51120000  1.0
  C  C7  1  0.60670000  0.51610000  0.26530000  1.0
  C  C8  1  0.55870000  0.55730000  0.23260000  1.0
  C  C9  1  0.62210000  0.56200000  0.18780000  1.0
  C  C10  1  0.72020000  0.52290000  0.18760000  1.0
  C  C11  1  0.56310000  0.50040000  0.31560000  1.0
  C  C12  1  0.81070000  0.52080000  0.14940000  1.0
  C  C13  1  0.31480000  0.71800000  0.52520000  1.0
  C  C14  1  0.26520000  0.75990000  0.57000000  1.0
  C  C15  1  0.20900000  0.82890000  0.56240000  1.0
  C  C16  1  0.21340000  0.83710000  0.51080000  1.0
  C  C17  1  0.38120000  0.64300000  0.51730000  1.0
  C  C18  1  0.16000000  0.89770000  0.48520000  1.0
  C  C19  1  0.72000000  0.83570000  0.00040000  1.0
  C  C20  1  0.74000000  0.80610000  0.94780000  1.0
  C  C21  1  0.80510000  0.73460000  0.93890000  1.0
  C  C22  1  0.83410000  0.71340000  0.98410000  1.0
  C  C23  1  0.65030000  0.90430000  0.02460000  1.0
  C  C24  1  0.89730000  0.64150000  0.98880000  1.0
  C  C25  1  0.60670000  0.98390000  0.23470000  1.0
  C  C26  1  0.55870000  0.94270000  0.26740000  1.0
  C  C27  1  0.62210000  0.93800000  0.31220000  1.0
  C  C28  1  0.72020000  0.97710000  0.31240000  1.0
  C  C29  1  0.56310000  0.99960000  0.18440000  1.0
  C  C30  1  0.81070000  0.97920000  0.35060000  1.0
  C  C31  1  0.31480000  0.78200000  0.97480000  1.0
  C  C32  1  0.26520000  0.74010000  0.93000000  1.0
  C  C33  1  0.20900000  0.67110000  0.93760000  1.0
  C  C34  1  0.21340000  0.66290000  0.98920000  1.0
  C  C35  1  0.38120000  0.85700000  0.98270000  1.0
  C  C36  1  0.16000000  0.60230000  0.01480000  1.0
  C  C37  1  0.28000000  0.33570000  0.50040000  1.0
  C  C38  1  0.26000000  0.30610000  0.44780000  1.0
  C  C39  1  0.19490000  0.23460000  0.43890000  1.0
  C  C40  1  0.16590000  0.21340000  0.48410000  1.0
  C  C41  1  0.34970000  0.40430000  0.52460000  1.0
  C  C42  1  0.10270000  0.14150000  0.48880000  1.0
  C  C43  1  0.39330000  0.48390000  0.73470000  1.0
  C  C44  1  0.44130000  0.44270000  0.76740000  1.0
  C  C45  1  0.37790000  0.43800000  0.81220000  1.0
  C  C46  1  0.27980000  0.47710000  0.81240000  1.0
  C  C47  1  0.43690000  0.49960000  0.68440000  1.0
  C  C48  1  0.18930000  0.47920000  0.85060000  1.0
  C  C49  1  0.68520000  0.28200000  0.47480000  1.0
  C  C50  1  0.73480000  0.24010000  0.43000000  1.0
  C  C51  1  0.79100000  0.17110000  0.43760000  1.0
  C  C52  1  0.78660000  0.16290000  0.48920000  1.0
  C  C53  1  0.61880000  0.35700000  0.48270000  1.0
  C  C54  1  0.84000000  0.10230000  0.51480000  1.0
  C  C55  1  0.28000000  0.16430000  0.99960000  1.0
  C  C56  1  0.26000000  0.19390000  0.05220000  1.0
  C  C57  1  0.19490000  0.26540000  0.06110000  1.0
  C  C58  1  0.16590000  0.28660000  0.01590000  1.0
  C  C59  1  0.34970000  0.09570000  0.97540000  1.0
  C  C60  1  0.10270000  0.35850000  0.01120000  1.0
  C  C61  1  0.39330000  0.01610000  0.76530000  1.0
  C  C62  1  0.44130000  0.05730000  0.73260000  1.0
  C  C63  1  0.37790000  0.06200000  0.68780000  1.0
  C  C64  1  0.27980000  0.02290000  0.68760000  1.0
  C  C65  1  0.43690000  0.00040000  0.81560000  1.0
  C  C66  1  0.18930000  0.02080000  0.64940000  1.0
  C  C67  1  0.68520000  0.21800000  0.02520000  1.0
  C  C68  1  0.73480000  0.25990000  0.07000000  1.0
  C  C69  1  0.79100000  0.32890000  0.06240000  1.0
  C  C70  1  0.78660000  0.33710000  0.01080000  1.0
  C  C71  1  0.61880000  0.14300000  0.01730000  1.0
  C  C72  1  0.84000000  0.39770000  0.98520000  1.0
  S  S1  1  0.78220000  0.72186000  0.46236000  1.0
  S  S2  1  0.73240000  0.48023000  0.24149000  1.0
  S  S3  1  0.28940000  0.76160000  0.47207000  1.0
  S  S4  1  0.78220000  0.77814000  0.03764000  1.0
  S  S5  1  0.73240000  0.01977000  0.25851000  1.0
  S  S6  1  0.28940000  0.73840000  0.02793000  1.0
  S  S7  1  0.21780000  0.27814000  0.53764000  1.0
  S  S8  1  0.26760000  0.51977000  0.75851000  1.0
  S  S9  1  0.71060000  0.23840000  0.52793000  1.0
  S  S10  1  0.21780000  0.22186000  0.96236000  1.0
  S  S11  1  0.26760000  0.98023000  0.74149000  1.0
  S  S12  1  0.71060000  0.26160000  0.97207000  1.0
  O  O1  1  0.60850000  0.55320000  0.50560000  1.0
  O  O2  1  0.63350000  0.58280000  0.42760000  1.0
  O  O3  1  0.92350000  0.86340000  0.46500000  1.0
  O  O4  1  0.91900000  0.90720000  0.55270000  1.0
  O  O5  1  0.61060000  0.45240000  0.33800000  1.0
  O  O6  1  0.47770000  0.53680000  0.33450000  1.0
  O  O7  1  0.79890000  0.55980000  0.11260000  1.0
  O  O8  1  0.89620000  0.48250000  0.15330000  1.0
  O  O9  1  0.40950000  0.61320000  0.47110000  1.0
  O  O10  1  0.40000000  0.61550000  0.55800000  1.0
  O  O11  1  0.16510000  0.88670000  0.43600000  1.0
  O  O12  1  0.11280000  0.95740000  0.51350000  1.0
  O  O13  1  0.60850000  0.94680000  0.99440000  1.0
  O  O14  1  0.63350000  0.91720000  0.07240000  1.0
  O  O15  1  0.92350000  0.63660000  0.03500000  1.0
  O  O16  1  0.91900000  0.59280000  0.94730000  1.0
  O  O17  1  0.61060000  0.04760000  0.16200000  1.0
  O  O18  1  0.47770000  0.96320000  0.16550000  1.0
  O  O19  1  0.79890000  0.94020000  0.38740000  1.0
  O  O20  1  0.89620000  0.01750000  0.34670000  1.0
  O  O21  1  0.40950000  0.88680000  0.02890000  1.0
  O  O22  1  0.40000000  0.88450000  0.94200000  1.0
  O  O23  1  0.16510000  0.61330000  0.06400000  1.0
  O  O24  1  0.11280000  0.54260000  0.98650000  1.0
  O  O25  1  0.39150000  0.44680000  0.49440000  1.0
  O  O26  1  0.36650000  0.41720000  0.57240000  1.0
  O  O27  1  0.07650000  0.13660000  0.53500000  1.0
  O  O28  1  0.08100000  0.09280000  0.44730000  1.0
  O  O29  1  0.38940000  0.54760000  0.66200000  1.0
  O  O30  1  0.52230000  0.46320000  0.66550000  1.0
  O  O31  1  0.20110000  0.44020000  0.88740000  1.0
  O  O32  1  0.10380000  0.51750000  0.84670000  1.0
  O  O33  1  0.59050000  0.38680000  0.52890000  1.0
  O  O34  1  0.60000000  0.38450000  0.44200000  1.0
  O  O35  1  0.83490000  0.11330000  0.56400000  1.0
  O  O36  1  0.88720000  0.04260000  0.48650000  1.0
  O  O37  1  0.39150000  0.05320000  0.00560000  1.0
  O  O38  1  0.36650000  0.08280000  0.92760000  1.0
  O  O39  1  0.07650000  0.36340000  0.96500000  1.0
  O  O40  1  0.08100000  0.40720000  0.05270000  1.0
  O  O41  1  0.38940000  0.95240000  0.83800000  1.0
  O  O42  1  0.52230000  0.03680000  0.83450000  1.0
  O  O43  1  0.20110000  0.05980000  0.61260000  1.0
  O  O44  1  0.10380000  0.98250000  0.65330000  1.0
  O  O45  1  0.59050000  0.11320000  0.97110000  1.0
  O  O46  1  0.60000000  0.11550000  0.05800000  1.0
  O  O47  1  0.83490000  0.38670000  0.93600000  1.0
  O  O48  1  0.88720000  0.45740000  0.01350000  1.0
