# generated using pymatgen
data_H11C12N4O
_symmetry_space_group_name_H-M   'P 1'
_cell_length_a   23.67385000
_cell_length_b   23.67385000
_cell_length_c   27.39330000
_cell_angle_alpha   90.00000000
_cell_angle_beta   90.00000000
_cell_angle_gamma   120.00000000
_symmetry_Int_Tables_number   1
_chemical_formula_structural   H11C12N4O
_chemical_formula_sum   'H66 C72 N24 O6'
_cell_volume   13295.74779745
_cell_formula_units_Z   6
loop_
 _symmetry_equiv_pos_site_id
 _symmetry_equiv_pos_as_xyz
  1  'x, y, z'
loop_
 _atom_site_type_symbol
 _atom_site_label
 _atom_site_symmetry_multiplicity
 _atom_site_fract_x
 _atom_site_fract_y
 _atom_site_fract_z
 _atom_site_occupancy
  C  1  1  0.98150500  0.48051400  0.32873800  1
  C  7  1  0.47339550  0.44893950  0.99619600  1
  C  8  1  0.43590150  0.38754850  0.97362200  1
  C  9  1  0.45542350  0.34013050  0.97473900  1
  C  10  1  0.51307950  0.35478850  0.00023800  1
  C  11  1  0.55093700  0.41523600  0.02431000  1
  C  12  1  0.53092050  0.46256350  0.02173300  1
  C  15  1  0.45063400  0.49422100  0.99526300  1
  C  16  1  0.48266000  0.55232900  0.96728900  1
  C  17  1  0.45851450  0.59640850  0.96641600  1
  C  18  1  0.40189150  0.58109950  0.99368000  1
  C  19  1  0.36902300  0.52330600  0.02149500  1
  C  20  1  0.39386650  0.48015350  0.02176600  1
  C  27  1  0.30870500  0.50718000  0.04925000  1
  C  30  1  0.48944700  0.65626200  0.93521300  1
  C  33  1  0.41193650  0.27408550  0.95371650  1
  C  36  1  0.60874100  0.42744000  0.05410900  1
  C  39  1  0.91344700  0.45764800  0.32934000  1
  C  40  1  0.88961900  0.49494900  0.30635700  1
  C  41  1  0.82263950  0.47529050  0.30709400  1
  C  42  1  0.77952400  0.41769400  0.33260800  1
  C  43  1  0.80203600  0.38001700  0.35705200  1
  C  44  1  0.86943600  0.40017800  0.35487600  1
  C  47  1  0.00792300  0.44883400  0.30073100  1
  C  48  1  0.07619550  0.47323750  0.30003000  1
  C  49  1  0.11720350  0.52973850  0.32752600  1
  C  50  1  0.09192950  0.56224150  0.35539400  1
  C  51  1  0.02389700  0.53716000  0.35548200  1
  C  57  1  0.13582000  0.62250600  0.38331300  1
  C  60  1  0.10551600  0.44285200  0.26866100  1
  C  63  1  0.80009300  0.51852700  0.28556700  1
  C  66  1  0.75625450  0.32223450  0.38679050  1
  C  69  1  0.48048800  0.01716600  0.66353350  1
  C  70  1  0.54135900  0.04127000  0.64008900  1
  C  71  1  0.58849400  0.10831300  0.64080600  1
  C  72  1  0.57414700  0.15117400  0.66683200  1
  C  73  1  0.51424450  0.12837050  0.69175850  1
  C  74  1  0.46714400  0.06093100  0.68955000  1
  C  77  1  0.43529450  0.94912150  0.66265450  1
  C  78  1  0.37703900  0.92301300  0.63486400  1
  C  79  1  0.33304800  0.85477200  0.63395650  1
  C  80  1  0.34857950  0.81347850  0.66102850  1
  C  81  1  0.40651400  0.83844600  0.68868200  1
  C  82  1  0.44960100  0.90645800  0.68896300  1
  C  89  1  0.42284200  0.79428200  0.71626850  1
  C  92  1  0.27304950  0.82585050  0.60291100  1
  C  95  1  0.65390750  0.13125250  0.61846900  1
  C  98  1  0.50227700  0.17392400  0.72181950  1
  C  101  1  0.49052800  0.28059100  0.85032700  1
  C  103  1  0.47304800  0.18680000  0.80517150  1
  C  104  1  0.40942350  0.15168250  0.82429050  1
  C  106  1  0.42649700  0.24542600  0.86897250  1
  C  113  1  0.72754300  0.43952500  0.18254900  1
  C  115  1  0.65178100  0.45760800  0.13718600  1
  C  116  1  0.68108700  0.52152600  0.15583100  1
  C  118  1  0.75718200  0.50382300  0.20074700  1
  C  125  1  0.64754850  0.20382150  0.51461900  1
  C  127  1  0.74225650  0.27940950  0.46998800  1
  C  128  1  0.77646650  0.25010050  0.48940500  1
  C  130  1  0.68179900  0.17416200  0.53358000  1
  C  137  1  0.40832050  0.65910250  0.82768850  1
  C  139  1  0.44196300  0.76580400  0.79727800  1
  C  140  1  0.50154200  0.78975200  0.82235650  1
  C  142  1  0.46811050  0.68282750  0.85278900  1
  C  149  1  0.18938000  0.52335000  0.16092700  1
  C  151  1  0.26154900  0.48866300  0.13037600  1
  C  152  1  0.22557700  0.42921500  0.15556100  1
  C  154  1  0.15295950  0.46369450  0.18613000  1
  C  161  1  0.27042150  0.74258750  0.49510700  1
  C  163  1  0.16385450  0.66937750  0.46454100  1
  C  164  1  0.13964200  0.70464700  0.48980300  1
  C  166  1  0.24643450  0.77830850  0.52036900  1
  H  5  1  0.95671500  0.40941700  0.24438900  1
  H  13  1  0.39320000  0.37685700  0.95650200  1
  H  14  1  0.52643300  0.31992600  0.00276500  1
  H  21  1  0.38357550  0.61213750  0.99267700  1
  H  22  1  0.37029700  0.43800000  0.04175600  1
  H  25  1  0.54497150  0.51881050  0.07534100  1
  H  26  1  0.52234700  0.54037200  0.91118300  1
  H  28  1  0.26926950  0.46063250  0.03562300  1
  H  29  1  0.29437350  0.54393150  0.04264700  1
  H  31  1  0.54139550  0.68410150  0.94390400  1
  H  32  1  0.46960750  0.68788850  0.94474800  1
  H  34  1  0.42995700  0.24078100  0.96256750  1
  H  35  1  0.36472300  0.25419300  0.97192100  1
  H  37  1  0.65105800  0.47205000  0.04063900  1
  H  38  1  0.61977400  0.38792300  0.05030900  1
  H  45  1  0.92169650  0.53759350  0.28919600  1
  H  46  1  0.73125400  0.40422500  0.33482300  1
  H  52  1  0.16659150  0.54826550  0.32663200  1
  H  53  1  0.00506000  0.56050900  0.37545700  1
  H  55  1  0.91121200  0.38635500  0.40887800  1
  H  58  1  0.12844500  0.66183300  0.36981700  1
  H  59  1  0.18699350  0.63717250  0.37673100  1
  H  61  1  0.08180700  0.39088800  0.27722200  1
  H  62  1  0.15706400  0.46309700  0.27811600  1
  H  64  1  0.74871000  0.50048500  0.29423000  1
  H  65  1  0.82725200  0.56589900  0.30357500  1
  H  67  1  0.75880550  0.27995350  0.37357000  1
  H  68  1  0.70570450  0.31106250  0.38262000  1
  H  75  1  0.55180700  0.00938500  0.62248500  1
  H  76  1  0.60880550  0.19950250  0.66897200  1
  H  83  1  0.31759100  0.76411600  0.66001500  1
  H  84  1  0.49187400  0.92508300  0.70881000  1
  H  87  1  0.41207350  0.01869850  0.74370850  1
  H  88  1  0.38864850  0.97483150  0.57891900  1
  H  90  1  0.46941100  0.80155400  0.70254400  1
  H  91  1  0.38617350  0.74318150  0.70963100  1
  H  93  1  0.24513500  0.84979400  0.61187600  1
  H  94  1  0.24157800  0.77432000  0.61232900  1
  H  96  1  0.68712050  0.18270750  0.62699300  1
  H  97  1  0.67478200  0.10437200  0.63596550  1
  H  99  1  0.45730100  0.17127300  0.70884150  1
  H  100  1  0.54152200  0.22454300  0.71769250  1
  H  107  1  0.52085300  0.32825100  0.85960300  1
  H  108  1  0.37888250  0.10401550  0.81509350  1
  H  110  1  0.53937800  0.16186400  0.78740400  1
  H  112  1  0.40310700  0.31431600  0.88639600  1
  H  119  1  0.74434400  0.40885000  0.19211000  1
  H  120  1  0.66440600  0.55236900  0.14643100  1
  H  122  1  0.56009550  0.39181550  0.12007000  1
  H  124  1  0.84906150  0.52611950  0.21841900  1
  H  131  1  0.59990800  0.18709100  0.52361600  1
  H  132  1  0.82413950  0.26669850  0.48054100  1
  H  134  1  0.76866600  0.37110300  0.45254900  1
  H  136  1  0.61103100  0.08266900  0.55137300  1
  H  143  1  0.37298850  0.61109350  0.82940600  1
  H  144  1  0.53645700  0.83792900  0.82073200  1
  H  146  1  0.38584000  0.80377000  0.78251750  1
  H  148  1  0.45061150  0.59413050  0.87456800  1
  H  155  1  0.17716700  0.55901600  0.16264300  1
  H  156  1  0.23838500  0.39396900  0.15392200  1
  H  158  1  0.35564550  0.54410650  0.11537200  1
  H  160  1  0.08278950  0.48248450  0.20827400  1
  H  167  1  0.31848900  0.75547400  0.49679900  1
  H  168  1  0.09142100  0.69120900  0.48817100  1
  H  170  1  0.12626000  0.57545800  0.44931100  1
  H  172  1  0.33498650  0.84986950  0.54206000  1
  N  102  1  0.51134850  0.25014350  0.81911050  1
  N  105  1  0.38842600  0.18233000  0.85495250  1
  N  109  1  0.49583800  0.15507400  0.77410250  1
  N  111  1  0.39893250  0.27219750  0.90038200  1
  N  114  1  0.67618500  0.41887500  0.15144700  1
  N  117  1  0.73278250  0.54232150  0.18642200  1
  N  121  1  0.59704900  0.43493400  0.10635500  1
  N  123  1  0.81148100  0.53108400  0.23220000  1
  N  126  1  0.67887700  0.25510400  0.48353500  1
  N  129  1  0.74494800  0.19846100  0.51996700  1
  N  133  1  0.77488950  0.33404750  0.43913700  1
  N  135  1  0.65396500  0.11983500  0.56500400  1
  N  138  1  0.39748950  0.70113250  0.80118000  1
  N  141  1  0.51236100  0.74758800  0.84889100  1
  N  145  1  0.42849500  0.80794000  0.76956450  1
  N  147  1  0.48327450  0.64237750  0.88160700  1
  N  150  1  0.24195200  0.53359600  0.13430000  1
  N  153  1  0.17287400  0.41897800  0.18221300  1
  N  157  1  0.31688700  0.50157700  0.10253000  1
  N  159  1  0.09764500  0.44920400  0.21510500  1
  N  162  1  0.22858050  0.68981750  0.46843600  1
  N  165  1  0.18162000  0.75755500  0.51648400  1
  N  169  1  0.12195200  0.61395500  0.43657100  1
  N  171  1  0.28669700  0.83387400  0.54927900  1
  O  3  1  0.96767100  0.39430600  0.27447700  1
  O  23  1  0.56713450  0.52137550  0.04435300  1
  O  24  1  0.53731750  0.56644850  0.94127300  1
  O  54  1  0.89196950  0.36413050  0.37783800  1
  O  85  1  0.40876000  0.03813300  0.71286850  1
  O  86  1  0.36268000  0.96354600  0.60907300  1
