# generated using pymatgen
data_CaH4(C2O)4
_symmetry_space_group_name_H-M   'P 1'
_cell_length_a   10.68400000
_cell_length_b   13.84820000
_cell_length_c   14.96040000
_cell_angle_alpha   76.46660000
_cell_angle_beta   69.07920000
_cell_angle_gamma   67.30940000
_symmetry_Int_Tables_number   1
_chemical_formula_structural   CaH4(C2O)4
_chemical_formula_sum   'Ca6 H24 C48 O24'
_cell_volume   1895.56830974
_cell_formula_units_Z   6
loop_
 _symmetry_equiv_pos_site_id
 _symmetry_equiv_pos_as_xyz
  1  'x, y, z'
loop_
 _atom_site_type_symbol
 _atom_site_label
 _atom_site_symmetry_multiplicity
 _atom_site_fract_x
 _atom_site_fract_y
 _atom_site_fract_z
 _atom_site_occupancy
  Ca  Ca1  1  0.50665000  0.96810000  0.38326000  1.0
  Ca  Ca2  1  0.85801000  0.53190000  0.11674000  1.0
  Ca  Ca3  1  0.49335000  0.03190000  0.61674000  1.0
  Ca  Ca4  1  0.14199000  0.46810000  0.88326000  1.0
  Ca  Ca5  1  0.78306000  0.75000000  0.25000000  1.0
  Ca  Ca6  1  0.21694000  0.25000000  0.75000000  1.0
  H  H1  1  0.72940000  0.18050000  0.24570000  1.0
  H  H2  1  0.81710000  0.31210000  0.14910000  1.0
  H  H3  1  0.13870000  0.09440000  0.98400000  1.0
  H  H4  1  0.05410000  0.96250000  0.08470000  1.0
  H  H5  1  0.63060000  0.83780000  0.06460000  1.0
  H  H6  1  0.36920000  0.13790000  0.09510000  1.0
  H  H7  1  0.15560000  0.31950000  0.25430000  1.0
  H  H8  1  0.27830000  0.18790000  0.35090000  1.0
  H  H9  1  0.21710000  0.40560000  0.51600000  1.0
  H  H10  1  0.10130000  0.53750000  0.41530000  1.0
  H  H11  1  0.53300000  0.66220000  0.43540000  1.0
  H  H12  1  0.60220000  0.36210000  0.40490000  1.0
  H  H13  1  0.27060000  0.81950000  0.75430000  1.0
  H  H14  1  0.18290000  0.68790000  0.85090000  1.0
  H  H15  1  0.86130000  0.90560000  0.01600000  1.0
  H  H16  1  0.94590000  0.03750000  0.91530000  1.0
  H  H17  1  0.36940000  0.16220000  0.93540000  1.0
  H  H18  1  0.63080000  0.86210000  0.90490000  1.0
  H  H19  1  0.84440000  0.68050000  0.74570000  1.0
  H  H20  1  0.72170000  0.81210000  0.64910000  1.0
  H  H21  1  0.78290000  0.59440000  0.48400000  1.0
  H  H22  1  0.89870000  0.46250000  0.58470000  1.0
  H  H23  1  0.46700000  0.33780000  0.56460000  1.0
  H  H24  1  0.39780000  0.63790000  0.59510000  1.0
  C  C1  1  0.82160000  0.97510000  0.23670000  1.0
  C  C2  1  0.88260000  0.05860000  0.17440000  1.0
  C  C3  1  0.81320000  0.16290000  0.19290000  1.0
  C  C4  1  0.86470000  0.24110000  0.13530000  1.0
  C  C5  1  0.98700000  0.21590000  0.05670000  1.0
  C  C6  1  0.04060000  0.30230000  0.99370000  1.0
  C  C7  1  0.05630000  0.11190000  0.03770000  1.0
  C  C8  1  0.00500000  0.03380000  0.09700000  1.0
  C  C9  1  0.49860000  0.97170000  0.19850000  1.0
  C  C10  1  0.49830000  0.98530000  0.09570000  1.0
  C  C11  1  0.57700000  0.90380000  0.03860000  1.0
  C  C12  1  0.42230000  0.08150000  0.05650000  1.0
  C  C13  1  0.03340000  0.52490000  0.26330000  1.0
  C  C14  1  0.11560000  0.44140000  0.32560000  1.0
  C  C15  1  0.16900000  0.33710000  0.30710000  1.0
  C  C16  1  0.24110000  0.25890000  0.36470000  1.0
  C  C17  1  0.25960000  0.28410000  0.44330000  1.0
  C  C18  1  0.33660000  0.19770000  0.50630000  1.0
  C  C19  1  0.20590000  0.38810000  0.46230000  1.0
  C  C20  1  0.13580000  0.46620000  0.40300000  1.0
  C  C21  1  0.66880000  0.52830000  0.30150000  1.0
  C  C22  1  0.57930000  0.51470000  0.40430000  1.0
  C  C23  1  0.51940000  0.59620000  0.46140000  1.0
  C  C24  1  0.56030000  0.41850000  0.44350000  1.0
  C  C25  1  0.17840000  0.02490000  0.76330000  1.0
  C  C26  1  0.11740000  0.94140000  0.82560000  1.0
  C  C27  1  0.18680000  0.83710000  0.80710000  1.0
  C  C28  1  0.13530000  0.75890000  0.86470000  1.0
  C  C29  1  0.01300000  0.78410000  0.94330000  1.0
  C  C30  1  0.95940000  0.69770000  0.00630000  1.0
  C  C31  1  0.94370000  0.88810000  0.96230000  1.0
  C  C32  1  0.99500000  0.96620000  0.90300000  1.0
  C  C33  1  0.50140000  0.02830000  0.80150000  1.0
  C  C34  1  0.50170000  0.01470000  0.90430000  1.0
  C  C35  1  0.42300000  0.09620000  0.96140000  1.0
  C  C36  1  0.57770000  0.91850000  0.94350000  1.0
  C  C37  1  0.96660000  0.47510000  0.73670000  1.0
  C  C38  1  0.88440000  0.55860000  0.67440000  1.0
  C  C39  1  0.83100000  0.66290000  0.69290000  1.0
  C  C40  1  0.75890000  0.74110000  0.63530000  1.0
  C  C41  1  0.74040000  0.71590000  0.55670000  1.0
  C  C42  1  0.66340000  0.80230000  0.49370000  1.0
  C  C43  1  0.79410000  0.61190000  0.53770000  1.0
  C  C44  1  0.86420000  0.53380000  0.59700000  1.0
  C  C45  1  0.33120000  0.47170000  0.69850000  1.0
  C  C46  1  0.42070000  0.48530000  0.59570000  1.0
  C  C47  1  0.48060000  0.40380000  0.53860000  1.0
  C  C48  1  0.43970000  0.58150000  0.55650000  1.0
  O  O1  1  0.71126000  0.00599000  0.30709000  1.0
  O  O2  1  0.87973000  0.88307000  0.21387000  1.0
  O  O3  1  0.13203000  0.28499000  0.91335000  1.0
  O  O4  1  0.99317000  0.39136000  0.02490000  1.0
  O  O5  1  0.57412000  0.88491000  0.23285000  1.0
  O  O6  1  0.42305000  0.04755000  0.24755000  1.0
  O  O7  1  0.02434000  0.49401000  0.19291000  1.0
  O  O8  1  0.97667000  0.61693000  0.28613000  1.0
  O  O9  1  0.33037000  0.21501000  0.58665000  1.0
  O  O10  1  0.40943000  0.10864000  0.47510000  1.0
  O  O11  1  0.69188000  0.61509000  0.26715000  1.0
  O  O12  1  0.71815000  0.45245000  0.25245000  1.0
  O  O13  1  0.28874000  0.99401000  0.69291000  1.0
  O  O14  1  0.12027000  0.11693000  0.78613000  1.0
  O  O15  1  0.86797000  0.71501000  0.08665000  1.0
  O  O16  1  0.00683000  0.60864000  0.97510000  1.0
  O  O17  1  0.42588000  0.11509000  0.76715000  1.0
  O  O18  1  0.57695000  0.95245000  0.75245000  1.0
  O  O19  1  0.97566000  0.50599000  0.80709000  1.0
  O  O20  1  0.02333000  0.38307000  0.71387000  1.0
  O  O21  1  0.66963000  0.78499000  0.41335000  1.0
  O  O22  1  0.59057000  0.89136000  0.52490000  1.0
  O  O23  1  0.30812000  0.38491000  0.73285000  1.0
  O  O24  1  0.28185000  0.54755000  0.74755000  1.0
