# generated using pymatgen
data_H17(C11N2)2
_symmetry_space_group_name_H-M   'P 1'
_cell_length_a   21.00510000
_cell_length_b   21.00510000
_cell_length_c   35.66870000
_cell_angle_alpha   90.00000000
_cell_angle_beta   90.00000000
_cell_angle_gamma   120.00000000
_symmetry_Int_Tables_number   1
_chemical_formula_structural   H17(C11N2)2
_chemical_formula_sum   'H102 C132 N24'
_cell_volume   13629.10758262
_cell_formula_units_Z   6
loop_
 _symmetry_equiv_pos_site_id
 _symmetry_equiv_pos_as_xyz
  1  'x, y, z'
loop_
 _atom_site_type_symbol
 _atom_site_label
 _atom_site_symmetry_multiplicity
 _atom_site_fract_x
 _atom_site_fract_y
 _atom_site_fract_z
 _atom_site_occupancy
  C  1  1  0.40675150  0.45957350  0.02054100  1
  C  2  1  0.36577600  0.49294100  0.03342600  1
  C  3  1  0.34829750  0.49077350  0.07232300  1
  C  4  1  0.38395600  0.46722100  0.09769500  1
  C  5  1  0.43174150  0.44143550  0.08661800  1
  C  6  1  0.43727700  0.43146700  0.04734600  1
  C  7  1  0.34254350  0.52612750  0.00628400  1
  C  8  1  0.47007250  0.39168850  0.03343400  1
  C  10  1  0.41551550  0.45285150  0.98094400  1
  C  11  1  0.39328000  0.48888000  0.95421700  1
  C  12  1  0.40381400  0.48388400  0.91497000  1
  C  13  1  0.42734950  0.43434650  0.90369100  1
  C  14  1  0.44575950  0.39411950  0.92885500  1
  C  15  1  0.44469250  0.40816850  0.96796100  1
  C  16  1  0.35750000  0.52579000  0.96809100  1
  C  18  1  0.47209950  0.37893350  0.99509500  1
  C  23  1  0.47007950  0.42992750  0.11637300  1
  C  24  1  0.45990800  0.33958200  0.91389000  1
  C  25  1  0.39225500  0.52226300  0.88525900  1
  C  26  1  0.29562300  0.50807800  0.08680000  1
  C  31  1  0.92375950  0.47875250  0.35387200  1
  C  32  1  0.99810700  0.51968800  0.36675500  1
  C  33  1  0.01344200  0.53710800  0.40565500  1
  C  34  1  0.95423650  0.50143450  0.43103000  1
  C  35  1  0.88065100  0.45370700  0.41995600  1
  C  36  1  0.86513350  0.44820150  0.38068300  1
  C  37  1  0.05452050  0.54296950  0.33960800  1
  C  38  1  0.79255600  0.41544300  0.36677700  1
  C  40  1  0.90825950  0.47000350  0.31427700  1
  C  41  1  0.96650850  0.49222950  0.28754300  1
  C  42  1  0.95096150  0.48166350  0.24830100  1
  C  43  1  0.87788150  0.45809250  0.23702800  1
  C  44  1  0.81926100  0.43972700  0.26219800  1
  C  45  1  0.83439150  0.44081950  0.30130200  1
  C  46  1  0.03919950  0.52809350  0.30141200  1
  C  48  1  0.77776350  0.41347350  0.32844400  1
  C  53  1  0.83081750  0.41541050  0.44971900  1
  C  54  1  0.75055450  0.42552450  0.24723800  1
  C  55  1  0.00086850  0.49323850  0.21857200  1
  C  56  1  0.08343900  0.58975500  0.42012400  1
  C  61  1  0.42587450  0.96170050  0.68718800  1
  C  62  1  0.39251500  0.88735800  0.70007000  1
  C  63  1  0.39463500  0.87204100  0.73897100  1
  C  64  1  0.41812250  0.93124450  0.76434300  1
  C  65  1  0.44392350  0.00481850  0.75326500  1
  C  66  1  0.45391550  0.02032850  0.71399500  1
  C  67  1  0.35939550  0.83094050  0.67292300  1
  C  68  1  0.49364350  0.09291150  0.70009000  1
  C  70  1  0.43262650  0.97719650  0.64759300  1
  C  71  1  0.39661200  0.91894200  0.62086000  1
  C  72  1  0.40164750  0.93448350  0.58161300  1
  C  73  1  0.45116250  0.00756250  0.57034300  1
  C  74  1  0.49138850  0.06618850  0.59551300  1
  C  75  1  0.47731450  0.05106450  0.63461800  1
  C  76  1  0.35976450  0.84624750  0.63473000  1
  C  78  1  0.50656550  0.10769450  0.66175900  1
  C  83  1  0.45540550  0.05465750  0.78301500  1
  C  84  1  0.54589400  0.13489500  0.58055600  1
  C  85  1  0.36331600  0.88457800  0.55188700  1
  C  86  1  0.37729850  0.80205050  0.75345200  1
  C  91  1  0.46945850  0.17341650  0.80475100  1
  C  92  1  0.48080250  0.24148650  0.79108400  1
  C  93  1  0.48023850  0.29416850  0.81575200  1
  C  94  1  0.46962500  0.28043700  0.85468900  1
  C  95  1  0.46100150  0.21356550  0.86849700  1
  C  96  1  0.46046550  0.16082450  0.84391900  1
  C  98  1  0.50381850  0.37624150  0.76371800  1
  C  99  1  0.50442050  0.32342450  0.73899500  1
  C  103  1  0.51707400  0.45036600  0.75316800  1
  C  104  1  0.58865550  0.51284050  0.77044600  1
  C  110  1  0.51790650  0.33299050  0.69796200  1
  C  111  1  0.44914300  0.31946300  0.67569000  1
  C  119  1  0.57482400  0.41594400  0.13809500  1
  C  120  1  0.63157100  0.40463200  0.12442700  1
  C  121  1  0.68481700  0.40520300  0.14909600  1
  C  122  1  0.68168700  0.41579700  0.18803500  1
  C  123  1  0.62342450  0.42439950  0.20184000  1
  C  124  1  0.57119650  0.42489250  0.17726400  1
  C  126  1  0.74335600  0.38168800  0.09706200  1
  C  127  1  0.68992300  0.38105800  0.07234000  1
  C  131  1  0.80424900  0.36846900  0.08651200  1
  C  132  1  0.79516850  0.29689350  0.10378500  1
  C  138  1  0.68603550  0.36761350  0.03130400  1
  C  139  1  0.74126550  0.43640850  0.00904900  1
  C  147  1  0.71207150  0.31066050  0.47142900  1
  C  148  1  0.64401750  0.25391750  0.45775900  1
  C  149  1  0.59133850  0.20065750  0.48241900  1
  C  150  1  0.60505300  0.20377700  0.52136100  1
  C  151  1  0.67190850  0.26204250  0.53517400  1
  C  152  1  0.72464600  0.31426000  0.51060100  1
  C  154  1  0.50929000  0.14214900  0.43037900  1
  C  155  1  0.56210350  0.19558550  0.40566300  1
  C  159  1  0.43518300  0.08125700  0.41982400  1
  C  160  1  0.37268250  0.09033050  0.43709700  1
  C  166  1  0.55253850  0.19951050  0.36463000  1
  C  167  1  0.56610250  0.14430450  0.34235300  1
  C  175  1  0.37932450  0.73418750  0.81171100  1
  C  176  1  0.35963050  0.66275150  0.79906900  1
  C  177  1  0.36110050  0.61061850  0.82394700  1
  C  178  1  0.38181050  0.62858950  0.86211100  1
  C  179  1  0.39690150  0.69840750  0.87480500  1
  C  180  1  0.39646900  0.75040300  0.85003800  1
  C  182  1  0.31731050  0.52071650  0.77397700  1
  C  183  1  0.31713300  0.57332500  0.74907900  1
  C  187  1  0.29464150  0.44318750  0.76491100  1
  C  188  1  0.22541450  0.38772950  0.78683500  1
  C  194  1  0.29520800  0.56052400  0.70899700  1
  C  195  1  0.35640700  0.56416800  0.68347800  1
  C  203  1  0.22568650  0.50603850  0.14504800  1
  C  204  1  0.17401100  0.52582600  0.13240900  1
  C  205  1  0.12041900  0.52438900  0.15728200  1
  C  206  1  0.11763650  0.50363450  0.19544200  1
  C  207  1  0.17233500  0.48850700  0.20814200  1
  C  208  1  0.22472600  0.48887100  0.18337300  1
  C  210  1  0.07442250  0.56831550  0.10732000  1
  C  211  1  0.12719750  0.56845950  0.08242700  1
  C  215  1  0.01961550  0.59105350  0.09825300  1
  C  216  1  0.03343350  0.66028350  0.12019100  1
  C  222  1  0.13639100  0.59046200  0.04235500  1
  C  223  1  0.07884800  0.52934000  0.01680300  1
  C  231  1  0.15132100  0.65970400  0.47837100  1
  C  232  1  0.22277100  0.71140300  0.46572700  1
  C  233  1  0.27491300  0.76501900  0.49059800  1
  C  234  1  0.25693700  0.76781600  0.52875400  1
  C  235  1  0.18710200  0.71313000  0.54145200  1
  C  236  1  0.13510000  0.66068900  0.51669300  1
  C  238  1  0.36483350  0.81103150  0.44063500  1
  C  239  1  0.31222050  0.75822650  0.41574650  1
  C  243  1  0.44237300  0.86585000  0.43156800  1
  C  244  1  0.49780250  0.85207550  0.45351500  1
  C  250  1  0.32502650  0.74903850  0.37567300  1
  C  251  1  0.32142200  0.80657300  0.35012400  1
  H  9  1  0.37582850  0.47040450  0.12581200  1
  H  17  1  0.43098950  0.42695250  0.87553300  1
  H  19  1  0.33632000  0.54871400  0.95052200  1
  H  20  1  0.31588050  0.55360150  0.01369100  1
  H  21  1  0.49651550  0.34931850  0.98758200  1
  H  22  1  0.48832250  0.36597350  0.05094300  1
  H  27  1  0.45770100  0.43706500  0.14320800  1
  H  28  1  0.46210500  0.30224100  0.93124300  1
  H  29  1  0.39602500  0.50689700  0.85860300  1
  H  30  1  0.26594450  0.52027250  0.06877900  1
  H  39  1  0.96555500  0.50955600  0.45914400  1
  H  47  1  0.86682650  0.45441250  0.20886800  1
  H  49  1  0.08330450  0.54906650  0.28384700  1
  H  50  1  0.10865650  0.56948450  0.34701500  1
  H  51  1  0.72372550  0.38898150  0.32093600  1
  H  52  1  0.74859650  0.39717150  0.38429100  1
  H  57  1  0.85031750  0.42771750  0.47655700  1
  H  58  1  0.71101900  0.42334600  0.26458700  1
  H  59  1  0.98177750  0.48942450  0.19190700  1
  H  60  1  0.12527150  0.61952650  0.40209700  1
  H  69  1  0.41491850  0.91993650  0.79246000  1
  H  77  1  0.45856250  0.01860950  0.54218600  1
  H  79  1  0.33677250  0.80215750  0.61715400  1
  H  80  1  0.33183750  0.77680550  0.68033000  1
  H  81  1  0.53613100  0.16173100  0.65424800  1
  H  82  1  0.51943850  0.13688050  0.71759000  1
  H  87  1  0.44824000  0.03516400  0.80985700  1
  H  88  1  0.58323450  0.17443850  0.59790700  1
  H  89  1  0.37861450  0.90366050  0.52522200  1
  H  90  1  0.36523550  0.76023850  0.73541100  1
  H  101  1  0.45188100  0.11246500  0.85513200  1
  H  102  1  0.45231950  0.20135650  0.89641400  1
  H  105  1  0.47073250  0.45583050  0.76290600  1
  H  106  1  0.52038650  0.45820550  0.72288900  1
  H  107  1  0.58607900  0.51057200  0.80103100  1
  H  108  1  0.59648450  0.56600550  0.76151800  1
  H  109  1  0.63593750  0.50855250  0.76118900  1
  H  112  1  0.53412350  0.29405350  0.68770600  1
  H  113  1  0.56378950  0.38788650  0.69199000  1
  H  114  1  0.43070250  0.35746550  0.68426900  1
  H  115  1  0.40434650  0.26325150  0.68006900  1
  H  116  1  0.46203100  0.32726400  0.64581200  1
  H  129  1  0.53140550  0.43345350  0.18847800  1
  H  130  1  0.61985600  0.43302500  0.22976100  1
  H  133  1  0.85604250  0.41482050  0.09625400  1
  H  134  1  0.80878350  0.36516750  0.05623300  1
  H  135  1  0.79547100  0.29946100  0.13437200  1
  H  136  1  0.84052050  0.28908850  0.09485800  1
  H  137  1  0.74361200  0.24960200  0.09452400  1
  H  140  1  0.63088050  0.35138450  0.02104200  1
  H  141  1  0.69507550  0.32175350  0.02532100  1
  H  142  1  0.79770650  0.45486050  0.01763000  1
  H  143  1  0.72982550  0.48118550  0.01343900  1
  H  144  1  0.73619600  0.42354900  0.97916400  1
  H  157  1  0.77299350  0.35404950  0.52181800  1
  H  158  1  0.68410450  0.26557250  0.56309300  1
  H  161  1  0.42974000  0.02946100  0.42956100  1
  H  162  1  0.42735250  0.07673250  0.38954500  1
  H  163  1  0.37494100  0.09001600  0.46768400  1
  H  164  1  0.31952850  0.04498050  0.42816500  1
  H  165  1  0.37694850  0.14188950  0.42784200  1
  H  168  1  0.59146250  0.25467750  0.35438000  1
  H  169  1  0.49763600  0.19047500  0.35865500  1
  H  170  1  0.52811750  0.08785550  0.35092600  1
  H  171  1  0.62232150  0.15574350  0.34673500  1
  H  172  1  0.55830450  0.14939850  0.31247500  1
  H  185  1  0.41073650  0.80144150  0.86019100  1
  H  186  1  0.41191350  0.71347750  0.90211900  1
  H  189  1  0.33984750  0.43367950  0.77188700  1
  H  190  1  0.28326850  0.43150950  0.73512700  1
  H  191  1  0.23561500  0.39371900  0.81700500  1
  H  192  1  0.21035500  0.33173900  0.77887600  1
  H  193  1  0.17932600  0.39619400  0.78044300  1
  H  196  1  0.28262100  0.60241000  0.69925400  1
  H  197  1  0.24489250  0.50756650  0.70570000  1
  H  198  1  0.37084950  0.52283050  0.69144900  1
  H  199  1  0.40556600  0.61844900  0.68526100  1
  H  200  1  0.33755050  0.55434850  0.65442500  1
  H  213  1  0.26147050  0.47456950  0.19353000  1
  H  214  1  0.17232800  0.47343200  0.23545200  1
  H  217  1  0.96488050  0.54587050  0.10521700  1
  H  218  1  0.01934150  0.60245750  0.06847300  1
  H  219  1  0.02919900  0.65005700  0.15035800  1
  H  220  1  0.99254150  0.67539750  0.11223200  1
  H  221  1  0.08800750  0.70634550  0.11381000  1
  H  224  1  0.19086750  0.60302650  0.03262700  1
  H  225  1  0.13380250  0.64081050  0.03907800  1
  H  226  1  0.02306900  0.51492300  0.02475700  1
  H  227  1  0.08392100  0.48015000  0.01856400  1
  H  228  1  0.08793750  0.54825250  0.98775700  1
  H  241  1  0.08405050  0.62394850  0.52684800  1
  H  242  1  0.17203250  0.71311350  0.56876100  1
  H  245  1  0.45190350  0.92058450  0.43851800  1
  H  246  1  0.45405900  0.86611400  0.40178800  1
  H  247  1  0.49180550  0.85632650  0.48368100  1
  H  248  1  0.55380300  0.89297600  0.44555500  1
  H  249  1  0.48931150  0.79750550  0.44714800  1
  H  252  1  0.28312500  0.69455900  0.36594500  1
  H  253  1  0.37797050  0.75164850  0.37239300  1
  H  254  1  0.36277500  0.86235700  0.35807500  1
  H  255  1  0.26715350  0.80148350  0.35188800  1
  H  256  1  0.33124150  0.79748750  0.32107900  1
  N  97  1  0.49156250  0.35842450  0.80070900  1
  N  100  1  0.49275550  0.25898550  0.75410600  1
  N  117  1  0.46560250  0.12323750  0.77936100  1
  N  118  1  0.46555450  0.33107050  0.87658800  1
  N  125  1  0.73777550  0.39391750  0.13405500  1
  N  128  1  0.63713400  0.39270000  0.08744800  1
  N  145  1  0.52848800  0.41978300  0.11270600  1
  N  146  1  0.73639250  0.41987850  0.20993700  1
  N  153  1  0.52709700  0.14770800  0.46737300  1
  N  156  1  0.62652750  0.24837250  0.42077700  1
  N  173  1  0.76225600  0.35700300  0.44604600  1
  N  174  1  0.55442400  0.14906100  0.54325400  1
  N  181  1  0.33925450  0.54280850  0.80979200  1
  N  184  1  0.33802250  0.64102350  0.76324000  1
  N  201  1  0.38518450  0.79021250  0.79014200  1
  N  202  1  0.39041150  0.58563750  0.88797000  1
  N  209  1  0.07451500  0.54631500  0.14313000  1
  N  212  1  0.17394800  0.54749400  0.09658500  1
  N  229  1  0.27584800  0.50016600  0.12348500  1
  N  230  1  0.06607250  0.49504750  0.22129400  1
  N  237  1  0.34273600  0.81093900  0.47644200  1
  N  240  1  0.24450700  0.71146300  0.42990800  1
  N  257  1  0.09529050  0.60952850  0.45680900  1
  N  258  1  0.29991000  0.81938200  0.55460600  1
