# generated using pymatgen
data_NiH8(C3O2)6
_symmetry_space_group_name_H-M   'P 1'
_cell_length_a   10.76889000
_cell_length_b   10.79572000
_cell_length_c   30.40562000
_cell_angle_alpha   89.96724000
_cell_angle_beta   89.94792000
_cell_angle_gamma   89.95360000
_symmetry_Int_Tables_number   1
_chemical_formula_structural   NiH8(C3O2)6
_chemical_formula_sum   'Ni4 H32 C72 O48'
_cell_volume   3534.89097673
_cell_formula_units_Z   4
loop_
 _symmetry_equiv_pos_site_id
 _symmetry_equiv_pos_as_xyz
  1  'x, y, z'
loop_
 _atom_site_type_symbol
 _atom_site_label
 _atom_site_symmetry_multiplicity
 _atom_site_fract_x
 _atom_site_fract_y
 _atom_site_fract_z
 _atom_site_occupancy
  Ni  Ni0  1  0.30524000  0.30145000  0.74970000  1
  Ni  Ni1  1  0.69706000  0.69501000  0.24986000  1
  Ni  Ni2  1  0.19697000  0.80283000  0.99965000  1
  Ni  Ni3  1  0.80379000  0.19809000  0.49987000  1
  H  H4  1  0.00473000  0.20823000  0.61598000  1
  H  H5  1  0.03897000  0.82313000  0.57901000  1
  H  H6  1  0.25343000  0.96719000  0.68698000  1
  H  H7  1  0.31231000  0.66489000  0.68191000  1
  H  H8  1  0.99748000  0.79105000  0.11592000  1
  H  H9  1  0.96159000  0.17601000  0.07906000  1
  H  H10  1  0.74740000  0.03083000  0.18708000  1
  H  H11  1  0.68716000  0.33379000  0.18195000  1
  H  H12  1  0.28966000  0.50530000  0.86596000  1
  H  H13  1  0.67654000  0.53809000  0.82892000  1
  H  H14  1  0.53159000  0.75298000  0.93648000  1
  H  H15  1  0.83443000  0.81207000  0.93134000  1
  H  H16  1  0.70951000  0.49466000  0.36578000  1
  H  H17  1  0.32271000  0.45936000  0.32905000  1
  H  H18  1  0.46909000  0.24601000  0.43672000  1
  H  H19  1  0.16601000  0.18412000  0.43143000  1
  H  H20  1  0.50552000  0.29205000  0.63413000  1
  H  H21  1  0.54010000  0.67694000  0.67129000  1
  H  H22  1  0.75478000  0.53318000  0.56333000  1
  H  H23  1  0.81350000  0.83478000  0.56815000  1
  H  H24  1  0.49570000  0.70874000  0.13322000  1
  H  H25  1  0.46060000  0.32396000  0.17072000  1
  H  H26  1  0.24559000  0.46823000  0.06293000  1
  H  H27  1  0.18682000  0.16503000  0.06853000  1
  H  H28  1  0.78983000  0.99502000  0.38395000  1
  H  H29  1  0.17627000  0.96121000  0.42059000  1
  H  H30  1  0.03158000  0.74666000  0.31296000  1
  H  H31  1  0.33473000  0.68754000  0.31812000  1
  H  H32  1  0.20966000  0.00344000  0.88417000  1
  H  H33  1  0.82337000  0.04001000  0.92085000  1
  H  H34  1  0.96983000  0.25211000  0.81270000  1
  H  H35  1  0.66590000  0.31300000  0.81801000  1
  C  C36  1  0.13185000  0.09783000  0.65454000  1
  C  C37  1  0.04576000  0.11716000  0.62076000  1
  C  C38  1  0.01157000  0.01831000  0.59335000  1
  C  C39  1  0.06451000  0.90115000  0.59977000  1
  C  C40  1  0.15218000  0.88340000  0.63327000  1
  C  C41  1  0.18612000  0.98138000  0.66086000  1
  C  C42  1  0.16753000  0.20043000  0.68483000  1
  C  C43  1  0.91773000  0.03934000  0.55778000  1
  C  C44  1  0.20662000  0.75814000  0.64122000  1
  C  C45  1  0.87003000  0.90048000  0.15499000  1
  C  C46  1  0.95581000  0.88176000  0.12096000  1
  C  C47  1  0.98912000  0.98112000  0.09350000  1
  C  C48  1  0.93578000  0.09806000  0.09986000  1
  C  C49  1  0.84814000  0.11528000  0.13345000  1
  C  C50  1  0.81520000  0.01686000  0.16108000  1
  C  C51  1  0.83401000  0.79791000  0.18549000  1
  C  C52  1  0.08297000  0.96083000  0.05774000  1
  C  C53  1  0.79366000  0.24083000  0.14127000  1
  C  C54  1  0.40058000  0.63229000  0.90413000  1
  C  C55  1  0.38109000  0.54608000  0.87059000  1
  C  C56  1  0.48052000  0.51160000  0.84334000  1
  C  C57  1  0.59816000  0.56393000  0.84962000  1
  C  C58  1  0.61596000  0.65158000  0.88294000  1
  C  C59  1  0.51755000  0.68593000  0.91040000  1
  C  C60  1  0.29772000  0.66912000  0.93426000  1
  C  C61  1  0.46054000  0.41762000  0.80798000  1
  C  C62  1  0.74157000  0.70609000  0.89051000  1
  C  C63  1  0.59913000  0.36812000  0.40457000  1
  C  C64  1  0.61824000  0.45329000  0.37061000  1
  C  C65  1  0.51856000  0.48612000  0.34320000  1
  C  C66  1  0.40097000  0.43353000  0.34976000  1
  C  C67  1  0.38365000  0.34606000  0.38324000  1
  C  C68  1  0.48260000  0.31316000  0.41067000  1
  C  C69  1  0.70211000  0.33358000  0.43504000  1
  C  C70  1  0.53922000  0.57994000  0.30757000  1
  C  C71  1  0.25854000  0.29011000  0.39078000  1
  C  C72  1  0.63368000  0.40184000  0.59558000  1
  C  C73  1  0.54719000  0.38288000  0.62923000  1
  C  C74  1  0.51361000  0.48182000  0.65669000  1
  C  C75  1  0.56599000  0.59922000  0.65044000  1
  C  C76  1  0.65332000  0.61702000  0.61686000  1
  C  C77  1  0.68720000  0.51883000  0.58932000  1
  C  C78  1  0.67017000  0.29844000  0.56556000  1
  C  C79  1  0.41985000  0.46032000  0.69222000  1
  C  C80  1  0.70738000  0.74249000  0.60919000  1
  C  C81  1  0.36731000  0.59863000  0.09505000  1
  C  C82  1  0.45424000  0.61778000  0.12848000  1
  C  C83  1  0.48854000  0.51894000  0.15590000  1
  C  C84  1  0.43521000  0.40184000  0.14987000  1
  C  C85  1  0.34730000  0.38379000  0.11654000  1
  C  C86  1  0.31313000  0.48184000  0.08896000  1
  C  C87  1  0.33041000  0.70224000  0.06511000  1
  C  C88  1  0.58306000  0.53936000  0.19118000  1
  C  C89  1  0.29251000  0.25847000  0.10914000  1
  C  C90  1  0.89999000  0.86750000  0.34543000  1
  C  C91  1  0.88109000  0.95397000  0.37903000  1
  C  C92  1  0.98069000  0.98833000  0.40616000  1
  C  C93  1  0.09813000  0.93533000  0.39985000  1
  C  C94  1  0.11585000  0.84751000  0.36650000  1
  C  C95  1  0.01715000  0.81372000  0.33907000  1
  C  C96  1  0.79576000  0.83206000  0.31553000  1
  C  C97  1  0.96008000  0.08255000  0.44150000  1
  C  C98  1  0.24146000  0.79317000  0.35864000  1
  C  C99  1  0.10019000  0.13072000  0.84516000  1
  C  C100  1  0.11869000  0.04482000  0.87899000  1
  C  C101  1  0.01892000  0.01162000  0.90627000  1
  C  C102  1  0.90162000  0.06491000  0.89994000  1
  C  C103  1  0.88470000  0.15261000  0.86646000  1
  C  C104  1  0.98361000  0.18540000  0.83895000  1
  C  C105  1  0.20349000  0.16552000  0.81487000  1
  C  C106  1  0.03942000  0.91801000  0.94185000  1
  C  C107  1  0.75900000  0.20688000  0.85861000  1
  O  O108  1  0.26004000  0.17544000  0.71126000  1
  O  O109  1  0.11295000  0.30260000  0.68479000  1
  O  O110  1  0.92060000  0.15103000  0.54181000  1
  O  O111  1  0.84421000  0.95686000  0.54492000  1
  O  O112  1  0.17458000  0.66658000  0.61948000  1
  O  O113  1  0.28852000  0.75476000  0.67368000  1
  O  O114  1  0.74482000  0.82481000  0.21320000  1
  O  O115  1  0.88520000  0.69397000  0.18463000  1
  O  O116  1  0.08051000  0.84893000  0.04196000  1
  O  O117  1  0.15612000  0.04335000  0.04468000  1
  O  O118  1  0.82545000  0.33220000  0.11955000  1
  O  O119  1  0.71154000  0.24401000  0.17372000  1
  O  O120  1  0.32497000  0.75783000  0.96181000  1
  O  O121  1  0.19315000  0.61936000  0.93355000  1
  O  O122  1  0.34935000  0.42035000  0.79137000  1
  O  O123  1  0.54335000  0.34367000  0.79570000  1
  O  O124  1  0.83251000  0.67451000  0.86847000  1
  O  O125  1  0.74463000  0.78801000  0.92297000  1
  O  O126  1  0.67556000  0.24447000  0.46263000  1
  O  O127  1  0.80582000  0.38504000  0.43373000  1
  O  O128  1  0.64997000  0.57393000  0.29056000  1
  O  O129  1  0.45877000  0.65662000  0.29560000  1
  O  O130  1  0.16724000  0.32156000  0.36869000  1
  O  O131  1  0.25598000  0.20709000  0.42290000  1
  O  O132  1  0.75793000  0.32572000  0.53749000  1
  O  O133  1  0.62031000  0.19399000  0.56683000  1
  O  O134  1  0.42528000  0.34920000  0.70879000  1
  O  O135  1  0.34378000  0.54116000  0.70429000  1
  O  O136  1  0.67393000  0.83340000  0.63082000  1
  O  O137  1  0.79156000  0.74521000  0.57731000  1
  O  O138  1  0.24233000  0.67478000  0.03725000  1
  O  O139  1  0.37988000  0.80661000  0.06650000  1
  O  O140  1  0.58153000  0.65131000  0.20698000  1
  O  O141  1  0.65587000  0.45647000  0.20413000  1
  O  O142  1  0.32588000  0.16756000  0.13099000  1
  O  O143  1  0.20849000  0.25493000  0.07730000  1
  O  O144  1  0.81994000  0.73837000  0.28962000  1
  O  O145  1  0.69400000  0.88781000  0.31534000  1
  O  O146  1  0.84866000  0.08058000  0.45789000  1
  O  O147  1  0.04296000  0.15649000  0.45379000  1
  O  O148  1  0.33292000  0.82557000  0.38043000  1
  O  O149  1  0.24470000  0.71123000  0.32623000  1
  O  O150  1  0.17828000  0.25598000  0.78766000  1
  O  O151  1  0.30642000  0.11211000  0.81524000  1
  O  O152  1  0.15098000  0.92074000  0.95814000  1
  O  O153  1  0.95672000  0.84409000  0.95421000  1
  O  O154  1  0.66764000  0.17456000  0.88037000  1
  O  O155  1  0.75592000  0.28890000  0.82621000  1
