# generated using pymatgen
data_Zn2SiH16(C7O2)4
_symmetry_space_group_name_H-M   'P 1'
_cell_length_a   13.03186000
_cell_length_b   13.03186000
_cell_length_c   23.63398000
_cell_angle_alpha   90.00000000
_cell_angle_beta   90.00000000
_cell_angle_gamma   90.00000000
_symmetry_Int_Tables_number   1
_chemical_formula_structural   Zn2SiH16(C7O2)4
_chemical_formula_sum   'Zn4 Si2 H32 C56 O16'
_cell_volume   4013.74405357
_cell_formula_units_Z   2
loop_
 _symmetry_equiv_pos_site_id
 _symmetry_equiv_pos_as_xyz
  1  'x, y, z'
loop_
 _atom_site_type_symbol
 _atom_site_label
 _atom_site_symmetry_multiplicity
 _atom_site_fract_x
 _atom_site_fract_y
 _atom_site_fract_z
 _atom_site_occupancy
  Zn  Zn0  1  0.59826000  0.00000000  0.00000000  1
  Zn  Zn1  1  0.40173000  0.00000000  0.00000000  1
  Zn  Zn2  1  0.00000000  0.59826000  0.50000000  1
  Zn  Zn3  1  0.00000000  0.40173000  0.50000000  1
  Si  Si4  1  0.50000000  0.50000000  0.75000000  1
  Si  Si5  1  0.50000000  0.50000000  0.25000000  1
  H  H6  1  0.66564000  0.62760000  0.80250000  1
  H  H7  1  0.66449000  0.76768000  0.87378000  1
  H  H8  1  0.33436000  0.37239000  0.80250000  1
  H  H9  1  0.33551000  0.23232000  0.87378000  1
  H  H10  1  0.37239000  0.66564000  0.30250000  1
  H  H11  1  0.23232000  0.66449000  0.37378000  1
  H  H12  1  0.62760000  0.33436000  0.30250000  1
  H  H13  1  0.76768000  0.33551000  0.37378000  1
  H  H14  1  0.33436000  0.62760000  0.19751000  1
  H  H15  1  0.33551000  0.76768000  0.12622000  1
  H  H16  1  0.66564000  0.37239000  0.19751000  1
  H  H17  1  0.66449000  0.23232000  0.12622000  1
  H  H18  1  0.62760000  0.66564000  0.69751000  1
  H  H19  1  0.76768000  0.66449000  0.62622000  1
  H  H20  1  0.37239000  0.33436000  0.69751000  1
  H  H21  1  0.23232000  0.33551000  0.62622000  1
  H  H22  1  0.33436000  0.37239000  0.19751000  1
  H  H23  1  0.33551000  0.23232000  0.12622000  1
  H  H24  1  0.66564000  0.62760000  0.19751000  1
  H  H25  1  0.66449000  0.76768000  0.12622000  1
  H  H26  1  0.62760000  0.33436000  0.69751000  1
  H  H27  1  0.76768000  0.33551000  0.62622000  1
  H  H28  1  0.37239000  0.66564000  0.69751000  1
  H  H29  1  0.23232000  0.66449000  0.62622000  1
  H  H30  1  0.66564000  0.37239000  0.80250000  1
  H  H31  1  0.66449000  0.23232000  0.87378000  1
  H  H32  1  0.33436000  0.62760000  0.80250000  1
  H  H33  1  0.33551000  0.76768000  0.87378000  1
  H  H34  1  0.37239000  0.33436000  0.30250000  1
  H  H35  1  0.23232000  0.33551000  0.37378000  1
  H  H36  1  0.62760000  0.66564000  0.30250000  1
  H  H37  1  0.76768000  0.66449000  0.37378000  1
  C  C38  1  0.59270000  0.65757000  0.81773000  1
  C  C39  1  0.59295000  0.73622000  0.85774000  1
  C  C40  1  0.40730000  0.34242000  0.81773000  1
  C  C41  1  0.40705000  0.26378000  0.85774000  1
  C  C42  1  0.34242000  0.59269000  0.31773000  1
  C  C43  1  0.26378000  0.59295000  0.35774000  1
  C  C44  1  0.65757000  0.40730000  0.31773000  1
  C  C45  1  0.73622000  0.40705000  0.35774000  1
  C  C46  1  0.40730000  0.65757000  0.18228000  1
  C  C47  1  0.40705000  0.73622000  0.14226000  1
  C  C48  1  0.59270000  0.34242000  0.18228000  1
  C  C49  1  0.59295000  0.26378000  0.14226000  1
  C  C50  1  0.65757000  0.59269000  0.68228000  1
  C  C51  1  0.73622000  0.59295000  0.64227000  1
  C  C52  1  0.34242000  0.40730000  0.68228000  1
  C  C53  1  0.26378000  0.40705000  0.64227000  1
  C  C54  1  0.40730000  0.34242000  0.18228000  1
  C  C55  1  0.40705000  0.26378000  0.14226000  1
  C  C56  1  0.59270000  0.65757000  0.18228000  1
  C  C57  1  0.59295000  0.73622000  0.14226000  1
  C  C58  1  0.65757000  0.40730000  0.68228000  1
  C  C59  1  0.73622000  0.40705000  0.64227000  1
  C  C60  1  0.34242000  0.59269000  0.68228000  1
  C  C61  1  0.26378000  0.59295000  0.64227000  1
  C  C62  1  0.59270000  0.34242000  0.81773000  1
  C  C63  1  0.59295000  0.26378000  0.85774000  1
  C  C64  1  0.40730000  0.65757000  0.81773000  1
  C  C65  1  0.40705000  0.73622000  0.85774000  1
  C  C66  1  0.34242000  0.40730000  0.31773000  1
  C  C67  1  0.26378000  0.40705000  0.35774000  1
  C  C68  1  0.65757000  0.59269000  0.31773000  1
  C  C69  1  0.73622000  0.59295000  0.35774000  1
  C  C70  1  0.50000000  0.61642000  0.79705000  1
  C  C71  1  0.50000000  0.77551000  0.87839000  1
  C  C72  1  0.49999000  0.85769000  0.92249000  1
  C  C73  1  0.50000000  0.38358000  0.79705000  1
  C  C74  1  0.50000000  0.22449000  0.87839000  1
  C  C75  1  0.49999000  0.14230000  0.92249000  1
  C  C76  1  0.38358000  0.50000000  0.29705000  1
  C  C77  1  0.22449000  0.50000000  0.37839000  1
  C  C78  1  0.14230000  0.50000000  0.42249000  1
  C  C79  1  0.61642000  0.50000000  0.29705000  1
  C  C80  1  0.77551000  0.50000000  0.37839000  1
  C  C81  1  0.85769000  0.50000000  0.42249000  1
  C  C82  1  0.50000000  0.61642000  0.20295000  1
  C  C83  1  0.50000000  0.77551000  0.12162000  1
  C  C84  1  0.49999000  0.85769000  0.07751000  1
  C  C85  1  0.50000000  0.38358000  0.20295000  1
  C  C86  1  0.50000000  0.22449000  0.12162000  1
  C  C87  1  0.49999000  0.14230000  0.07751000  1
  C  C88  1  0.61642000  0.50000000  0.70296000  1
  C  C89  1  0.77551000  0.50000000  0.62162000  1
  C  C90  1  0.85769000  0.50000000  0.57751000  1
  C  C91  1  0.38358000  0.50000000  0.70296000  1
  C  C92  1  0.22449000  0.50000000  0.62162000  1
  C  C93  1  0.14230000  0.50000000  0.57751000  1
  O  O94  1  0.58742000  0.88969000  0.93986000  1
  O  O95  1  0.41259000  0.11031000  0.93986000  1
  O  O96  1  0.11031000  0.58742000  0.43986000  1
  O  O97  1  0.88969000  0.41258000  0.43986000  1
  O  O98  1  0.41259000  0.88968000  0.06014000  1
  O  O99  1  0.58742000  0.11031000  0.06014000  1
  O  O100  1  0.88969000  0.58742000  0.56014000  1
  O  O101  1  0.11031000  0.41258000  0.56014000  1
  O  O102  1  0.41259000  0.11031000  0.06014000  1
  O  O103  1  0.58742000  0.88969000  0.06014000  1
  O  O104  1  0.88969000  0.41258000  0.56014000  1
  O  O105  1  0.11031000  0.58742000  0.56014000  1
  O  O106  1  0.58742000  0.11031000  0.93986000  1
  O  O107  1  0.41259000  0.88968000  0.93986000  1
  O  O108  1  0.11031000  0.41258000  0.43986000  1
  O  O109  1  0.88969000  0.58742000  0.43986000  1
