# generated using pymatgen
data_Cr3H36C30O13
_symmetry_space_group_name_H-M   'P 1'
_cell_length_a   11.29618000
_cell_length_b   11.31846580
_cell_length_c   18.71403000
_cell_angle_alpha   90.10519460
_cell_angle_beta   90.09436000
_cell_angle_gamma   119.93218806
_symmetry_Int_Tables_number   1
_chemical_formula_structural   Cr3H36C30O13
_chemical_formula_sum   'Cr6 H72 C60 O26'
_cell_volume   2073.53249040
_cell_formula_units_Z   2
loop_
 _symmetry_equiv_pos_site_id
 _symmetry_equiv_pos_as_xyz
  1  'x, y, z'
loop_
 _atom_site_type_symbol
 _atom_site_label
 _atom_site_symmetry_multiplicity
 _atom_site_fract_x
 _atom_site_fract_y
 _atom_site_fract_z
 _atom_site_occupancy
  C  C0  1  0.23752500  0.52256000  0.63917000  1
  C  C1  1  0.71512500  0.47740000  0.36087000  1
  C  C2  1  0.68026000  0.62186000  0.44913500  1
  C  C3  1  0.05826000  0.37814000  0.55070000  1
  C  C4  1  0.69045000  0.49412000  0.43680000  1
  C  C5  1  0.19615000  0.50590000  0.56322000  1
  C  C6  1  0.66957500  0.52014000  0.57421500  1
  C  C7  1  0.14950000  0.47992000  0.42578000  1
  C  C8  1  0.79570500  0.50703000  0.56206000  1
  C  C9  1  0.28875000  0.49314000  0.43823000  1
  C  C10  1  0.68974000  0.64640000  0.53011000  1
  C  C11  1  0.04335500  0.35362000  0.46973000  1
  C  C12  1  0.79921000  0.00752000  0.45916000  1
  C  C13  1  0.79158000  0.99242000  0.54114500  1
  C  C14  1  0.65856000  0.12930000  0.47443000  1
  C  C15  1  0.52914000  0.87068000  0.52543000  1
  C  C16  1  0.55104000  0.88296000  0.44440000  1
  C  C17  1  0.66795000  0.11698000  0.55550500  1
  C  C18  1  0.67746000  0.02100000  0.43097000  1
  C  C19  1  0.65627000  0.97894000  0.56905000  1
  C  C20  1  0.78929500  0.64054000  0.04817500  1
  C  C21  1  0.17634500  0.37344000  0.95603000  1
  C  C22  1  0.65311000  0.54813000  0.64947500  1
  C  C23  1  0.10512000  0.45192000  0.35050000  1
  C  C24  1  0.78629000  0.64481000  0.96793000  1
  C  C25  1  0.16800500  0.36882000  0.03617000  1
  C  C26  1  0.67980000  0.38566000  0.03195000  1
  C  C27  1  0.28414500  0.63621000  0.96920500  1
  C  C28  1  0.53962500  0.48939000  0.06121000  1
  C  C29  1  0.04442500  0.48938000  0.93760000  1
  C  C30  1  0.67639500  0.49930000  0.07581000  1
  C  C31  1  0.18467000  0.50580000  0.92575000  1
  C  C32  1  0.65462500  0.52136000  0.93657000  1
  C  C33  1  0.13784500  0.48020000  0.06447000  1
  C  C34  1  0.67190500  0.39826000  0.94971000  1
  C  C35  1  0.26439500  0.61740000  0.05112000  1
  C  C36  1  0.52280000  0.49056000  0.97897500  1
  C  C37  1  0.02098000  0.47733000  0.01949000  1
  C  C38  1  0.51515000  0.98945000  0.04228000  1
  C  C39  1  0.51226000  0.98379000  0.96139500  1
  C  C40  1  0.77086500  0.13439000  0.02710500  1
  C  C41  1  0.66705000  0.87456000  0.97339500  1
  C  C42  1  0.66646000  0.89063000  0.05530000  1
  C  C43  1  0.76005500  0.11557000  0.94507000  1
  C  C44  1  0.62692500  0.93822000  0.64497000  1
  C  C45  1  0.68878000  0.06174000  0.35503000  1
  C  C46  1  0.65625000  0.01684000  0.07020000  1
  C  C47  1  0.63685500  0.97602000  0.93131000  1
  C  C48  1  0.22823000  0.52182000  0.84931000  1
  C  C49  1  0.70385000  0.48082000  0.15225000  1
  C  C50  1  0.64107000  0.54888000  0.85923000  1
  C  C51  1  0.09410000  0.45200000  0.14139000  1
  C  C52  1  0.61442500  0.93537000  0.85453500  1
  C  C53  1  0.67700500  0.06064000  0.14669000  1
  C  C54  1  0.55488000  0.37452000  0.46516000  1
  C  C55  1  0.18023000  0.62554000  0.53474000  1
  C  C56  1  0.54728500  0.38476000  0.54635000  1
  C  C57  1  0.16240000  0.61526000  0.45353000  1
  C  C58  1  0.81771500  0.51318000  0.48077500  1
  C  C59  1  0.30443500  0.48687000  0.51953500  1
  Cr  Cr60  1  0.39283000  0.77138000  0.74531000  1
  Cr  Cr61  1  0.62145000  0.22862000  0.25469000  1
  Cr  Cr62  1  0.39761000  0.45976000  0.74819000  1
  Cr  Cr63  1  0.93785000  0.54024000  0.25181000  1
  Cr  Cr64  1  0.70953000  0.77624000  0.75301000  1
  Cr  Cr65  1  0.93329000  0.22376000  0.24699000  1
  H  H66  1  0.54176000  0.27628000  0.44984000  1
  H  H67  1  0.26536000  0.72378000  0.55014000  1
  H  H68  1  0.79627500  0.72756000  0.54053000  1
  H  H69  1  0.06883500  0.27252000  0.45944000  1
  H  H70  1  0.90045000  0.61847000  0.47006000  1
  H  H71  1  0.28177500  0.38154000  0.53029000  1
  H  H72  1  0.88589000  0.59165000  0.58912500  1
  H  H73  1  0.29445500  0.40864000  0.41123000  1
  H  H74  1  0.89626500  0.09226000  0.44230500  1
  H  H75  1  0.80389000  0.90766000  0.55814000  1
  H  H76  1  0.79800000  0.91802000  0.43459000  1
  H  H77  1  0.87982000  0.08190000  0.56583000  1
  H  H78  1  0.72517000  0.23326000  0.45595000  1
  H  H79  1  0.49177000  0.76672000  0.54396000  1
  H  H80  1  0.76519500  0.20064000  0.57693000  1
  H  H81  1  0.56468000  0.79928000  0.42315000  1
  H  H82  1  0.46061000  0.87660000  0.41723000  1
  H  H83  1  0.58376000  0.12324000  0.58243000  1
  H  H84  1  0.89443500  0.66720000  0.06357000  1
  H  H85  1  0.26054000  0.35900000  0.93961500  1
  H  H86  1  0.46685000  0.37576000  0.43998000  1
  H  H87  1  0.09094000  0.62428000  0.55974000  1
  H  H88  1  0.77386500  0.72112000  0.07173000  1
  H  H89  1  0.08496000  0.28265000  0.93351500  1
  H  H90  1  0.80118000  0.74304000  0.95170000  1
  H  H91  1  0.09015500  0.26374000  0.05089500  1
  H  H92  1  0.87792000  0.64468000  0.94629000  1
  H  H93  1  0.26436000  0.38446000  0.05965500  1
  H  H94  1  0.77774500  0.40079000  0.04611000  1
  H  H95  1  0.39026000  0.67727000  0.95353000  1
  H  H96  1  0.76557500  0.41159000  0.92339000  1
  H  H97  1  0.35511500  0.62252000  0.07699500  1
  H  H98  1  0.45760500  0.39282000  0.08446000  1
  H  H99  1  0.03880000  0.57796000  0.91613000  1
  H  H100  1  0.53468000  0.57518000  0.08680000  1
  H  H101  1  0.96519500  0.39746000  0.90916500  1
  H  H102  1  0.48232000  0.55609000  0.96336500  1
  H  H103  1  0.93922500  0.37770000  0.02837500  1
  H  H104  1  0.44560500  0.38523000  0.96431500  1
  H  H105  1  0.99899000  0.55672000  0.03840500  1
  H  H106  1  0.59734500  0.28503000  0.04958500  1
  H  H107  1  0.25549500  0.71309000  0.95474000  1
  H  H108  1  0.44962000  0.37372000  0.56207500  1
  H  H109  1  0.07564500  0.62614000  0.43764000  1
  H  H110  1  0.58449500  0.30450000  0.92698000  1
  H  H111  1  0.24785500  0.69811000  0.07468500  1
  H  H112  1  0.48913000  0.06750000  0.05889000  1
  H  H113  1  0.41454000  0.90157000  0.94315000  1
  H  H114  1  0.43404500  0.89288000  0.06471000  1
  H  H115  1  0.51357000  0.07617000  0.94031000  1
  H  H116  1  0.75456500  0.21610000  0.04016000  1
  H  H117  1  0.60298000  0.76908000  0.95636500  1
  H  H118  1  0.76323000  0.90549000  0.07887500  1
  H  H119  1  0.85450500  0.12217000  0.92313500  1
  H  H120  1  0.77304500  0.90385000  0.95920500  1
  H  H121  1  0.87190500  0.15371000  0.04541000  1
  H  H122  1  0.54751500  0.29681000  0.57193000  1
  H  H123  1  0.25053000  0.70330000  0.42805000  1
  H  H124  1  0.85403000  0.44469000  0.46379000  1
  H  H125  1  0.40919000  0.55524000  0.53676000  1
  H  H126  1  0.78147500  0.41037000  0.58456500  1
  H  H127  1  0.37112500  0.58987000  0.41588000  1
  H  H128  1  0.76506500  0.71046000  0.42170000  1
  H  H129  1  0.05446500  0.28954000  0.57823000  1
  H  H130  1  0.58329000  0.60882000  0.42740500  1
  H  H131  1  0.97427500  0.39114000  0.57220000  1
  H  H132  1  0.62276500  0.68438000  0.54787500  1
  H  H133  1  0.93843500  0.31564000  0.45169000  1
  H  H134  1  0.44739000  0.89540000  0.53557000  1
  H  H135  1  0.55210000  0.10456000  0.46404000  1
  H  H136  1  0.74746000  0.19625000  0.91863500  1
  H  H137  1  0.58021000  0.79951000  0.07996000  1
  O  O138  1  0.50780000  0.91442000  0.66548000  1
  O  O139  1  0.59338000  0.08558000  0.33452000  1
  O  O140  1  0.52425000  0.47252000  0.82656000  1
  O  O141  1  0.05173000  0.52748000  0.17344000  1
  O  O142  1  0.73722000  0.66504000  0.83600000  1
  O  O143  1  0.07218000  0.33496000  0.16400000  1
  O  O144  1  0.69244000  0.89276000  0.82694000  1
  O  O145  1  0.79968000  0.10724000  0.17306000  1
  O  O146  1  0.49999000  0.66912000  0.74884000  1
  O  O147  1  0.83087000  0.33088000  0.25116000  1
  O  O148  1  0.27949000  0.64146000  0.66825000  1
  O  O149  1  0.63803000  0.35854000  0.33175000  1
  O  O150  1  0.25918000  0.42848000  0.66371000  1
  O  O151  1  0.83070000  0.57152000  0.33629000  1
  O  O152  1  0.53191000  0.47356000  0.67591000  1
  O  O153  1  0.05835000  0.52644000  0.32409000  1
  O  O154  1  0.74548000  0.66614000  0.67349000  1
  O  O155  1  0.07934000  0.33386000  0.32651000  1
  O  O156  1  0.70009000  0.89378000  0.67630000  1
  O  O157  1  0.80631000  0.10622000  0.32370000  1
  O  O158  1  0.49953000  0.91330000  0.82798000  1
  O  O159  1  0.58623000  0.08670000  0.17202000  1
  O  O160  1  0.27183000  0.64044000  0.81889000  1
  O  O161  1  0.63139000  0.35956000  0.18111000  1
  O  O162  1  0.25091000  0.42736000  0.82621000  1
  O  O163  1  0.82355000  0.57264000  0.17379000  1
