# generated using pymatgen
data_EuH24C44S4(NO3)4
_symmetry_space_group_name_H-M   'P 1'
_cell_length_a   10.29741000
_cell_length_b   15.44001000
_cell_length_c   15.44001000
_cell_angle_alpha   89.99362000
_cell_angle_beta   89.95600000
_cell_angle_gamma   89.95827000
_symmetry_Int_Tables_number   1
_chemical_formula_structural   EuH24C44S4(NO3)4
_chemical_formula_sum   'Eu2 H48 C88 S8 N8 O24'
_cell_volume   2454.83843040
_cell_formula_units_Z   2
loop_
 _symmetry_equiv_pos_site_id
 _symmetry_equiv_pos_as_xyz
  1  'x, y, z'
loop_
 _atom_site_type_symbol
 _atom_site_label
 _atom_site_symmetry_multiplicity
 _atom_site_fract_x
 _atom_site_fract_y
 _atom_site_fract_z
 _atom_site_occupancy
  Eu  Eu0  1  0.74995000  0.50023000  0.49978000  1
  Eu  Eu1  1  0.25006000  0.49980000  0.50020000  1
  H  H2  1  0.20932000  0.41315000  0.26302000  1
  H  H3  1  0.20945000  0.27833000  0.17459000  1
  H  H4  1  0.20942000  0.58680000  0.73699000  1
  H  H5  1  0.20937000  0.72163000  0.82537000  1
  H  H6  1  0.20917000  0.26301000  0.58666000  1
  H  H7  1  0.20932000  0.17487000  0.72166000  1
  H  H8  1  0.20950000  0.73701000  0.41313000  1
  H  H9  1  0.20944000  0.82522000  0.27817000  1
  H  H10  1  0.29049000  0.58685000  0.26302000  1
  H  H11  1  0.29067000  0.72182000  0.17480000  1
  H  H12  1  0.29083000  0.41336000  0.73695000  1
  H  H13  1  0.29078000  0.27834000  0.82511000  1
  H  H14  1  0.29066000  0.73694000  0.58685000  1
  H  H15  1  0.29065000  0.82541000  0.72167000  1
  H  H16  1  0.29060000  0.26306000  0.41323000  1
  H  H17  1  0.29074000  0.17464000  0.27839000  1
  H  H18  1  0.79071000  0.58682000  0.73702000  1
  H  H19  1  0.79060000  0.72178000  0.82521000  1
  H  H20  1  0.79062000  0.41320000  0.26298000  1
  H  H21  1  0.79067000  0.27824000  0.17482000  1
  H  H22  1  0.79080000  0.73695000  0.41331000  1
  H  H23  1  0.79065000  0.82533000  0.27845000  1
  H  H24  1  0.79046000  0.26302000  0.58688000  1
  H  H25  1  0.79053000  0.17458000  0.72170000  1
  H  H26  1  0.70955000  0.41314000  0.73694000  1
  H  H27  1  0.70938000  0.27831000  0.82541000  1
  H  H28  1  0.70920000  0.58668000  0.26310000  1
  H  H29  1  0.70927000  0.72153000  0.17469000  1
  H  H30  1  0.70932000  0.26301000  0.41320000  1
  H  H31  1  0.70932000  0.17480000  0.27821000  1
  H  H32  1  0.70937000  0.73698000  0.58677000  1
  H  H33  1  0.70923000  0.82516000  0.72175000  1
  H  H34  1  0.99989000  0.34301000  0.00993000  1
  H  H35  1  0.00012000  0.30438000  0.83865000  1
  H  H36  1  0.99990000  0.65700000  0.99008000  1
  H  H37  1  0.00010000  0.69565000  0.16136000  1
  H  H38  1  0.00011000  0.00994000  0.65697000  1
  H  H39  1  0.99991000  0.83866000  0.69564000  1
  H  H40  1  0.00011000  0.99006000  0.34302000  1
  H  H41  1  0.99989000  0.16133000  0.30435000  1
  H  H42  1  0.49990000  0.65733000  0.00997000  1
  H  H43  1  0.50012000  0.69586000  0.83870000  1
  H  H44  1  0.49989000  0.34267000  0.99004000  1
  H  H45  1  0.50010000  0.30416000  0.16131000  1
  H  H46  1  0.50012000  0.99004000  0.65734000  1
  H  H47  1  0.49988000  0.16132000  0.69582000  1
  H  H48  1  0.50010000  0.00995000  0.34265000  1
  H  H49  1  0.49991000  0.83867000  0.30415000  1
  C  C50  1  0.11807000  0.38440000  0.24171000  1
  C  C51  1  0.11791000  0.30821000  0.19337000  1
  C  C52  1  0.11815000  0.61558000  0.75827000  1
  C  C53  1  0.11789000  0.69176000  0.80662000  1
  C  C54  1  0.11792000  0.24179000  0.61553000  1
  C  C55  1  0.11778000  0.19362000  0.69184000  1
  C  C56  1  0.11824000  0.75824000  0.38435000  1
  C  C57  1  0.11796000  0.80643000  0.30807000  1
  C  C58  1  0.38171000  0.61559000  0.24175000  1
  C  C59  1  0.38211000  0.69185000  0.19361000  1
  C  C60  1  0.38204000  0.38453000  0.75822000  1
  C  C61  1  0.38228000  0.30825000  0.80633000  1
  C  C62  1  0.38186000  0.75831000  0.61554000  1
  C  C63  1  0.38213000  0.80665000  0.69165000  1
  C  C64  1  0.38182000  0.24171000  0.38450000  1
  C  C65  1  0.38218000  0.19336000  0.30838000  1
  C  C66  1  0.88198000  0.61562000  0.75823000  1
  C  C67  1  0.88213000  0.69190000  0.80644000  1
  C  C68  1  0.88189000  0.38440000  0.24176000  1
  C  C69  1  0.88215000  0.30812000  0.19357000  1
  C  C70  1  0.88204000  0.75826000  0.38448000  1
  C  C71  1  0.88218000  0.80657000  0.30827000  1
  C  C72  1  0.88172000  0.24173000  0.61563000  1
  C  C73  1  0.88201000  0.19338000  0.69181000  1
  C  C74  1  0.61835000  0.38444000  0.75829000  1
  C  C75  1  0.61795000  0.30833000  0.80664000  1
  C  C76  1  0.61802000  0.61545000  0.24173000  1
  C  C77  1  0.61777000  0.69158000  0.19341000  1
  C  C78  1  0.61810000  0.24175000  0.38444000  1
  C  C79  1  0.61783000  0.19360000  0.30818000  1
  C  C80  1  0.61815000  0.75826000  0.61554000  1
  C  C81  1  0.61778000  0.80639000  0.69179000  1
  C  C82  1  0.99997000  0.42268000  0.26440000  1
  C  C83  1  0.00006000  0.27039000  0.16838000  1
  C  C84  1  0.99997000  0.18869000  0.11740000  1
  C  C85  1  0.00012000  0.19619000  0.02575000  1
  C  C86  1  0.00005000  0.27967000  0.97947000  1
  C  C87  1  0.00018000  0.26027000  0.89376000  1
  C  C88  1  0.00029000  0.16495000  0.88968000  1
  C  C89  1  0.00008000  0.57733000  0.73558000  1
  C  C90  1  0.99996000  0.72961000  0.83161000  1
  C  C91  1  0.99987000  0.81131000  0.88259000  1
  C  C92  1  0.00012000  0.80382000  0.97424000  1
  C  C93  1  0.00005000  0.72034000  0.02053000  1
  C  C94  1  0.00016000  0.73974000  0.10624000  1
  C  C95  1  0.00027000  0.83506000  0.11031000  1
  C  C96  1  0.99979000  0.26437000  0.57730000  1
  C  C97  1  0.99994000  0.16841000  0.72959000  1
  C  C98  1  0.00008000  0.11742000  0.81130000  1
  C  C99  1  0.99988000  0.02577000  0.80379000  1
  C  C100  1  0.99995000  0.97948000  0.72032000  1
  C  C101  1  0.99984000  0.89378000  0.73974000  1
  C  C102  1  0.99972000  0.88969000  0.83505000  1
  C  C103  1  0.00016000  0.73564000  0.42270000  1
  C  C104  1  0.00005000  0.83159000  0.27040000  1
  C  C105  1  0.00010000  0.88258000  0.18870000  1
  C  C106  1  0.99989000  0.97423000  0.19620000  1
  C  C107  1  0.99995000  0.02051000  0.27967000  1
  C  C108  1  0.99984000  0.10622000  0.26025000  1
  C  C109  1  0.99974000  0.11030000  0.16493000  1
  C  C110  1  0.49986000  0.57730000  0.26437000  1
  C  C111  1  0.49996000  0.72954000  0.16863000  1
  C  C112  1  0.49993000  0.81153000  0.11839000  1
  C  C113  1  0.50012000  0.80429000  0.02573000  1
  C  C114  1  0.50001000  0.72090000  0.97959000  1
  C  C115  1  0.50024000  0.74026000  0.89365000  1
  C  C116  1  0.50035000  0.83521000  0.88849000  1
  C  C117  1  0.50024000  0.42270000  0.73562000  1
  C  C118  1  0.50007000  0.27046000  0.83138000  1
  C  C119  1  0.49993000  0.18848000  0.88161000  1
  C  C120  1  0.50012000  0.19570000  0.97428000  1
  C  C121  1  0.50001000  0.27910000  0.02041000  1
  C  C122  1  0.50024000  0.25975000  0.10636000  1
  C  C123  1  0.50037000  0.16481000  0.11152000  1
  C  C124  1  0.49999000  0.73560000  0.57732000  1
  C  C125  1  0.49993000  0.83140000  0.72955000  1
  C  C126  1  0.50002000  0.88164000  0.81154000  1
  C  C127  1  0.49988000  0.97429000  0.80430000  1
  C  C128  1  0.49999000  0.02043000  0.72090000  1
  C  C129  1  0.49976000  0.10637000  0.74024000  1
  C  C130  1  0.49962000  0.11153000  0.83519000  1
  C  C131  1  0.49992000  0.26443000  0.42267000  1
  C  C132  1  0.50005000  0.16860000  0.27045000  1
  C  C133  1  0.50012000  0.11838000  0.18847000  1
  C  C134  1  0.49989000  0.02571000  0.19568000  1
  C  C135  1  0.50000000  0.97957000  0.27909000  1
  C  C136  1  0.49978000  0.89362000  0.25974000  1
  C  C137  1  0.49966000  0.88847000  0.16480000  1
  S  S138  1  0.99939000  0.52585000  0.31559000  1
  S  S139  1  0.00073000  0.47414000  0.68441000  1
  S  S140  1  0.99940000  0.31546000  0.47411000  1
  S  S141  1  0.00048000  0.68452000  0.52586000  1
  S  S142  1  0.49948000  0.47421000  0.31546000  1
  S  S143  1  0.50067000  0.52583000  0.68456000  1
  S  S144  1  0.50055000  0.68445000  0.47423000  1
  S  S145  1  0.49931000  0.31557000  0.52579000  1
  N  N146  1  0.00034000  0.12804000  0.97003000  1
  N  N147  1  0.00033000  0.87197000  0.02996000  1
  N  N148  1  0.99968000  0.97004000  0.87195000  1
  N  N149  1  0.99967000  0.02995000  0.12804000  1
  N  N150  1  0.50031000  0.87120000  0.97053000  1
  N  N151  1  0.50030000  0.12881000  0.02948000  1
  N  N152  1  0.49969000  0.02950000  0.87119000  1
  N  N153  1  0.49971000  0.97052000  0.12880000  1
  O  O154  1  0.87781000  0.52927000  0.36733000  1
  O  O155  1  0.88126000  0.47047000  0.63117000  1
  O  O156  1  0.87780000  0.36728000  0.47063000  1
  O  O157  1  0.88029000  0.63188000  0.52940000  1
  O  O158  1  0.61953000  0.47055000  0.36822000  1
  O  O159  1  0.62233000  0.52941000  0.63276000  1
  O  O160  1  0.62212000  0.63264000  0.47066000  1
  O  O161  1  0.61885000  0.36882000  0.52956000  1
  O  O162  1  0.12251000  0.47067000  0.63281000  1
  O  O163  1  0.11907000  0.52954000  0.36865000  1
  O  O164  1  0.12185000  0.63254000  0.52927000  1
  O  O165  1  0.11938000  0.36826000  0.47062000  1
  O  O166  1  0.38075000  0.52943000  0.63166000  1
  O  O167  1  0.37796000  0.47071000  0.36739000  1
  O  O168  1  0.37758000  0.36723000  0.52939000  1
  O  O169  1  0.38083000  0.63137000  0.47044000  1
  O  O170  1  0.00012000  0.58909000  0.24454000  1
  O  O171  1  0.99984000  0.41091000  0.75545000  1
  O  O172  1  0.00012000  0.24456000  0.41078000  1
  O  O173  1  0.99995000  0.75541000  0.58921000  1
  O  O174  1  0.50007000  0.41077000  0.24460000  1
  O  O175  1  0.49985000  0.58923000  0.75543000  1
  O  O176  1  0.49992000  0.75543000  0.41089000  1
  O  O177  1  0.50016000  0.24457000  0.58910000  1
