# generated using pymatgen
data_H24C41(NO)8
_symmetry_space_group_name_H-M   'P 1'
_cell_length_a   29.18380000
_cell_length_b   55.55490000
_cell_length_c   55.55490000
_cell_angle_alpha   90.00000000
_cell_angle_beta   90.02550000
_cell_angle_gamma   90.00000000
_symmetry_Int_Tables_number   1
_chemical_formula_structural   H24C41(NO)8
_chemical_formula_sum   'H192 C328 N64 O64'
_cell_volume   90071.32214853
_cell_formula_units_Z   8
loop_
 _symmetry_equiv_pos_site_id
 _symmetry_equiv_pos_as_xyz
  1  'x, y, z'
loop_
 _atom_site_type_symbol
 _atom_site_label
 _atom_site_symmetry_multiplicity
 _atom_site_fract_x
 _atom_site_fract_y
 _atom_site_fract_z
 _atom_site_occupancy
  H  26  1  0.88166400  0.18091300  0.22399000  1
  H  27  1  0.94305400  0.15950600  0.20694600  1
  H  28  1  0.89510300  0.23479700  0.17063600  1
  H  29  1  0.95707200  0.21315000  0.15342700  1
  H  30  1  0.04762200  0.21020800  0.15706200  1
  H  31  1  0.10783100  0.22779500  0.17898800  1
  H  32  1  0.09443700  0.17431900  0.23275200  1
  H  33  1  0.03360500  0.15658200  0.21060500  1
  H  34  1  0.06414400  0.13457900  0.17033400  1
  H  35  1  0.05864100  0.09219000  0.17390200  1
  H  36  1  0.91447700  0.09628900  0.16839000  1
  H  37  1  0.91957500  0.13912800  0.16453800  1
  H  38  1  0.92799400  0.17261000  0.13156900  1
  H  39  1  0.07301500  0.16796200  0.13721500  1
  H  40  1  0.07889100  0.17106500  0.09438800  1
  H  45  1  0.93423100  0.17563100  0.08892500  1
  H  71  1  0.88206500  0.81369500  0.76514000  1
  H  72  1  0.94347200  0.83510200  0.78219200  1
  H  73  1  0.89553500  0.75981800  0.81851000  1
  H  74  1  0.95752100  0.78146300  0.83572400  1
  H  75  1  0.04807200  0.78439900  0.83207100  1
  H  76  1  0.10826600  0.76681500  0.81015400  1
  H  77  1  0.09483600  0.82030100  0.75640200  1
  H  78  1  0.03402200  0.83803100  0.77853500  1
  H  79  1  0.06458400  0.86002200  0.81880900  1
  H  80  1  0.05908700  0.90242300  0.81524600  1
  H  81  1  0.91491200  0.89832100  0.82075600  1
  H  82  1  0.92000700  0.85547700  0.82459300  1
  H  83  1  0.92841900  0.82198900  0.85757100  1
  H  84  1  0.07342500  0.82662600  0.85194400  1
  H  85  1  0.07935000  0.82357300  0.89475000  1
  H  90  1  0.93472400  0.81898300  0.90024000  1
  H  116  1  0.88186300  0.76787900  0.17818000  1
  H  117  1  0.94324900  0.78492700  0.15677700  1
  H  118  1  0.89533200  0.82124700  0.23205200  1
  H  119  1  0.95729800  0.83845700  0.21041200  1
  H  120  1  0.04784900  0.83480900  0.20747500  1
  H  121  1  0.10806000  0.81289000  0.22506400  1
  H  122  1  0.09463400  0.75913400  0.17157600  1
  H  123  1  0.03380100  0.78127300  0.15384000  1
  H  124  1  0.06435700  0.82154600  0.13184900  1
  H  125  1  0.05884500  0.81797700  0.08945800  1
  H  126  1  0.91467900  0.82348700  0.09354000  1
  H  127  1  0.91979500  0.82733700  0.13638000  1
  H  128  1  0.92820300  0.86029900  0.16987000  1
  H  129  1  0.07321900  0.85467400  0.16523200  1
  H  130  1  0.07910800  0.89750200  0.16832900  1
  H  135  1  0.93445300  0.90294300  0.17289000  1
  H  161  1  0.88229400  0.22672700  0.81096300  1
  H  162  1  0.94370200  0.20968100  0.83237300  1
  H  163  1  0.89572300  0.17336900  0.75707900  1
  H  164  1  0.95771600  0.15615800  0.77872800  1
  H  165  1  0.04826800  0.15979800  0.78167300  1
  H  166  1  0.10846400  0.18171800  0.76409000  1
  H  167  1  0.09507100  0.23547900  0.81756200  1
  H  168  1  0.03425800  0.21333900  0.83529600  1
  H  169  1  0.06475200  0.17307600  0.85729900  1
  H  170  1  0.05933200  0.17660400  0.89963400  1
  H  171  1  0.91509300  0.17113800  0.89562200  1
  H  172  1  0.92018200  0.16728100  0.85275100  1
  H  173  1  0.92863200  0.13430400  0.81926300  1
  H  174  1  0.07365000  0.13994200  0.82390500  1
  H  175  1  0.07955100  0.09712200  0.82080900  1
  H  180  1  0.93489500  0.09165400  0.81624600  1
  H  206  1  0.38098900  0.68048200  0.72428100  1
  H  207  1  0.44291700  0.65886200  0.70680500  1
  H  208  1  0.39428000  0.73453900  0.67068300  1
  H  209  1  0.45669900  0.71294700  0.65301400  1
  H  210  1  0.54558400  0.71004200  0.65647300  1
  H  211  1  0.60646000  0.72798100  0.67861500  1
  H  212  1  0.59302800  0.67443400  0.73252800  1
  H  213  1  0.53183600  0.65623000  0.71042900  1
  H  214  1  0.56294200  0.63455800  0.67031000  1
  H  215  1  0.55738100  0.59212100  0.67390900  1
  H  216  1  0.41320500  0.59631300  0.66836400  1
  H  217  1  0.41829700  0.63911200  0.66450000  1
  H  218  1  0.42670300  0.67256400  0.63153100  1
  H  219  1  0.57176900  0.66792300  0.63717800  1
  H  220  1  0.57762900  0.67107000  0.59437300  1
  H  225  1  0.43295300  0.67563600  0.58891000  1
  H  251  1  0.38138300  0.31417000  0.26483500  1
  H  252  1  0.44331800  0.33573700  0.28235100  1
  H  253  1  0.39456100  0.26008700  0.31839400  1
  H  254  1  0.45705500  0.28164000  0.33611900  1
  H  255  1  0.54595700  0.28457400  0.33269300  1
  H  256  1  0.60677200  0.26662600  0.31057900  1
  H  257  1  0.59337700  0.32019300  0.25663800  1
  H  258  1  0.53219300  0.33840800  0.27873000  1
  H  259  1  0.56332300  0.36007300  0.31884500  1
  H  260  1  0.55780300  0.40244700  0.31523900  1
  H  261  1  0.41361300  0.39835000  0.32075100  1
  H  262  1  0.41871900  0.35553000  0.32465300  1
  H  263  1  0.42712400  0.32203700  0.35760600  1
  H  264  1  0.57218400  0.32667700  0.35199300  1
  H  265  1  0.57807800  0.32357400  0.39479000  1
  H  270  1  0.43342200  0.31898700  0.40023900  1
  H  296  1  0.38118400  0.26759300  0.67774700  1
  H  297  1  0.44311200  0.28507700  0.65613200  1
  H  298  1  0.39450000  0.32120300  0.73179600  1
  H  299  1  0.45692500  0.33887400  0.71021400  1
  H  300  1  0.54582300  0.33540400  0.70730900  1
  H  301  1  0.60668900  0.31325800  0.72525000  1
  H  302  1  0.59320200  0.25936000  0.67170000  1
  H  303  1  0.53204500  0.28145900  0.65348600  1
  H  304  1  0.56313100  0.32157000  0.63183000  1
  H  305  1  0.55759700  0.31797700  0.58944000  1
  H  306  1  0.41339400  0.32348700  0.59353500  1
  H  307  1  0.41851000  0.32738300  0.63635500  1
  H  308  1  0.42691500  0.36034800  0.66983400  1
  H  309  1  0.57197500  0.35471100  0.66519900  1
  H  310  1  0.57785500  0.39751500  0.66833400  1
  H  315  1  0.43318600  0.40297100  0.67289700  1
  H  341  1  0.38161900  0.72701600  0.31141900  1
  H  342  1  0.44353000  0.70952900  0.33300900  1
  H  343  1  0.39479800  0.67347500  0.25732100  1
  H  344  1  0.45726400  0.65576400  0.27891600  1
  H  345  1  0.54612800  0.65915400  0.28186900  1
  H  346  1  0.60703200  0.68122900  0.26385200  1
  H  347  1  0.59363400  0.73516900  0.31739600  1
  H  348  1  0.53248700  0.71315600  0.33566300  1
  H  349  1  0.56352200  0.67304400  0.35735300  1
  H  350  1  0.55800500  0.67662100  0.39971000  1
  H  351  1  0.41381900  0.67112000  0.39560500  1
  H  352  1  0.41891100  0.66723600  0.35278300  1
  H  353  1  0.42733300  0.63427200  0.31931800  1
  H  354  1  0.57240300  0.63989700  0.32396300  1
  H  355  1  0.57827300  0.59709300  0.32081300  1
  H  360  1  0.43359300  0.59164700  0.31625000  1
  H  371  1  0.94488700  0.04082600  0.12149100  1
  H  374  1  0.08258000  0.94492900  0.20407300  1
  H  376  1  0.96744800  0.05278300  0.15392500  1
  H  378  1  0.03689800  0.94719000  0.17623900  1
  H  389  1  0.94535300  0.95373800  0.86758000  1
  H  392  1  0.08305500  0.04968300  0.78507900  1
  H  394  1  0.96777000  0.94198800  0.83503900  1
  H  396  1  0.03723800  0.04744300  0.81263900  1
  H  407  1  0.94510700  0.87038100  0.03809100  1
  H  410  1  0.08286800  0.78787700  0.94220100  1
  H  412  1  0.96769400  0.83795500  0.05003900  1
  H  414  1  0.03662100  0.81499600  0.94443000  1
  H  425  1  0.94477800  0.12433400  0.95101200  1
  H  428  1  0.08236500  0.20680800  0.04694900  1
  H  430  1  0.96638900  0.15711000  0.93914300  1
  H  432  1  0.03670500  0.17896600  0.04469300  1
  H  443  1  0.44375600  0.54095300  0.62171100  1
  H  446  1  0.58139400  0.44492600  0.70408900  1
  H  448  1  0.46561800  0.55245700  0.65445300  1
  H  450  1  0.53613700  0.44716500  0.67650500  1
  H  461  1  0.44405100  0.45378200  0.36764700  1
  H  464  1  0.58171700  0.54968200  0.28507900  1
  H  466  1  0.46663200  0.44182800  0.33522600  1
  H  468  1  0.53605800  0.54742100  0.31290300  1
  H  479  1  0.44386300  0.37031900  0.53814100  1
  H  482  1  0.58164500  0.28781800  0.44220000  1
  H  484  1  0.46628600  0.33777100  0.54988400  1
  H  486  1  0.53532400  0.31525400  0.44439800  1
  H  497  1  0.44357500  0.62441000  0.45098000  1
  H  500  1  0.58109300  0.70680900  0.54695600  1
  H  502  1  0.46497000  0.65718800  0.43913000  1
  H  504  1  0.53542700  0.67897000  0.54470200  1
  H  515  1  0.84501000  0.21025200  0.27391100  1
  H  518  1  0.66156200  0.30646800  0.22583400  1
  H  520  1  0.82885400  0.20660100  0.23516500  1
  H  522  1  0.67671800  0.28639400  0.25582800  1
  H  533  1  0.84542100  0.78435600  0.71523800  1
  H  536  1  0.66201500  0.68818300  0.76323600  1
  H  538  1  0.82925500  0.78799900  0.75397300  1
  H  540  1  0.67682400  0.70846900  0.73316000  1
  H  551  1  0.84521600  0.71797300  0.20751700  1
  H  554  1  0.66180200  0.76598700  0.30357000  1
  H  556  1  0.82904900  0.75670900  0.20386600  1
  H  558  1  0.67883900  0.73552700  0.28458400  1
  H  569  1  0.84564000  0.27664000  0.78162500  1
  H  572  1  0.66224400  0.22868400  0.68551000  1
  H  574  1  0.82947700  0.23790200  0.78527000  1
  H  576  1  0.67730400  0.25888500  0.70576500  1
  H  587  1  0.14809800  0.78491000  0.27321100  1
  H  590  1  0.33192000  0.68826000  0.22481400  1
  H  592  1  0.16553500  0.78898900  0.23411200  1
  H  594  1  0.31653500  0.70802400  0.25400000  1
  H  605  1  0.14851600  0.20969500  0.71592300  1
  H  608  1  0.33232800  0.30631200  0.76429500  1
  H  610  1  0.16595200  0.20561300  0.75503800  1
  H  612  1  0.31681100  0.28653500  0.73527500  1
  H  623  1  0.14788700  0.27595200  0.20696300  1
  H  626  1  0.33172100  0.22752500  0.30365300  1
  H  628  1  0.16532900  0.23684000  0.20288000  1
  H  630  1  0.31626200  0.25665100  0.28393400  1
  H  641  1  0.14830700  0.71866200  0.78217300  1
  H  644  1  0.33210100  0.76701600  0.68557500  1
  H  646  1  0.16574300  0.75777000  0.78625400  1
  H  648  1  0.31661500  0.73799600  0.70538600  1
  C  1  1  0.00677100  0.17363800  0.08896300  1
  C  2  1  0.04732300  0.17177000  0.10247500  1
  C  3  1  0.04347200  0.17013100  0.12754400  1
  C  4  1  0.99997800  0.17162200  0.13920500  1
  C  5  1  0.96015900  0.17278900  0.12430200  1
  C  6  1  0.96326700  0.17430300  0.09927300  1
  C  7  1  0.99576800  0.16921500  0.16646300  1
  C  8  1  0.99221100  0.14181200  0.16875500  1
  C  9  1  0.94930400  0.12963100  0.16682900  1
  C  10  1  0.94603500  0.10432000  0.16864700  1
  C  11  1  0.98614300  0.09023500  0.17162000  1
  C  12  1  0.02903500  0.10193300  0.17176500  1
  C  13  1  0.03210700  0.12709700  0.17012500  1
  C  14  1  0.03568900  0.18038400  0.18047100  1
  C  15  1  0.95515700  0.18298100  0.17722500  1
  C  16  1  0.93291100  0.17503500  0.19857700  1
  C  17  1  0.89638400  0.18800700  0.20889300  1
  C  18  1  0.88101600  0.21019600  0.19881100  1
  C  19  1  0.90432000  0.21869700  0.17822400  1
  C  20  1  0.94091600  0.20570100  0.16797100  1
  C  21  1  0.05751700  0.20193700  0.17268900  1
  C  22  1  0.09333700  0.21257700  0.18595900  1
  C  23  1  0.10833500  0.20263400  0.20828100  1
  C  24  1  0.08531800  0.18189200  0.21662700  1
  C  25  1  0.04950600  0.17128200  0.20330800  1
  C  46  1  0.00723700  0.82113400  0.90020900  1
  C  47  1  0.04775600  0.82288700  0.88667700  1
  C  48  1  0.04388600  0.82447300  0.86160900  1
  C  49  1  0.00038900  0.82298800  0.84994200  1
  C  50  1  0.96059100  0.82181300  0.86484700  1
  C  51  1  0.96374000  0.82029500  0.88988800  1
  C  52  1  0.99620000  0.82539500  0.82267700  1
  C  53  1  0.99265000  0.85279500  0.82038300  1
  C  54  1  0.94973600  0.86497400  0.82231600  1
  C  55  1  0.94646000  0.89028000  0.82050400  1
  C  56  1  0.98658500  0.90433500  0.81755900  1
  C  57  1  0.02949900  0.89267100  0.81739500  1
  C  58  1  0.03255000  0.86750600  0.81901400  1
  C  59  1  0.03611900  0.81422900  0.80867200  1
  C  60  1  0.95558800  0.81162800  0.81192000  1
  C  61  1  0.93333600  0.81957500  0.79055900  1
  C  62  1  0.89678900  0.80660600  0.78024400  1
  C  63  1  0.88143800  0.78441700  0.79032600  1
  C  64  1  0.90475500  0.77591400  0.81091800  1
  C  65  1  0.94135400  0.78891000  0.82117400  1
  C  66  1  0.05795400  0.79267200  0.81644800  1
  C  67  1  0.09376700  0.78203400  0.80318500  1
  C  68  1  0.10875200  0.79197700  0.78086800  1
  C  69  1  0.08572800  0.81272300  0.77252100  1
  C  70  1  0.04992500  0.82333000  0.78583600  1
  C  91  1  0.00698900  0.90291600  0.17089300  1
  C  92  1  0.04753800  0.88940900  0.16903400  1
  C  93  1  0.04367900  0.86434200  0.16739400  1
  C  94  1  0.00018600  0.85267200  0.16888800  1
  C  95  1  0.96037200  0.86757100  0.17005000  1
  C  96  1  0.96348700  0.89260000  0.17157000  1
  C  97  1  0.99598100  0.82541400  0.16647900  1
  C  98  1  0.99242700  0.82311800  0.13907700  1
  C  99  1  0.94952000  0.82504700  0.12688700  1
  C  100  1  0.94623700  0.82322700  0.10157600  1
  C  101  1  0.98634200  0.82026800  0.08750100  1
  C  102  1  0.02924300  0.82011000  0.09919800  1
  C  103  1  0.03231600  0.82175500  0.12436300  1
  C  104  1  0.03590300  0.81140900  0.17764300  1
  C  105  1  0.95536900  0.81465800  0.18024200  1
  C  106  1  0.93311700  0.79329700  0.17230300  1
  C  107  1  0.89658300  0.78298300  0.18527000  1
  C  108  1  0.88122200  0.79306600  0.20745300  1
  C  109  1  0.90454600  0.81365500  0.21595900  1
  C  110  1  0.94113500  0.82390800  0.20296200  1
  C  111  1  0.05773800  0.81918500  0.19920200  1
  C  112  1  0.09355700  0.80591800  0.20984500  1
  C  113  1  0.10854500  0.78360000  0.19989800  1
  C  114  1  0.08552100  0.77525300  0.17915200  1
  C  115  1  0.04970800  0.78857200  0.16854300  1
  C  136  1  0.00744200  0.09168500  0.81833300  1
  C  137  1  0.04796900  0.10520500  0.82013500  1
  C  138  1  0.04410900  0.13027400  0.82174200  1
  C  139  1  0.00061000  0.14193700  0.82025600  1
  C  140  1  0.96080000  0.12703400  0.81908500  1
  C  141  1  0.96392900  0.10200200  0.81757000  1
  C  142  1  0.99641200  0.16919800  0.82266500  1
  C  143  1  0.99281500  0.17148600  0.85006800  1
  C  144  1  0.94991100  0.16955700  0.86225800  1
  C  145  1  0.94664200  0.17136200  0.88758400  1
  C  146  1  0.98685200  0.17432200  0.90162400  1
  C  147  1  0.02967500  0.17447400  0.88992000  1
  C  148  1  0.03271500  0.17285500  0.86477400  1
  C  149  1  0.03633100  0.18320400  0.81149400  1
  C  150  1  0.95579700  0.17995600  0.80889800  1
  C  151  1  0.93355600  0.20131300  0.81684300  1
  C  152  1  0.89701500  0.21162900  0.80387100  1
  C  153  1  0.88164000  0.20154500  0.78168200  1
  C  154  1  0.90496100  0.18096200  0.77317500  1
  C  155  1  0.94155700  0.17070400  0.78617600  1
  C  156  1  0.05815700  0.17542500  0.78994200  1
  C  157  1  0.09396700  0.18869100  0.77930400  1
  C  158  1  0.10896000  0.21101500  0.78924200  1
  C  159  1  0.08594700  0.21936000  0.80998500  1
  C  160  1  0.05014800  0.20604100  0.82059500  1
  C  181  1  0.50550000  0.67363500  0.58895600  1
  C  182  1  0.54606300  0.67177200  0.60245800  1
  C  183  1  0.54222500  0.67010000  0.62750600  1
  C  184  1  0.49871800  0.67154100  0.63912100  1
  C  185  1  0.45887100  0.67275800  0.62426300  1
  C  186  1  0.46198900  0.67430400  0.59925400  1
  C  187  1  0.49458900  0.66903600  0.66629500  1
  C  188  1  0.49099500  0.64173100  0.66869000  1
  C  189  1  0.44803300  0.62962100  0.66680200  1
  C  190  1  0.44475000  0.60435200  0.66864700  1
  C  191  1  0.48484800  0.59029700  0.67150200  1
  C  192  1  0.52784100  0.60190900  0.67176200  1
  C  193  1  0.53091400  0.62706300  0.67011900  1
  C  194  1  0.53403300  0.68027300  0.68027800  1
  C  195  1  0.45444400  0.68272700  0.67706200  1
  C  196  1  0.43272600  0.67438700  0.69851000  1
  C  197  1  0.39666500  0.68694600  0.70903700  1
  C  198  1  0.38393900  0.70866000  0.69852400  1
  C  199  1  0.40437800  0.71835800  0.67780800  1
  C  200  1  0.44062800  0.70549200  0.66757600  1
  C  201  1  0.55538700  0.70191300  0.67216100  1
  C  202  1  0.59066000  0.71283000  0.68516300  1
  C  203  1  0.60300200  0.70279300  0.70728900  1
  C  204  1  0.58285800  0.68171500  0.71642600  1
  C  205  1  0.54749900  0.67101000  0.70316400  1
  C  226  1  0.50595500  0.32101100  0.40020700  1
  C  227  1  0.54649800  0.32287000  0.38670600  1
  C  228  1  0.54264400  0.32450600  0.36165600  1
  C  229  1  0.49913000  0.32306600  0.35003200  1
  C  230  1  0.45929900  0.32184400  0.36488400  1
  C  231  1  0.46244500  0.32029400  0.38989700  1
  C  232  1  0.49498700  0.32557700  0.32285800  1
  C  233  1  0.49138200  0.35289100  0.32046100  1
  C  234  1  0.44844400  0.36502800  0.32234700  1
  C  235  1  0.44516500  0.39032000  0.32049700  1
  C  236  1  0.48529700  0.40437500  0.31752800  1
  C  237  1  0.52820400  0.39270400  0.31737900  1
  C  238  1  0.53128400  0.36755900  0.31904300  1
  C  239  1  0.53442000  0.31435600  0.30888300  1
  C  240  1  0.45484100  0.31186800  0.31208400  1
  C  241  1  0.43312700  0.32021000  0.29063200  1
  C  242  1  0.39707300  0.30768900  0.28005400  1
  C  243  1  0.38424700  0.28599800  0.29045300  1
  C  244  1  0.40470100  0.27626400  0.31124300  1
  C  245  1  0.44098800  0.28910200  0.32154900  1
  C  246  1  0.55576000  0.29271200  0.31701500  1
  C  247  1  0.59101300  0.28180200  0.30403600  1
  C  248  1  0.60326300  0.29186100  0.28193800  1
  C  249  1  0.58322100  0.31294300  0.27275000  1
  C  250  1  0.54786600  0.32363000  0.28599900  1
  C  271  1  0.50572900  0.40293100  0.67083300  1
  C  272  1  0.54628600  0.38943100  0.66901600  1
  C  273  1  0.54243800  0.36438000  0.66737300  1
  C  274  1  0.49892400  0.35276500  0.66880700  1
  C  275  1  0.45908700  0.36761800  0.67002700  1
  C  276  1  0.46222900  0.39262800  0.67158300  1
  C  277  1  0.49479500  0.32558600  0.66630200  1
  C  278  1  0.49119000  0.32319400  0.63899300  1
  C  279  1  0.44823500  0.32507900  0.62686200  1
  C  280  1  0.44494500  0.32323200  0.60157800  1
  C  281  1  0.48507400  0.32032500  0.58753400  1
  C  282  1  0.52801200  0.32011800  0.59918900  1
  C  283  1  0.53109600  0.32177400  0.62433400  1
  C  284  1  0.53424200  0.31160400  0.67753800  1
  C  285  1  0.45465300  0.31482200  0.67999600  1
  C  286  1  0.43292900  0.29336800  0.67165700  1
  C  287  1  0.39686700  0.28283900  0.68421100  1
  C  288  1  0.38415100  0.29334200  0.70591400  1
  C  289  1  0.40460500  0.31407000  0.71562100  1
  C  290  1  0.44084400  0.32431000  0.70275600  1
  C  291  1  0.55561300  0.31971800  0.69917900  1
  C  292  1  0.59087900  0.30671100  0.71010100  1
  C  293  1  0.60321100  0.28458300  0.70008700  1
  C  294  1  0.58303200  0.27545000  0.67900000  1
  C  295  1  0.54770100  0.28872000  0.66827500  1
  C  316  1  0.50614400  0.59168500  0.31825100  1
  C  317  1  0.54670400  0.60518200  0.32010900  1
  C  318  1  0.54285900  0.63023100  0.32178400  1
  C  319  1  0.49934200  0.64184800  0.32034200  1
  C  320  1  0.45950500  0.62699800  0.31912400  1
  C  321  1  0.46263000  0.60199000  0.31757300  1
  C  322  1  0.49519600  0.66902300  0.32285100  1
  C  323  1  0.49158400  0.67141500  0.35016200  1
  C  324  1  0.44864300  0.66952500  0.36228900  1
  C  325  1  0.44537700  0.67136500  0.38758200  1
  C  326  1  0.48551900  0.67429900  0.40165700  1
  C  327  1  0.52839200  0.67448600  0.38996900  1
  C  328  1  0.53148300  0.67283900  0.36483000  1
  C  329  1  0.53463200  0.68299000  0.31162100  1
  C  330  1  0.45505000  0.67979600  0.30914100  1
  C  331  1  0.43334000  0.70124400  0.31747800  1
  C  332  1  0.39728900  0.71179500  0.30492300  1
  C  333  1  0.38449400  0.70145400  0.28326600  1
  C  334  1  0.40490600  0.68059700  0.27351100  1
  C  335  1  0.44120400  0.67033200  0.28637000  1
  C  336  1  0.55595900  0.67484100  0.28997500  1
  C  337  1  0.59121500  0.68777400  0.27899600  1
  C  338  1  0.60337600  0.70992000  0.28899400  1
  C  339  1  0.58346800  0.71906400  0.31012000  1
  C  340  1  0.54810900  0.70587000  0.32087900  1
  C  361  1  0.99222900  0.02295800  0.16966200  1
  C  363  1  0.03549900  0.98823400  0.18505100  1
  C  364  1  0.00128400  0.97295200  0.17408800  1
  C  366  1  0.96135500  0.00719600  0.15708900  1
  C  367  1  0.92477000  0.01455300  0.14164400  1
  C  368  1  0.07517500  0.98041100  0.19859100  1
  C  375  1  0.98781900  0.04822400  0.16651200  1
  C  377  1  0.00519000  0.94822100  0.17314700  1
  C  379  1  0.99269100  0.97166300  0.81953700  1
  C  381  1  0.03590900  0.00638300  0.80412500  1
  C  382  1  0.00201800  0.02165600  0.81503100  1
  C  384  1  0.96180400  0.98743400  0.83208700  1
  C  385  1  0.92518500  0.98006300  0.84748700  1
  C  386  1  0.07558100  0.01419600  0.79055500  1
  C  393  1  0.98841100  0.94637200  0.82252100  1
  C  395  1  0.00501300  0.04641900  0.81609700  1
  C  397  1  0.99244800  0.82222300  0.02021400  1
  C  399  1  0.03576100  0.80689600  0.98548300  1
  C  400  1  0.00136300  0.81784000  0.97020100  1
  C  402  1  0.96160500  0.83480200  0.00444700  1
  C  403  1  0.92497200  0.85020400  0.01181800  1
  C  404  1  0.07539700  0.79328100  0.97767400  1
  C  411  1  0.98802400  0.82535500  0.04548300  1
  C  413  1  0.00540900  0.81876300  0.94547700  1
  C  415  1  0.99202300  0.17232900  0.96895200  1
  C  417  1  0.03527300  0.18778200  0.00364600  1
  C  418  1  0.00107600  0.17682100  0.01892300  1
  C  420  1  0.96112600  0.15978400  0.98470400  1
  C  421  1  0.92450600  0.14439600  0.97731000  1
  C  422  1  0.07494800  0.20132300  0.01146700  1
  C  429  1  0.98744500  0.16944000  0.94367500  1
  C  431  1  0.00499200  0.17588600  0.04365500  1
  C  433  1  0.49109100  0.52293300  0.66957400  1
  C  435  1  0.53415900  0.48820000  0.68500800  1
  C  436  1  0.49968800  0.47292300  0.67405800  1
  C  438  1  0.46010800  0.50717400  0.65704400  1
  C  439  1  0.42348800  0.51454900  0.64163800  1
  C  440  1  0.57390100  0.48041100  0.69860000  1
  C  447  1  0.48725300  0.54822700  0.66658100  1
  C  449  1  0.50478300  0.44824700  0.67326500  1
  C  451  1  0.49137200  0.47165600  0.31948900  1
  C  453  1  0.53464300  0.50637500  0.30409800  1
  C  454  1  0.50044200  0.52165900  0.31505600  1
  C  456  1  0.46051900  0.48742100  0.33205500  1
  C  457  1  0.42392400  0.48005300  0.34747600  1
  C  458  1  0.57430800  0.51420000  0.29056100  1
  C  465  1  0.48696200  0.44638900  0.32263100  1
  C  467  1  0.50435500  0.54638800  0.31599500  1
  C  469  1  0.49121400  0.32227600  0.52021500  1
  C  471  1  0.53447800  0.30687900  0.48549900  1
  C  472  1  0.50062400  0.31775800  0.47022500  1
  C  474  1  0.46031400  0.33482700  0.50444000  1
  C  475  1  0.42368400  0.35022300  0.51181500  1
  C  476  1  0.57410600  0.29328100  0.47768500  1
  C  483  1  0.48692400  0.32524800  0.54550600  1
  C  485  1  0.50319000  0.31882900  0.44544800  1
  C  487  1  0.49078900  0.67235000  0.46896300  1
  C  489  1  0.53400200  0.68779200  0.50366500  1
  C  490  1  0.49979800  0.67682100  0.51893200  1
  C  492  1  0.45986800  0.65980200  0.48470000  1
  C  493  1  0.42325200  0.64441500  0.47729700  1
  C  494  1  0.57368500  0.70132500  0.51147700  1
  C  501  1  0.48656800  0.66924600  0.44370600  1
  C  503  1  0.50371800  0.67588500  0.54366100  1
  C  505  1  0.78596300  0.23516700  0.23656400  1
  C  507  1  0.73100800  0.26808800  0.23098400  1
  C  508  1  0.70896200  0.26008500  0.25286200  1
  C  510  1  0.76476300  0.22835800  0.25887300  1
  C  511  1  0.77960400  0.20954600  0.27448800  1
  C  512  1  0.71769300  0.28820300  0.21616100  1
  C  519  1  0.82225800  0.22165100  0.22674100  1
  C  521  1  0.67167700  0.27128700  0.26317400  1
  C  523  1  0.78635100  0.75943100  0.75256600  1
  C  525  1  0.73135800  0.72650000  0.75814000  1
  C  526  1  0.70932500  0.73440500  0.73623100  1
  C  528  1  0.76514000  0.76622600  0.73025300  1
  C  529  1  0.77999800  0.78506700  0.71466900  1
  C  530  1  0.71809400  0.70640600  0.77296600  1
  C  537  1  0.82265500  0.77295300  0.76239700  1
  C  539  1  0.67165000  0.72356900  0.72575000  1
  C  541  1  0.78616900  0.75532300  0.23243300  1
  C  543  1  0.73114500  0.76080300  0.26525500  1
  C  544  1  0.70902400  0.73899900  0.25720500  1
  C  546  1  0.76501300  0.73299800  0.22561700  1
  C  547  1  0.77979900  0.71740800  0.20680300  1
  C  548  1  0.71790500  0.77572300  0.28544400  1
  C  555  1  0.82247700  0.76513000  0.21892200  1
  C  557  1  0.67201700  0.72918500  0.26910400  1
  C  559  1  0.78655300  0.23930900  0.75670600  1
  C  561  1  0.73149500  0.23370200  0.72378300  1
  C  562  1  0.70957900  0.25568100  0.73164100  1
  C  564  1  0.76534200  0.26161500  0.76349100  1
  C  565  1  0.78021700  0.27719400  0.78234400  1
  C  566  1  0.71829900  0.21890400  0.70365800  1
  C  573  1  0.82288800  0.22948700  0.77021300  1
  C  575  1  0.67187300  0.26621200  0.72090200  1
  C  577  1  0.20675200  0.75983600  0.23613900  1
  C  579  1  0.26206600  0.72727900  0.23045700  1
  C  580  1  0.28417900  0.73543700  0.25228200  1
  C  582  1  0.22823900  0.76683800  0.25833300  1
  C  583  1  0.21344700  0.78555300  0.27400200  1
  C  584  1  0.27526400  0.70694600  0.21563500  1
  C  591  1  0.17008300  0.77321700  0.22657400  1
  C  593  1  0.31931200  0.72251300  0.26243000  1
  C  595  1  0.20714800  0.23476600  0.75301400  1
  C  597  1  0.26245500  0.26730300  0.75871300  1
  C  598  1  0.28455100  0.25910100  0.73689800  1
  C  600  1  0.22861600  0.22776000  0.73082500  1
  C  601  1  0.21386000  0.20904000  0.71515900  1
  C  602  1  0.27567600  0.28766700  0.77351600  1
  C  609  1  0.17049300  0.22138800  0.76257400  1
  C  611  1  0.31940500  0.27221400  0.72681700  1
  C  613  1  0.20654000  0.23887700  0.23204100  1
  C  615  1  0.26187300  0.23322300  0.26458700  1
  C  616  1  0.28396300  0.25507600  0.25639900  1
  C  618  1  0.22801100  0.26107000  0.22504000  1
  C  619  1  0.21323600  0.27671900  0.20630500  1
  C  620  1  0.27506000  0.21837000  0.28493400  1
  C  627  1  0.16987100  0.22931000  0.21865800  1
  C  629  1  0.31905900  0.26501200  0.26954500  1
  C  631  1  0.20693700  0.75574600  0.75710300  1
  C  633  1  0.26223700  0.76145600  0.72457200  1
  C  634  1  0.28432000  0.73963800  0.73276900  1
  C  636  1  0.22841000  0.73355200  0.76410900  1
  C  637  1  0.21365600  0.71790300  0.78284200  1
  C  638  1  0.27545600  0.77624900  0.70421000  1
  C  645  1  0.17027500  0.76530100  0.77048000  1
  C  647  1  0.31919700  0.72952200  0.71969600  1
  N  41  1  0.84657600  0.22430800  0.20752600  1
  N  42  1  0.14303900  0.21120400  0.22230200  1
  N  43  1  0.00861500  0.17504100  0.06617300  1
  N  44  1  0.98863400  0.06711900  0.17978500  1
  N  86  1  0.84699400  0.77030300  0.78161800  1
  N  87  1  0.14344300  0.78341300  0.76684700  1
  N  88  1  0.00925700  0.81958100  0.92297100  1
  N  89  1  0.98885700  0.92740900  0.80936300  1
  N  131  1  0.84679200  0.78435400  0.22156600  1
  N  132  1  0.14324100  0.76957800  0.20846500  1
  N  133  1  0.00884200  0.92570500  0.17230300  1
  N  134  1  0.98884700  0.81208900  0.06438500  1
  N  176  1  0.84719600  0.21026100  0.76756700  1
  N  177  1  0.14366600  0.22503000  0.78067800  1
  N  178  1  0.00962000  0.06889500  0.81675100  1
  N  179  1  0.99004600  0.18247900  0.92469000  1
  N  221  1  0.35141100  0.71919300  0.70908200  1
  N  222  1  0.63811400  0.71188700  0.71755200  1
  N  223  1  0.50734700  0.67504100  0.56617500  1
  N  224  1  0.48646500  0.56722700  0.67967400  1
  N  266  1  0.35145900  0.27534900  0.28008100  1
  N  267  1  0.63808000  0.28252100  0.27178500  1
  N  268  1  0.50827900  0.31967900  0.42301100  1
  N  269  1  0.48778100  0.42749300  0.30936300  1
  N  311  1  0.35162000  0.28280100  0.71646200  1
  N  312  1  0.63838200  0.27427100  0.70908300  1
  N  313  1  0.50717200  0.42569800  0.67225200  1
  N  314  1  0.48740400  0.31209000  0.56447300  1
  N  356  1  0.35166400  0.71175600  0.27257700  1
  N  357  1  0.63828600  0.72025200  0.27997000  1
  N  358  1  0.50799100  0.56890400  0.31684200  1
  N  359  1  0.48817500  0.68241200  0.42476300  1
  N  362  1  0.02821100  0.01250800  0.18192000  1
  N  365  1  0.96748900  0.98301500  0.16048300  1
  N  380  1  0.02861500  0.98211200  0.80725700  1
  N  383  1  0.96791400  0.01160800  0.82867200  1
  N  398  1  0.02844400  0.80997200  0.00976900  1
  N  401  1  0.96772900  0.83141400  0.98028400  1
  N  416  1  0.02793900  0.18463900  0.97938100  1
  N  419  1  0.96726600  0.16321000  0.00887900  1
  N  434  1  0.52697400  0.51247300  0.68186900  1
  N  437  1  0.46613500  0.48300500  0.66044700  1
  N  452  1  0.52734400  0.48210200  0.30722900  1
  N  455  1  0.46665600  0.51160000  0.32865600  1
  N  470  1  0.52714200  0.30999400  0.50976700  1
  N  473  1  0.46643700  0.33141500  0.48026900  1
  N  488  1  0.52671700  0.68463700  0.47940100  1
  N  491  1  0.46599100  0.66321600  0.50887800  1
  N  506  1  0.76819700  0.25450500  0.22433500  1
  N  509  1  0.72687900  0.24129300  0.26537100  1
  N  524  1  0.76857400  0.74009300  0.76478900  1
  N  527  1  0.72723200  0.75327300  0.72378200  1
  N  542  1  0.76839900  0.76754200  0.25177100  1
  N  545  1  0.72709900  0.72639000  0.23845000  1
  N  560  1  0.76877900  0.22708500  0.73735900  1
  N  563  1  0.72742400  0.26804700  0.75053300  1
  N  578  1  0.22460700  0.74059000  0.22382400  1
  N  581  1  0.26620100  0.75408500  0.26498600  1
  N  596  1  0.22499200  0.25401600  0.76533600  1
  N  599  1  0.26657000  0.24048700  0.72417700  1
  N  614  1  0.22440400  0.22656700  0.25129100  1
  N  617  1  0.26597100  0.26774600  0.23776600  1
  N  632  1  0.22477600  0.76807300  0.73786000  1
  N  635  1  0.26637000  0.72690800  0.75138400  1
  O  369  1  0.89173400  0.00128000  0.13874800  1
  O  370  1  0.92223100  0.03282400  0.12843800  1
  O  372  1  0.10033800  0.99598600  0.20676100  1
  O  373  1  0.09099800  0.96013500  0.20471800  1
  O  387  1  0.89216300  0.99334200  0.85039900  1
  O  388  1  0.92267600  0.96179500  0.86070500  1
  O  390  1  0.10073600  0.99861900  0.78238700  1
  O  391  1  0.09140900  0.03447200  0.78443100  1
  O  405  1  0.89195000  0.85313300  0.99853500  1
  O  406  1  0.92245400  0.86343600  0.03007800  1
  O  408  1  0.10054100  0.78511600  0.99326300  1
  O  409  1  0.09122200  0.78716800  0.95740400  1
  O  423  1  0.89152900  0.14146900  0.99060600  1
  O  424  1  0.92203900  0.13115200  0.95906200  1
  O  426  1  0.10010300  0.20949000  0.99589300  1
  O  427  1  0.09077700  0.20745100  0.03174400  1
  O  441  1  0.39044600  0.50128100  0.63874300  1
  O  442  1  0.42101800  0.53284400  0.62845400  1
  O  444  1  0.59906200  0.49599200  0.70676600  1
  O  445  1  0.58973800  0.46013600  0.70472200  1
  O  459  1  0.39091200  0.49333600  0.35039700  1
  O  460  1  0.42140200  0.46179400  0.36070100  1
  O  462  1  0.59946600  0.49862600  0.28239100  1
  O  463  1  0.59012900  0.53447500  0.28443500  1
  O  477  1  0.39065500  0.35313900  0.49853400  1
  O  478  1  0.42118600  0.36344800  0.53008300  1
  O  480  1  0.59926100  0.28512000  0.49327200  1
  O  481  1  0.58995700  0.28715900  0.45741700  1
  O  495  1  0.39028200  0.64147000  0.49059400  1
  O  496  1  0.42081200  0.63118500  0.45904300  1
  O  498  1  0.59883200  0.70949100  0.49590000  1
  O  499  1  0.58950900  0.70745200  0.53175300  1
  O  513  1  0.75240700  0.20041600  0.28859000  1
  O  514  1  0.81972500  0.20236600  0.27773300  1
  O  516  1  0.74086000  0.29223700  0.19830300  1
  O  517  1  0.68618900  0.30371600  0.21713300  1
  O  531  1  0.75282500  0.79419300  0.70053900  1
  O  532  1  0.82013000  0.79223500  0.71140200  1
  O  534  1  0.74128800  0.70238700  0.79083100  1
  O  535  1  0.68660000  0.69090200  0.77199000  1
  O  549  1  0.75262000  0.70327400  0.19767800  1
  O  550  1  0.81991700  0.71413900  0.19963800  1
  O  552  1  0.74110600  0.79359400  0.28949600  1
  O  553  1  0.68639100  0.77475500  0.30097100  1
  O  567  1  0.75304800  0.29133400  0.79144800  1
  O  568  1  0.82035600  0.28048100  0.78950300  1
  O  570  1  0.74149700  0.20104600  0.69964900  1
  O  571  1  0.68679500  0.21988700  0.68816500  1
  O  585  1  0.24070600  0.79469900  0.28808500  1
  O  586  1  0.17336000  0.79273700  0.27720100  1
  O  588  1  0.25220600  0.70285100  0.19774800  1
  O  589  1  0.30686000  0.69138300  0.21655700  1
  O  603  1  0.24109600  0.19992100  0.70105700  1
  O  604  1  0.17377300  0.20187200  0.71193000  1
  O  606  1  0.25265000  0.29177500  0.79139600  1
  O  607  1  0.30729400  0.30322100  0.77256900  1
  O  621  1  0.24046600  0.29082400  0.19718600  1
  O  622  1  0.17314000  0.27994800  0.19914100  1
  O  624  1  0.25200000  0.20048800  0.28902900  1
  O  625  1  0.30665200  0.21928600  0.30050600  1
  O  639  1  0.24090200  0.70378500  0.79194500  1
  O  640  1  0.17357000  0.71466100  0.78999500  1
  O  642  1  0.25242700  0.79413600  0.70010000  1
  O  643  1  0.30707300  0.77530200  0.68866100  1
