# generated using pymatgen
data_Cu2H24C43SN3(O2F3)4
_symmetry_space_group_name_H-M   'P 1'
_cell_length_a   7.55132000
_cell_length_b   23.62412000
_cell_length_c   29.31966000
_cell_angle_alpha   90.00000000
_cell_angle_beta   90.00000000
_cell_angle_gamma   91.72428000
_symmetry_Int_Tables_number   1
_chemical_formula_structural   Cu2H24C43SN3(O2F3)4
_chemical_formula_sum   'Cu8 H96 C172 S4 N12 O32 F48'
_cell_volume   5228.06225923
_cell_formula_units_Z   4
loop_
 _symmetry_equiv_pos_site_id
 _symmetry_equiv_pos_as_xyz
  1  'x, y, z'
loop_
 _atom_site_type_symbol
 _atom_site_label
 _atom_site_symmetry_multiplicity
 _atom_site_fract_x
 _atom_site_fract_y
 _atom_site_fract_z
 _atom_site_occupancy
  Cu  Cu0  1  0.24178000  0.90713000  0.21068000  1
  Cu  Cu1  1  0.51798000  0.91192000  0.26784000  1
  Cu  Cu2  1  0.75822000  0.59287000  0.71068000  1
  Cu  Cu3  1  0.48202000  0.58808000  0.76784000  1
  Cu  Cu4  1  0.75822000  0.09287000  0.78933000  1
  Cu  Cu5  1  0.48202000  0.08808000  0.73216000  1
  Cu  Cu6  1  0.24177000  0.40713000  0.28932000  1
  Cu  Cu7  1  0.51798000  0.41192000  0.23216000  1
  H  H8  1  0.87294000  0.79806000  0.28724000  1
  H  H9  1  0.72494000  0.72931000  0.33901000  1
  H  H10  1  0.20903000  0.71883000  0.41652000  1
  H  H11  1  0.35438000  0.78497000  0.36343000  1
  H  H12  1  0.97484000  0.62358000  0.33902000  1
  H  H13  1  0.84262000  0.54399000  0.29488000  1
  H  H14  1  0.38171000  0.54476000  0.38007000  1
  H  H15  1  0.51338000  0.62225000  0.42572000  1
  H  H16  1  0.87679000  0.78353000  0.21339000  1
  H  H17  1  0.00583000  0.70425000  0.17130000  1
  H  H18  1  0.55731000  0.70097000  0.08013000  1
  H  H19  1  0.42717000  0.77701000  0.12421000  1
  H  H20  1  0.75530000  0.59690000  0.16959000  1
  H  H21  1  0.89096000  0.52506000  0.21869000  1
  H  H22  1  0.37116000  0.54041000  0.14136000  1
  H  H23  1  0.23690000  0.60939000  0.09049000  1
  H  H24  1  0.86165000  0.95979000  0.15939000  1
  H  H25  1  0.16979000  0.82097000  0.12489000  1
  H  H26  1  0.91168000  0.83347000  0.05797000  1
  H  H27  1  0.46979000  0.89288000  0.10788000  1
  H  H28  1  0.28401000  0.94865000  0.04852000  1
  H  H29  1  0.08596000  0.91312000  0.38053000  1
  H  H30  1  0.91835000  0.87625000  0.41301000  1
  H  H31  1  0.92960000  0.95234000  0.41263000  1
  H  H32  1  0.12706000  0.70195000  0.78724000  1
  H  H33  1  0.27506000  0.77069000  0.83901000  1
  H  H34  1  0.79097000  0.78117000  0.91652000  1
  H  H35  1  0.64563000  0.71503000  0.86343000  1
  H  H36  1  0.02516000  0.87642000  0.83902000  1
  H  H37  1  0.15739000  0.95602000  0.79488000  1
  H  H38  1  0.61829000  0.95524000  0.88007000  1
  H  H39  1  0.48662000  0.87775000  0.92572000  1
  H  H40  1  0.12321000  0.71647000  0.71339000  1
  H  H41  1  0.99417000  0.79575000  0.67130000  1
  H  H42  1  0.44269000  0.79903000  0.58013000  1
  H  H43  1  0.57283000  0.72299000  0.62421000  1
  H  H44  1  0.24470000  0.90310000  0.66959000  1
  H  H45  1  0.10905000  0.97494000  0.71869000  1
  H  H46  1  0.62884000  0.95960000  0.64136000  1
  H  H47  1  0.76310000  0.89061000  0.59049000  1
  H  H48  1  0.13835000  0.54021000  0.65939000  1
  H  H49  1  0.83022000  0.67903000  0.62489000  1
  H  H50  1  0.08833000  0.66653000  0.55797000  1
  H  H51  1  0.53021000  0.60712000  0.60788000  1
  H  H52  1  0.71599000  0.55135000  0.54852000  1
  H  H53  1  0.91404000  0.58688000  0.88053000  1
  H  H54  1  0.08165000  0.62375000  0.91301000  1
  H  H55  1  0.07040000  0.54766000  0.91263000  1
  H  H56  1  0.12706000  0.20195000  0.71276000  1
  H  H57  1  0.27506000  0.27069000  0.66099000  1
  H  H58  1  0.79097000  0.28117000  0.58348000  1
  H  H59  1  0.64562000  0.21503000  0.63657000  1
  H  H60  1  0.02516000  0.37642000  0.66098000  1
  H  H61  1  0.15738000  0.45601000  0.70512000  1
  H  H62  1  0.61829000  0.45524000  0.61993000  1
  H  H63  1  0.48662000  0.37775000  0.57428000  1
  H  H64  1  0.12321000  0.21647000  0.78662000  1
  H  H65  1  0.99417000  0.29575000  0.82871000  1
  H  H66  1  0.44269000  0.29903000  0.91988000  1
  H  H67  1  0.57283000  0.22299000  0.87579000  1
  H  H68  1  0.24470000  0.40310000  0.83041000  1
  H  H69  1  0.10904000  0.47494000  0.78131000  1
  H  H70  1  0.62884000  0.45960000  0.85865000  1
  H  H71  1  0.76310000  0.39061000  0.90951000  1
  H  H72  1  0.13835000  0.04021000  0.84061000  1
  H  H73  1  0.83021000  0.17903000  0.87511000  1
  H  H74  1  0.08832000  0.16653000  0.94203000  1
  H  H75  1  0.53021000  0.10712000  0.89212000  1
  H  H76  1  0.71599000  0.05135000  0.95148000  1
  H  H77  1  0.91404000  0.08688000  0.61947000  1
  H  H78  1  0.08165000  0.12375000  0.58699000  1
  H  H79  1  0.07040000  0.04766000  0.58737000  1
  H  H80  1  0.87294000  0.29805000  0.21276000  1
  H  H81  1  0.72494000  0.22931000  0.16099000  1
  H  H82  1  0.20903000  0.21883000  0.08348000  1
  H  H83  1  0.35437000  0.28497000  0.13657000  1
  H  H84  1  0.97484000  0.12358000  0.16098000  1
  H  H85  1  0.84261000  0.04399000  0.20512000  1
  H  H86  1  0.38171000  0.04476000  0.11993000  1
  H  H87  1  0.51338000  0.12225000  0.07428000  1
  H  H88  1  0.87679000  0.28353000  0.28662000  1
  H  H89  1  0.00583000  0.20425000  0.32871000  1
  H  H90  1  0.55731000  0.20097000  0.41988000  1
  H  H91  1  0.42717000  0.27701000  0.37579000  1
  H  H92  1  0.75530000  0.09690000  0.33041000  1
  H  H93  1  0.89095000  0.02506000  0.28131000  1
  H  H94  1  0.37116000  0.04041000  0.35865000  1
  H  H95  1  0.23690000  0.10939000  0.40951000  1
  H  H96  1  0.86165000  0.45979000  0.34061000  1
  H  H97  1  0.16978000  0.32097000  0.37511000  1
  H  H98  1  0.91167000  0.33347000  0.44203000  1
  H  H99  1  0.46979000  0.39288000  0.39212000  1
  H  H100  1  0.28401000  0.44865000  0.45148000  1
  H  H101  1  0.08596000  0.41312000  0.11947000  1
  H  H102  1  0.91835000  0.37625000  0.08699000  1
  H  H103  1  0.92960000  0.45234000  0.08737000  1
  C  C104  1  0.21951000  0.83516000  0.28922000  1
  C  C105  1  0.12528000  0.79492000  0.32125000  1
  C  C106  1  0.94632000  0.77958000  0.31518000  1
  C  C107  1  0.86268000  0.74144000  0.34507000  1
  C  C108  1  0.95370000  0.71835000  0.38218000  1
  C  C109  1  0.13185000  0.73497000  0.38853000  1
  C  C110  1  0.21599000  0.77268000  0.35842000  1
  C  C111  1  0.85191000  0.67616000  0.41383000  1
  C  C112  1  0.97807000  0.64603000  0.44750000  1
  C  C113  1  0.72246000  0.71098000  0.44343000  1
  C  C114  1  0.75573000  0.62916000  0.38593000  1
  C  C115  1  0.84526000  0.60633000  0.34855000  1
  C  C116  1  0.77053000  0.56170000  0.32336000  1
  C  C117  1  0.60256000  0.53901000  0.33456000  1
  C  C118  1  0.51205000  0.56214000  0.37144000  1
  C  C119  1  0.58770000  0.60637000  0.39705000  1
  C  C120  1  0.52320000  0.48973000  0.30838000  1
  C  C121  1  0.55606000  0.83210000  0.19793000  1
  C  C122  1  0.64115000  0.78522000  0.17205000  1
  C  C123  1  0.80543000  0.76436000  0.18484000  1
  C  C124  1  0.87929000  0.72019000  0.16042000  1
  C  C125  1  0.79313000  0.69625000  0.12230000  1
  C  C126  1  0.62948000  0.71763000  0.10937000  1
  C  C127  1  0.55466000  0.76109000  0.13424000  1
  C  C128  1  0.88789000  0.65049000  0.09478000  1
  C  C129  1  0.75698000  0.61335000  0.06536000  1
  C  C130  1  0.01567000  0.68278000  0.06131000  1
  C  C131  1  0.98454000  0.60904000  0.12609000  1
  C  C132  1  0.89026000  0.58476000  0.16287000  1
  C  C133  1  0.96676000  0.54478000  0.19109000  1
  C  C134  1  0.14127000  0.52866000  0.18354000  1
  C  C135  1  0.23584000  0.55300000  0.14713000  1
  C  C136  1  0.15854000  0.59232000  0.11848000  1
  C  C137  1  0.22603000  0.48518000  0.21305000  1
  C  C138  1  0.91538000  0.92452000  0.14122000  1
  C  C139  1  0.06927000  0.85225000  0.12148000  1
  C  C140  1  0.94381000  0.85780000  0.08816000  1
  C  C141  1  0.70650000  0.92779000  0.07498000  1
  C  C142  1  0.52688000  0.91932000  0.08101000  1
  C  C143  1  0.42748000  0.94998000  0.04899000  1
  C  C144  1  0.52937000  0.98187000  0.01834000  1
  C  C145  1  0.94729000  0.91401000  0.39199000  1
  C  C146  1  0.82943000  0.91454000  0.35300000  1
  C  C147  1  0.78049000  0.66484000  0.78922000  1
  C  C148  1  0.87472000  0.70508000  0.82125000  1
  C  C149  1  0.05368000  0.72042000  0.81518000  1
  C  C150  1  0.13732000  0.75856000  0.84507000  1
  C  C151  1  0.04630000  0.78165000  0.88218000  1
  C  C152  1  0.86815000  0.76503000  0.88853000  1
  C  C153  1  0.78402000  0.72732000  0.85842000  1
  C  C154  1  0.14809000  0.82384000  0.91383000  1
  C  C155  1  0.02193000  0.85397000  0.94750000  1
  C  C156  1  0.27754000  0.78902000  0.94343000  1
  C  C157  1  0.24428000  0.87084000  0.88593000  1
  C  C158  1  0.15474000  0.89367000  0.84855000  1
  C  C159  1  0.22948000  0.93830000  0.82336000  1
  C  C160  1  0.39745000  0.96099000  0.83456000  1
  C  C161  1  0.48795000  0.93786000  0.87144000  1
  C  C162  1  0.41230000  0.89363000  0.89705000  1
  C  C163  1  0.47680000  0.01027000  0.80838000  1
  C  C164  1  0.44394000  0.66790000  0.69793000  1
  C  C165  1  0.35885000  0.71478000  0.67205000  1
  C  C166  1  0.19457000  0.73564000  0.68484000  1
  C  C167  1  0.12071000  0.77981000  0.66042000  1
  C  C168  1  0.20687000  0.80375000  0.62230000  1
  C  C169  1  0.37052000  0.78237000  0.60937000  1
  C  C170  1  0.44534000  0.73891000  0.63424000  1
  C  C171  1  0.11211000  0.84951000  0.59478000  1
  C  C172  1  0.24302000  0.88665000  0.56536000  1
  C  C173  1  0.98433000  0.81722000  0.56131000  1
  C  C174  1  0.01546000  0.89097000  0.62609000  1
  C  C175  1  0.10974000  0.91524000  0.66287000  1
  C  C176  1  0.03324000  0.95522000  0.69109000  1
  C  C177  1  0.85873000  0.97134000  0.68354000  1
  C  C178  1  0.76416000  0.94700000  0.64713000  1
  C  C179  1  0.84146000  0.90768000  0.61848000  1
  C  C180  1  0.77397000  0.01482000  0.71305000  1
  C  C181  1  0.08462000  0.57548000  0.64123000  1
  C  C182  1  0.93073000  0.64775000  0.62148000  1
  C  C183  1  0.05619000  0.64220000  0.58816000  1
  C  C184  1  0.29350000  0.57221000  0.57498000  1
  C  C185  1  0.47312000  0.58068000  0.58101000  1
  C  C186  1  0.57252000  0.55002000  0.54899000  1
  C  C187  1  0.47063000  0.51813000  0.51834000  1
  C  C188  1  0.05272000  0.58599000  0.89199000  1
  C  C189  1  0.17057000  0.58546000  0.85300000  1
  C  C190  1  0.78049000  0.16484000  0.71079000  1
  C  C191  1  0.87472000  0.20508000  0.67875000  1
  C  C192  1  0.05368000  0.22042000  0.68482000  1
  C  C193  1  0.13732000  0.25856000  0.65493000  1
  C  C194  1  0.04630000  0.28165000  0.61783000  1
  C  C195  1  0.86815000  0.26503000  0.61147000  1
  C  C196  1  0.78401000  0.22732000  0.64159000  1
  C  C197  1  0.14809000  0.32384000  0.58617000  1
  C  C198  1  0.02193000  0.35397000  0.55250000  1
  C  C199  1  0.27754000  0.28902000  0.55657000  1
  C  C200  1  0.24427000  0.37084000  0.61407000  1
  C  C201  1  0.15474000  0.39367000  0.65145000  1
  C  C202  1  0.22947000  0.43830000  0.67665000  1
  C  C203  1  0.39744000  0.46099000  0.66545000  1
  C  C204  1  0.48795000  0.43786000  0.62857000  1
  C  C205  1  0.41230000  0.39363000  0.60295000  1
  C  C206  1  0.47680000  0.51027000  0.69162000  1
  C  C207  1  0.44394000  0.16790000  0.80207000  1
  C  C208  1  0.35885000  0.21478000  0.82795000  1
  C  C209  1  0.19457000  0.23564000  0.81516000  1
  C  C210  1  0.12071000  0.27981000  0.83958000  1
  C  C211  1  0.20687000  0.30375000  0.87770000  1
  C  C212  1  0.37052000  0.28237000  0.89063000  1
  C  C213  1  0.44534000  0.23891000  0.86576000  1
  C  C214  1  0.11210000  0.34951000  0.90522000  1
  C  C215  1  0.24302000  0.38665000  0.93464000  1
  C  C216  1  0.98433000  0.31722000  0.93869000  1
  C  C217  1  0.01546000  0.39096000  0.87391000  1
  C  C218  1  0.10974000  0.41524000  0.83713000  1
  C  C219  1  0.03324000  0.45522000  0.80891000  1
  C  C220  1  0.85873000  0.47134000  0.81646000  1
  C  C221  1  0.76416000  0.44700000  0.85287000  1
  C  C222  1  0.84146000  0.40768000  0.88152000  1
  C  C223  1  0.77397000  0.51482000  0.78695000  1
  C  C224  1  0.08462000  0.07548000  0.85878000  1
  C  C225  1  0.93073000  0.14775000  0.87852000  1
  C  C226  1  0.05619000  0.14220000  0.91184000  1
  C  C227  1  0.29350000  0.07221000  0.92502000  1
  C  C228  1  0.47311000  0.08068000  0.91899000  1
  C  C229  1  0.57252000  0.05002000  0.95101000  1
  C  C230  1  0.47063000  0.01813000  0.98166000  1
  C  C231  1  0.05271000  0.08599000  0.60801000  1
  C  C232  1  0.17057000  0.08546000  0.64700000  1
  C  C233  1  0.21951000  0.33516000  0.21078000  1
  C  C234  1  0.12528000  0.29492000  0.17875000  1
  C  C235  1  0.94632000  0.27958000  0.18482000  1
  C  C236  1  0.86267000  0.24144000  0.15493000  1
  C  C237  1  0.95370000  0.21835000  0.11783000  1
  C  C238  1  0.13185000  0.23497000  0.11147000  1
  C  C239  1  0.21598000  0.27268000  0.14159000  1
  C  C240  1  0.85190000  0.17616000  0.08617000  1
  C  C241  1  0.97807000  0.14603000  0.05250000  1
  C  C242  1  0.72246000  0.21098000  0.05657000  1
  C  C243  1  0.75572000  0.12916000  0.11407000  1
  C  C244  1  0.84526000  0.10633000  0.15145000  1
  C  C245  1  0.77052000  0.06170000  0.17664000  1
  C  C246  1  0.60255000  0.03901000  0.16544000  1
  C  C247  1  0.51205000  0.06214000  0.12857000  1
  C  C248  1  0.58770000  0.10637000  0.10295000  1
  C  C249  1  0.52320000  0.98973000  0.19162000  1
  C  C250  1  0.55605000  0.33210000  0.30207000  1
  C  C251  1  0.64115000  0.28522000  0.32795000  1
  C  C252  1  0.80543000  0.26436000  0.31516000  1
  C  C253  1  0.87929000  0.22019000  0.33958000  1
  C  C254  1  0.79313000  0.19625000  0.37770000  1
  C  C255  1  0.62947000  0.21763000  0.39063000  1
  C  C256  1  0.55466000  0.26109000  0.36576000  1
  C  C257  1  0.88789000  0.15049000  0.40522000  1
  C  C258  1  0.75697000  0.11335000  0.43464000  1
  C  C259  1  0.01567000  0.18278000  0.43869000  1
  C  C260  1  0.98454000  0.10904000  0.37391000  1
  C  C261  1  0.89026000  0.08476000  0.33713000  1
  C  C262  1  0.96676000  0.04478000  0.30891000  1
  C  C263  1  0.14126000  0.02866000  0.31646000  1
  C  C264  1  0.23584000  0.05300000  0.35287000  1
  C  C265  1  0.15854000  0.09232000  0.38152000  1
  C  C266  1  0.22603000  0.98518000  0.28695000  1
  C  C267  1  0.91537000  0.42452000  0.35878000  1
  C  C268  1  0.06927000  0.35225000  0.37852000  1
  C  C269  1  0.94381000  0.35780000  0.41184000  1
  C  C270  1  0.70650000  0.42779000  0.42502000  1
  C  C271  1  0.52688000  0.41932000  0.41899000  1
  C  C272  1  0.42747000  0.44998000  0.45101000  1
  C  C273  1  0.52937000  0.48187000  0.48166000  1
  C  C274  1  0.94728000  0.41401000  0.10801000  1
  C  C275  1  0.82943000  0.41454000  0.14700000  1
  S  S276  1  0.75418000  0.97353000  0.02963000  1
  S  S277  1  0.24583000  0.52647000  0.52963000  1
  S  S278  1  0.24582000  0.02647000  0.97037000  1
  S  S279  1  0.75417000  0.47353000  0.47037000  1
  N  N280  1  0.05081000  0.89395000  0.15432000  1
  N  N281  1  0.84551000  0.90432000  0.10073000  1
  N  N282  1  0.73341000  0.91525000  0.32188000  1
  N  N283  1  0.94919000  0.60605000  0.65432000  1
  N  N284  1  0.15449000  0.59568000  0.60073000  1
  N  N285  1  0.26659000  0.58475000  0.82188000  1
  N  N286  1  0.94919000  0.10605000  0.84568000  1
  N  N287  1  0.15449000  0.09568000  0.89927000  1
  N  N288  1  0.26659000  0.08475000  0.67812000  1
  N  N289  1  0.05080000  0.39395000  0.34568000  1
  N  N290  1  0.84551000  0.40432000  0.39927000  1
  N  N291  1  0.73341000  0.41525000  0.17812000  1
  O  O292  1  0.14182000  0.84620000  0.25174000  1
  O  O293  1  0.37073000  0.85437000  0.30239000  1
  O  O294  1  0.61746000  0.46978000  0.27636000  1
  O  O295  1  0.36904000  0.47185000  0.32051000  1
  O  O296  1  0.41157000  0.85033000  0.18169000  1
  O  O297  1  0.63421000  0.85013000  0.23394000  1
  O  O298  1  0.13480000  0.46480000  0.24599000  1
  O  O299  1  0.38378000  0.47246000  0.20202000  1
  O  O300  1  0.85818000  0.65380000  0.75174000  1
  O  O301  1  0.62927000  0.64563000  0.80239000  1
  O  O302  1  0.38254000  0.03022000  0.77636000  1
  O  O303  1  0.63096000  0.02815000  0.82051000  1
  O  O304  1  0.58843000  0.64967000  0.68169000  1
  O  O305  1  0.36579000  0.64987000  0.73394000  1
  O  O306  1  0.86520000  0.03520000  0.74599000  1
  O  O307  1  0.61622000  0.02754000  0.70202000  1
  O  O308  1  0.85818000  0.15380000  0.74826000  1
  O  O309  1  0.62927000  0.14563000  0.69761000  1
  O  O310  1  0.38254000  0.53022000  0.72364000  1
  O  O311  1  0.63096000  0.52815000  0.67949000  1
  O  O312  1  0.58843000  0.14967000  0.81831000  1
  O  O313  1  0.36579000  0.14987000  0.76606000  1
  O  O314  1  0.86520000  0.53520000  0.75401000  1
  O  O315  1  0.61622000  0.52754000  0.79798000  1
  O  O316  1  0.14182000  0.34620000  0.24826000  1
  O  O317  1  0.37073000  0.35437000  0.19761000  1
  O  O318  1  0.61746000  0.96978000  0.22364000  1
  O  O319  1  0.36904000  0.97185000  0.17949000  1
  O  O320  1  0.41157000  0.35033000  0.31831000  1
  O  O321  1  0.63421000  0.35013000  0.26606000  1
  O  O322  1  0.13480000  0.96480000  0.25401000  1
  O  O323  1  0.38378000  0.97246000  0.29798000  1
  F  F324  1  0.10879000  0.61976000  0.42479000  1
  F  F325  1  0.05842000  0.68302000  0.47740000  1
  F  F326  1  0.89258000  0.60556000  0.47276000  1
  F  F327  1  0.80429000  0.75765000  0.46146000  1
  F  F328  1  0.65130000  0.68145000  0.47934000  1
  F  F329  1  0.58440000  0.72888000  0.41776000  1
  F  F330  1  0.83931000  0.56784000  0.04775000  1
  F  F331  1  0.68691000  0.64070000  0.02916000  1
  F  F332  1  0.61671000  0.59405000  0.09094000  1
  F  F333  1  0.92877000  0.72331000  0.03837000  1
  F  F334  1  0.08907000  0.64861000  0.02939000  1
  F  F335  1  0.15263000  0.70864000  0.08418000  1
  F  F336  1  0.89121000  0.88024000  0.92479000  1
  F  F337  1  0.94158000  0.81698000  0.97740000  1
  F  F338  1  0.10742000  0.89444000  0.97276000  1
  F  F339  1  0.19571000  0.74235000  0.96146000  1
  F  F340  1  0.34871000  0.81855000  0.97935000  1
  F  F341  1  0.41560000  0.77112000  0.91776000  1
  F  F342  1  0.16069000  0.93216000  0.54775000  1
  F  F343  1  0.31309000  0.85930000  0.52916000  1
  F  F344  1  0.38329000  0.90595000  0.59094000  1
  F  F345  1  0.07123000  0.77670000  0.53837000  1
  F  F346  1  0.91093000  0.85139000  0.52939000  1
  F  F347  1  0.84737000  0.79137000  0.58418000  1
  F  F348  1  0.89121000  0.38024000  0.57521000  1
  F  F349  1  0.94158000  0.31698000  0.52260000  1
  F  F350  1  0.10741000  0.39444000  0.52724000  1
  F  F351  1  0.19571000  0.24235000  0.53854000  1
  F  F352  1  0.34870000  0.31855000  0.52066000  1
  F  F353  1  0.41560000  0.27112000  0.58224000  1
  F  F354  1  0.16069000  0.43216000  0.95225000  1
  F  F355  1  0.31309000  0.35930000  0.97085000  1
  F  F356  1  0.38329000  0.40595000  0.90906000  1
  F  F357  1  0.07123000  0.27670000  0.96163000  1
  F  F358  1  0.91093000  0.35139000  0.97061000  1
  F  F359  1  0.84736000  0.29136000  0.91582000  1
  F  F360  1  0.10879000  0.11976000  0.07521000  1
  F  F361  1  0.05842000  0.18302000  0.02260000  1
  F  F362  1  0.89258000  0.10556000  0.02724000  1
  F  F363  1  0.80429000  0.25765000  0.03854000  1
  F  F364  1  0.65129000  0.18145000  0.02066000  1
  F  F365  1  0.58440000  0.22888000  0.08224000  1
  F  F366  1  0.83931000  0.06784000  0.45225000  1
  F  F367  1  0.68691000  0.14070000  0.47085000  1
  F  F368  1  0.61671000  0.09405000  0.40906000  1
  F  F369  1  0.92877000  0.22331000  0.46163000  1
  F  F370  1  0.08907000  0.14861000  0.47061000  1
  F  F371  1  0.15263000  0.20864000  0.41582000  1
