# generated using pymatgen
data_H10C16N3
_symmetry_space_group_name_H-M   'P 1'
_cell_length_a   32.07070000
_cell_length_b   32.07074572
_cell_length_c   32.07074572
_cell_angle_alpha   75.52252999
_cell_angle_beta   60.00004715
_cell_angle_gamma   60.00004715
_symmetry_Int_Tables_number   1
_chemical_formula_structural   H10C16N3
_chemical_formula_sum   'H160 C256 N48'
_cell_volume   24739.34699588
_cell_formula_units_Z   16
loop_
 _symmetry_equiv_pos_site_id
 _symmetry_equiv_pos_as_xyz
  1  'x, y, z'
loop_
 _atom_site_type_symbol
 _atom_site_label
 _atom_site_symmetry_multiplicity
 _atom_site_fract_x
 _atom_site_fract_y
 _atom_site_fract_z
 _atom_site_occupancy
  C  1  1  0.01242700  0.01108300  0.00167500  1
  C  2  1  0.98535850  0.06239600  0.00594000  1
  C  3  1  0.01038300  0.08697250  0.00870550  1
  C  4  1  0.05925650  0.05952250  0.01190550  1
  C  5  1  0.08753050  0.00897700  0.00721000  1
  C  6  1  0.06442800  0.98466900  0.00062100  1
  C  7  1  0.93411950  0.08773250  0.00684850  1
  C  8  1  0.09039050  0.93399850  0.99614250  1
  C  10  1  0.98759300  0.98620650  0.99830950  1
  C  11  1  0.93559150  0.01262300  0.99936600  1
  C  12  1  0.91250450  0.98832550  0.99273350  1
  C  13  1  0.94078650  0.93778300  0.98801800  1
  C  14  1  0.98967900  0.91032800  0.99118400  1
  C  15  1  0.01467100  0.93489500  0.99402700  1
  C  16  1  0.90961500  0.06328650  0.00387750  1
  C  18  1  0.06590050  0.90955450  0.99313850  1
  C  27  1  0.02653750  0.48620400  0.49833300  1
  C  28  1  0.05503900  0.43489000  0.49408100  1
  C  29  1  0.10740100  0.41031150  0.49133050  1
  C  30  1  0.13202050  0.43776250  0.48813450  1
  C  31  1  0.10506850  0.48831150  0.49279550  1
  C  32  1  0.05106600  0.51261750  0.49939650  1
  C  33  1  0.03004700  0.40955200  0.49316900  1
  C  34  1  0.02188200  0.56328500  0.50387600  1
  C  36  1  0.97347750  0.51108550  0.50165950  1
  C  37  1  0.94894850  0.48467000  0.50059900  1
  C  38  1  0.89495100  0.50897300  0.50718800  1
  C  39  1  0.86802200  0.55952900  0.51179800  1
  C  40  1  0.89262700  0.58697950  0.50863850  1
  C  41  1  0.94497550  0.56240150  0.50591050  1
  C  42  1  0.97812200  0.43399950  0.49614750  1
  C  44  1  0.96996300  0.58773800  0.50683300  1
  C  53  1  0.02485050  0.00034350  0.48756450  1
  C  54  1  0.04908200  0.00463700  0.43625300  1
  C  55  1  0.09863200  0.00749400  0.41168900  1
  C  56  1  0.12009250  0.01061650  0.43914550  1
  C  57  1  0.09783050  0.00589600  0.48968900  1
  C  58  1  0.05043950  0.99927800  0.51398300  1
  C  59  1  0.02319050  0.00553250  0.41091150  1
  C  60  1  0.02574100  0.99477400  0.56464800  1
  C  62  1  0.97514150  0.99697150  0.51243750  1
  C  63  1  0.94955200  0.99803650  0.48601950  1
  C  64  1  0.90214750  0.99143750  0.51032050  1
  C  65  1  0.87987400  0.98674200  0.56086300  1
  C  66  1  0.90133650  0.98986250  0.58831750  1
  C  67  1  0.95090800  0.99268350  0.56374950  1
  C  68  1  0.97425800  0.00252700  0.43535100  1
  C  70  1  0.97680600  0.99177450  0.58909150  1
  C  79  1  0.51410150  0.49699050  0.01242550  1
  C  80  1  0.49130300  0.49271850  0.06373850  1
  C  81  1  0.51909900  0.48995500  0.08830800  1
  C  82  1  0.57113650  0.48683700  0.06085300  1
  C  83  1  0.59474150  0.49147100  0.01030500  1
  C  84  1  0.56504200  0.49806150  0.98600450  1
  C  85  1  0.44098200  0.49179450  0.08907850  1
  C  86  1  0.58652400  0.50252500  0.93533500  1
  C  88  1  0.48590850  0.50033600  0.98754900  1
  C  89  1  0.43496800  0.49926850  0.01396950  1
  C  90  1  0.40525650  0.50587550  0.98967450  1
  C  91  1  0.42884650  0.51053700  0.93912600  1
  C  92  1  0.48088300  0.50741800  0.91167100  1
  C  93  1  0.50870300  0.50461050  0.93623850  1
  C  94  1  0.41349600  0.49477800  0.06463700  1
  C  96  1  0.55903300  0.50551800  0.91089500  1
  C  105  1  0.48536850  0.49928100  0.48865400  1
  C  106  1  0.50942100  0.49529500  0.43742900  1
  C  107  1  0.48020700  0.49611000  0.41519200  1
  C  108  1  0.42680250  0.50273700  0.44452200  1
  C  109  1  0.40236650  0.50734800  0.49468700  1
  C  110  1  0.43153000  0.50527750  0.51735550  1
  C  111  1  0.56247800  0.49018550  0.40992950  1
  C  112  1  0.40844700  0.50895100  0.56787000  1
  C  114  1  0.51463000  0.49798750  0.51137450  1
  C  115  1  0.56846350  0.49200150  0.48267350  1
  C  116  1  0.59762300  0.48995050  0.50533750  1
  C  117  1  0.57319750  0.49453150  0.55550350  1
  C  118  1  0.51980450  0.50113100  0.58483400  1
  C  119  1  0.49057800  0.50196950  0.56260050  1
  C  120  1  0.59154650  0.48832950  0.43215650  1
  C  122  1  0.43751950  0.50708300  0.59009800  1
  C  131  1  0.47465350  0.99800250  0.01135350  1
  C  132  1  0.44348050  0.00200600  0.06257600  1
  C  133  1  0.39283150  0.00121800  0.08480100  1
  C  134  1  0.37541000  0.99455400  0.05546900  1
  C  135  1  0.40574550  0.98996000  0.00530300  1
  C  136  1  0.45551650  0.99201100  0.98264700  1
  C  137  1  0.46391350  0.00711850  0.09008450  1
  C  138  1  0.48664150  0.98831850  0.93213250  1
  C  140  1  0.52534700  0.99928250  0.98864550  1
  C  141  1  0.54448200  0.00527600  0.01735500  1
  C  142  1  0.59425200  0.00733100  0.99470100  1
  C  143  1  0.62456950  0.00276800  0.94453200  1
  C  144  1  0.60714750  0.99610550  0.91520150  1
  C  145  1  0.55651550  0.99528700  0.93742300  1
  C  146  1  0.51336350  0.00895700  0.06786900  1
  C  148  1  0.53608300  0.99016850  0.90991550  1
  C  157  1  0.47399800  0.01001550  0.50067250  1
  C  158  1  0.44682200  0.06124250  0.49670550  1
  C  159  1  0.39533500  0.08347950  0.49759250  1
  C  160  1  0.37126650  0.05415250  0.50420050  1
  C  161  1  0.39701200  0.00398600  0.50877000  1
  C  162  1  0.44885600  0.98131600  0.50667800  1
  C  163  1  0.47238950  0.08873950  0.49157250  1
  C  164  1  0.47629500  0.93079900  0.51033500  1
  C  166  1  0.52600150  0.98728950  0.49933550  1
  C  167  1  0.55114550  0.01599050  0.49332550  1
  C  168  1  0.60299050  0.99332150  0.49123350  1
  C  169  1  0.62873850  0.94315350  0.49579950  1
  C  170  1  0.60466750  0.91382800  0.50241200  1
  C  171  1  0.55318200  0.93606250  0.50329950  1
  C  172  1  0.52370750  0.06650650  0.48967050  1
  C  174  1  0.52761300  0.90856700  0.50843200  1
  C  183  1  0.98601250  0.48729650  0.99935550  1
  C  184  1  0.00607150  0.43607150  0.00333650  1
  C  185  1  0.97768250  0.41385400  0.00247100  1
  C  186  1  0.93092950  0.44318700  0.99581300  1
  C  187  1  0.91107850  0.49335750  0.99125650  1
  C  188  1  0.93818100  0.51600850  0.99334250  1
  C  189  1  0.05400200  0.40856150  0.00847050  1
  C  190  1  0.91878400  0.56652400  0.98967300  1
  C  192  1  0.01397900  0.51000450  0.00067350  1
  C  193  1  0.06181300  0.48129100  0.00668300  1
  C  194  1  0.08891400  0.50394350  0.00876950  1
  C  195  1  0.06906400  0.55411250  0.00421550  1
  C  196  1  0.02231100  0.58344550  0.99755750  1
  C  197  1  0.99391950  0.56122800  0.99669300  1
  C  198  1  0.08121050  0.43077600  0.01035500  1
  C  200  1  0.94599050  0.58874000  0.99155800  1
  C  417  1  0.27748250  0.00006400  0.01533400  1
  C  418  1  0.22452050  0.00762000  0.03298000  1
  C  419  1  0.21123900  0.98801200  0.00923900  1
  C  420  1  0.25305500  0.95984900  0.96769700  1
  C  421  1  0.30686600  0.95268350  0.94846950  1
  C  422  1  0.31947800  0.97361000  0.97249500  1
  C  429  1  0.15659200  0.00149900  0.02488700  1
  C  431  1  0.37101950  0.97099750  0.95465950  1
  C  433  1  0.29424500  0.49719450  0.48468650  1
  C  434  1  0.26647650  0.48964300  0.46704700  1
  C  435  1  0.20984550  0.50925450  0.49079450  1
  C  436  1  0.18196500  0.53742000  0.53233100  1
  C  437  1  0.20939100  0.54458200  0.55155000  1
  C  438  1  0.26695450  0.52364950  0.52752150  1
  C  445  1  0.18432500  0.49577400  0.47514900  1
  C  447  1  0.29805650  0.52625800  0.54534900  1
  C  449  1  0.27889950  0.01398750  0.49858450  1
  C  450  1  0.23348550  0.03163150  0.49104150  1
  C  451  1  0.20061100  0.00787600  0.51064000  1
  C  452  1  0.21429000  0.96631900  0.53877700  1
  C  453  1  0.26094500  0.94709250  0.54592650  1
  C  454  1  0.29446600  0.97113550  0.52501450  1
  C  461  1  0.15943000  0.02353750  0.49717250  1
  C  463  1  0.34339850  0.95330700  0.52761700  1
  C  465  1  0.79286200  0.48332050  0.00133950  1
  C  466  1  0.75753150  0.46568400  0.00890700  1
  C  467  1  0.72048450  0.48944450  0.98932550  1
  C  468  1  0.72074650  0.53099850  0.96117850  1
  C  469  1  0.75533550  0.55021950  0.95400950  1
  C  470  1  0.79199700  0.52617350  0.97491150  1
  C  477  1  0.68147300  0.47381000  0.00282500  1
  C  479  1  0.82570950  0.54400250  0.97229350  1
  C  481  1  0.72249750  0.99728150  0.98465350  1
  C  482  1  0.77546050  0.98971850  0.96701450  1
  C  483  1  0.78874800  0.00929550  0.99077850  1
  C  484  1  0.74693800  0.03743500  0.03233300  1
  C  485  1  0.69312700  0.04460800  0.05155200  1
  C  486  1  0.68050600  0.02371150  0.02750750  1
  C  493  1  0.84339850  0.99580600  0.97512500  1
  C  495  1  0.62896050  0.02633400  0.04533400  1
  C  497  1  0.70575600  0.50010400  0.51532400  1
  C  498  1  0.73353050  0.50765550  0.53295650  1
  C  499  1  0.79016100  0.48804050  0.50920550  1
  C  500  1  0.81803500  0.45987350  0.46767150  1
  C  501  1  0.79060300  0.45271450  0.44845750  1
  C  502  1  0.73304050  0.47364900  0.47249000  1
  C  509  1  0.81568850  0.50152300  0.52484000  1
  C  511  1  0.70193050  0.47104650  0.45466850  1
  C  513  1  0.72110700  0.98331250  0.50141050  1
  C  514  1  0.76652150  0.96566650  0.50895650  1
  C  515  1  0.79939750  0.98942100  0.48935500  1
  C  516  1  0.78572400  0.03097500  0.46121200  1
  C  517  1  0.73907150  0.05020150  0.45406050  1
  C  518  1  0.70554500  0.02616350  0.47497850  1
  C  525  1  0.84056750  0.97376650  0.50283250  1
  C  527  1  0.65660950  0.04399500  0.47237900  1
  C  529  1  0.20714850  0.51397500  0.99865300  1
  C  530  1  0.24248050  0.53161350  0.99107850  1
  C  531  1  0.27953500  0.50785250  0.01065050  1
  C  532  1  0.27928100  0.46629700  0.03879600  1
  C  533  1  0.24469000  0.44707550  0.04597050  1
  C  534  1  0.20801850  0.47112150  0.02508150  1
  C  541  1  0.31853550  0.52350150  0.99715550  1
  C  543  1  0.17429950  0.45328950  0.02771150  1
  C  673  1  0.99473700  0.71461950  0.02980550  1
  C  674  1  0.98749600  0.75821650  0.04090450  1
  C  675  1  0.00173300  0.79053850  0.00420650  1
  C  676  1  0.02106150  0.77864150  0.95618850  1
  C  677  1  0.02816150  0.73509700  0.94416700  1
  C  678  1  0.01496850  0.70227000  0.98167000  1
  C  685  1  0.98732900  0.83620450  0.01628650  1
  C  687  1  0.03113050  0.65521500  0.97176800  1
  C  689  1  0.74048200  0.78272200  0.47020000  1
  C  690  1  0.78795500  0.73914000  0.45907300  1
  C  691  1  0.79783700  0.70679650  0.49575450  1
  C  692  1  0.75726050  0.71865950  0.54377750  1
  C  693  1  0.70877750  0.76218700  0.55582200  1
  C  694  1  0.70023050  0.79503100  0.51834100  1
  C  701  1  0.84117750  0.66113550  0.48364350  1
  C  703  1  0.65937700  0.84206900  0.52828100  1
  C  705  1  0.71073500  0.02839450  0.78405750  1
  C  706  1  0.74707800  0.03951200  0.74046500  1
  C  707  1  0.79363900  0.00282100  0.70813100  1
  C  708  1  0.80107600  0.95480200  0.72001000  1
  C  709  1  0.76464200  0.94276400  0.76354600  1
  C  710  1  0.71862150  0.98025550  0.79638650  1
  C  717  1  0.82487450  0.01491300  0.66246400  1
  C  719  1  0.68772200  0.97032700  0.84343100  1
  C  721  1  0.52454200  0.46888100  0.71594500  1
  C  722  1  0.52843550  0.45775650  0.75952750  1
  C  723  1  0.50597000  0.49443700  0.79187200  1
  C  724  1  0.47724500  0.54245800  0.78001100  1
  C  725  1  0.47228650  0.55450200  0.73648400  1
  C  726  1  0.49659450  0.51701900  0.70363600  1
  C  733  1  0.50366150  0.48231950  0.83752950  1
  C  735  1  0.50277300  0.52696450  0.65660150  1
  C  737  1  0.00527000  0.28269300  0.97019900  1
  C  738  1  0.01251950  0.23910150  0.95908050  1
  C  739  1  0.99828900  0.20676700  0.99576900  1
  C  740  1  0.97895900  0.21865150  0.04378950  1
  C  741  1  0.97185050  0.26218950  0.05582950  1
  C  742  1  0.98504000  0.29502750  0.01833650  1
  C  749  1  0.01269600  0.16110750  0.98366950  1
  C  751  1  0.96886800  0.34208150  0.02825650  1
  C  753  1  0.25952000  0.21458700  0.52980500  1
  C  754  1  0.21204450  0.25816800  0.54093200  1
  C  755  1  0.20217150  0.29051700  0.50425100  1
  C  756  1  0.24275650  0.27865800  0.45623100  1
  C  757  1  0.29124000  0.23513050  0.44418450  1
  C  758  1  0.29977650  0.20228000  0.48166700  1
  C  765  1  0.15881100  0.33617100  0.51636400  1
  C  767  1  0.34062800  0.15524250  0.47172550  1
  C  769  1  0.28924650  0.96890750  0.21594950  1
  C  770  1  0.25289950  0.95779750  0.25954550  1
  C  771  1  0.20634550  0.99448900  0.29187900  1
  C  772  1  0.19891300  0.04250650  0.27999850  1
  C  773  1  0.23535150  0.05453750  0.23646050  1
  C  774  1  0.28136650  0.01704400  0.20361900  1
  C  781  1  0.17510750  0.98240450  0.33755150  1
  C  783  1  0.31226600  0.02696950  0.15657350  1
  C  785  1  0.47544700  0.52842500  0.28406000  1
  C  786  1  0.47156450  0.53955100  0.24047400  1
  C  787  1  0.49401900  0.50286950  0.20813350  1
  C  788  1  0.52272150  0.45484650  0.22000350  1
  C  789  1  0.52767250  0.44280200  0.26353300  1
  C  790  1  0.50337450  0.48028400  0.29637600  1
  C  797  1  0.49635900  0.51498600  0.16246800  1
  C  799  1  0.49718400  0.47035000  0.34341500  1
  H  9  1  0.07664100  0.07776450  0.01418450  1
  H  17  1  0.92340750  0.91953200  0.98574300  1
  H  19  1  0.87274400  0.08333950  0.00404150  1
  H  20  1  0.91395600  0.12447300  0.00961600  1
  H  21  1  0.08607400  0.87281650  0.99034850  1
  H  22  1  0.12727750  0.91395300  0.99594200  1
  H  35  1  0.16992300  0.41951950  0.48586550  1
  H  43  1  0.83010450  0.57776700  0.51410100  1
  H  45  1  0.96148750  0.41395450  0.49593150  1
  H  46  1  0.04939050  0.37281250  0.49040450  1
  H  47  1  0.95062550  0.62447550  0.50959050  1
  H  48  1  0.03852750  0.58333450  0.50406450  1
  H  61  1  0.15571300  0.01290600  0.42089600  1
  H  69  1  0.84426750  0.98442600  0.57910500  1
  H  71  1  0.95742450  0.00272200  0.41530100  1
  H  72  1  0.03975550  0.00832550  0.37417350  1
  H  73  1  0.96023700  0.98898750  0.62582950  1
  H  74  1  0.04257100  0.99458350  0.58470250  1
  H  87  1  0.59083000  0.48450700  0.07909000  1
  H  95  1  0.40917300  0.51283950  0.92088350  1
  H  97  1  0.37680900  0.49457350  0.08469050  1
  H  98  1  0.42359450  0.48901800  0.12581900  1
  H  99  1  0.57641650  0.50830250  0.87415650  1
  H  100  1  0.62320650  0.50273900  0.91528300  1
  H  113  1  0.40422000  0.50672900  0.42853100  1
  H  121  1  0.59576600  0.49056850  0.57149650  1
  H  123  1  0.62993350  0.48439300  0.41072400  1
  H  124  1  0.58094850  0.48716550  0.37324550  1
  H  125  1  0.41904450  0.51010850  0.62678350  1
  H  126  1  0.37005200  0.51290300  0.58930300  1
  H  139  1  0.34081900  0.99057850  0.07145250  1
  H  147  1  0.65916500  0.00673500  0.92854500  1
  H  149  1  0.52636900  0.01290400  0.08930800  1
  H  150  1  0.44266850  0.01015000  0.12676800  1
  H  151  1  0.55733150  0.98713400  0.87323200  1
  H  152  1  0.47363700  0.98437100  0.91069400  1
  H  165  1  0.33270700  0.07014900  0.50815300  1
  H  173  1  0.66729600  0.92715850  0.49184650  1
  H  175  1  0.54067250  0.08793800  0.48571100  1
  H  176  1  0.45417600  0.12542400  0.48855600  1
  H  177  1  0.54582550  0.87188250  0.51144950  1
  H  178  1  0.45932950  0.90936700  0.51429400  1
  H  191  1  0.91230950  0.42720450  0.99185450  1
  H  199  1  0.08768450  0.57009550  0.00817150  1
  H  201  1  0.11564300  0.40933550  0.01431850  1
  H  202  1  0.06943850  0.37187750  0.01149750  1
  H  203  1  0.93055450  0.62542350  0.98852850  1
  H  204  1  0.88435050  0.58796450  0.98570750  1
  H  423  1  0.28381600  0.01730250  0.03283750  1
  H  424  1  0.19536300  0.02908550  0.06270550  1
  H  425  1  0.24374250  0.94595250  0.94981450  1
  H  427  1  0.33422400  0.91053750  0.89329650  1
  H  428  1  0.38208850  0.91595200  0.89437000  1
  H  430  1  0.12887550  0.02739500  0.05110600  1
  H  432  1  0.40004700  0.95917300  0.92068900  1
  H  439  1  0.33531900  0.47995750  0.46717650  1
  H  440  1  0.28850700  0.46817550  0.43732150  1
  H  441  1  0.14087300  0.55131950  0.55021450  1
  H  443  1  0.13943450  0.58673700  0.60672500  1
  H  444  1  0.19379650  0.58131400  0.60564300  1
  H  446  1  0.20872800  0.46987850  0.44893050  1
  H  448  1  0.28129800  0.53809950  0.57931050  1
  H  455  1  0.30245500  0.03150850  0.48136050  1
  H  456  1  0.22577300  0.06137450  0.46959550  1
  H  457  1  0.19109100  0.94842700  0.55266600  1
  H  459  1  0.24619350  0.89189000  0.58804700  1
  H  460  1  0.29947000  0.89297700  0.58262600  1
  H  462  1  0.15760300  0.04977350  0.47129250  1
  H  464  1  0.36061700  0.91933600  0.53943400  1
  H  471  1  0.81671600  0.46579950  0.01855950  1
  H  472  1  0.75811250  0.43594400  0.03035900  1
  H  473  1  0.69353200  0.54889600  0.94730300  1
  H  475  1  0.72748700  0.60542300  0.91190100  1
  H  476  1  0.77644850  0.60432750  0.91729350  1
  H  478  1  0.67998700  0.44758150  0.02871150  1
  H  480  1  0.82072600  0.57799250  0.96051850  1
  H  487  1  0.71616050  0.98006700  0.96713100  1
  H  488  1  0.80461350  0.96827100  0.93727500  1
  H  489  1  0.75625450  0.05131050  0.05023150  1
  H  491  1  0.66577300  0.08671350  0.10675950  1
  H  492  1  0.61790650  0.08132350  0.10566150  1
  H  494  1  0.87110100  0.96993000  0.94888600  1
  H  496  1  0.59994600  0.03812150  0.07931750  1
  H  503  1  0.66468050  0.51734300  0.53284000  1
  H  504  1  0.71150600  0.52912350  0.56268050  1
  H  505  1  0.85912800  0.44597150  0.44978150  1
  H  507  1  0.86055150  0.41055850  0.39327950  1
  H  508  1  0.80618450  0.41598600  0.39436900  1
  H  510  1  0.79129550  0.52741600  0.55106200  1
  H  512  1  0.71868200  0.45920550  0.42070850  1
  H  519  1  0.69754950  0.96579400  0.51863900  1
  H  520  1  0.77423050  0.93592900  0.53040700  1
  H  521  1  0.80892550  0.04886500  0.44732100  1
  H  523  1  0.75382800  0.10539700  0.41193700  1
  H  524  1  0.70055050  0.10431450  0.41735850  1
  H  526  1  0.84240250  0.94753600  0.52871400  1
  H  528  1  0.63939300  0.07796550  0.46056150  1
  H  535  1  0.18328650  0.53149600  0.98144000  1
  H  536  1  0.24189000  0.56135350  0.96962950  1
  H  537  1  0.30649950  0.44839950  0.05266650  1
  H  539  1  0.27255100  0.39187050  0.08807350  1
  H  540  1  0.22358350  0.39296550  0.08269150  1
  H  542  1  0.32000900  0.54973050  0.97126950  1
  H  544  1  0.17928250  0.41930250  0.03948750  1
  H  679  1  0.98621250  0.69136200  0.05748700  1
  H  680  1  0.97198150  0.76598550  0.07627650  1
  H  681  1  0.02908850  0.80270000  0.92928500  1
  H  683  1  0.05473600  0.74990450  0.87204850  1
  H  684  1  0.04988100  0.69869650  0.88696150  1
  H  686  1  0.95211300  0.85171650  0.04493050  1
  H  688  1  0.06892200  0.63753000  0.94717900  1
  H  695  1  0.73636000  0.80599050  0.44253250  1
  H  696  1  0.81557400  0.73139000  0.42369800  1
  H  697  1  0.76246100  0.69458350  0.57066550  1
  H  699  1  0.67806950  0.74733350  0.62793450  1
  H  700  1  0.63689300  0.79854600  0.61305000  1
  H  702  1  0.85020050  0.64564500  0.45494500  1
  H  704  1  0.65501150  0.85973850  0.55280750  1
  H  711  1  0.67894950  0.05606650  0.80732550  1
  H  712  1  0.73932500  0.07488400  0.73270700  1
  H  713  1  0.83316200  0.92790600  0.69594000  1
  H  715  1  0.80602950  0.87065200  0.74870800  1
  H  716  1  0.74997250  0.88554600  0.79991900  1
  H  718  1  0.80520600  0.04359800  0.64695800  1
  H  720  1  0.70785600  0.94575400  0.86110000  1
  H  727  1  0.54369650  0.44121300  0.69267200  1
  H  728  1  0.54831550  0.42238000  0.76727100  1
  H  729  1  0.45836250  0.56934900  0.80408700  1
  H  731  1  0.42670850  0.62661250  0.75134450  1
  H  732  1  0.43674400  0.61172750  0.70013250  1
  H  734  1  0.49717550  0.45363900  0.85304300  1
  H  736  1  0.51605900  0.55150200  0.63894000  1
  H  743  1  0.01378750  0.30596100  0.94252400  1
  H  744  1  0.02803300  0.23134200  0.92370500  1
  H  745  1  0.97093350  0.19458400  0.07068600  1
  H  747  1  0.94527600  0.24736400  0.12794500  1
  H  748  1  0.95012300  0.29857550  0.11304650  1
  H  750  1  0.04789850  0.14561400  0.95500600  1
  H  752  1  0.93107950  0.35976150  0.05284550  1
  H  759  1  0.26363500  0.19131100  0.55747300  1
  H  760  1  0.18441950  0.26590850  0.57630650  1
  H  761  1  0.23755900  0.30273700  0.42934200  1
  H  763  1  0.32195800  0.24998850  0.37207450  1
  H  764  1  0.36312900  0.19877200  0.38696000  1
  H  766  1  0.14985700  0.35166000  0.54503100  1
  H  768  1  0.34499250  0.13757550  0.44719550  1
  H  775  1  0.32103000  0.94123300  0.19268300  1
  H  776  1  0.26064950  0.92242350  0.26730650  1
  H  777  1  0.16683450  0.06940400  0.30406800  1
  H  779  1  0.19397750  0.12664950  0.25129750  1
  H  780  1  0.25003300  0.11175050  0.20008450  1
  H  782  1  0.19477650  0.95373250  0.35306650  1
  H  784  1  0.29212650  0.05155550  0.13891250  1
  H  791  1  0.45630450  0.55609350  0.30732950  1
  H  792  1  0.45170350  0.57492950  0.23272150  1
  H  793  1  0.54159950  0.42795900  0.19592800  1
  H  795  1  0.57323100  0.37069000  0.24868200  1
  H  796  1  0.56319600  0.38557400  0.29989300  1
  H  798  1  0.50277050  0.54370400  0.14695800  1
  H  800  1  0.48390600  0.44580100  0.36106200  1
  N  23  1  0.13732550  0.98589450  0.00582050  1
  N  24  1  0.98976450  0.13467800  0.01276100  1
  N  25  1  0.01028150  0.86261600  0.98718000  1
  N  26  1  0.86268150  0.01139750  0.99418650  1
  N  49  1  0.13038650  0.51138400  0.49421200  1
  N  50  1  0.13854300  0.36260700  0.48727100  1
  N  51  1  0.86146300  0.63468100  0.51272300  1
  N  52  1  0.86962650  0.48590200  0.50578300  1
  N  75  1  0.12456800  0.00446300  0.51276500  1
  N  76  1  0.12574400  0.01150150  0.36397850  1
  N  77  1  0.87423850  0.98582350  0.63602350  1
  N  78  1  0.87543350  0.99284000  0.48723500  1
  N  101  1  0.64313950  0.49287200  0.98722000  1
  N  102  1  0.50256000  0.48588650  0.13601050  1
  N  103  1  0.49745750  0.51144100  0.86396500  1
  N  104  1  0.35687350  0.50444350  0.01275350  1
  N  127  1  0.35019300  0.51642500  0.51780000  1
  N  128  1  0.49726750  0.49714600  0.36745100  1
  N  129  1  0.50272150  0.50013250  0.63257650  1
  N  130  1  0.64979500  0.48087800  0.48222800  1
  N  153  1  0.38578600  0.98085600  0.98218200  1
  N  154  1  0.36317950  0.00016300  0.13253900  1
  N  155  1  0.63680750  0.99713850  0.86746150  1
  N  156  1  0.61421150  0.01644700  0.01781400  1
  N  179  1  0.36796150  0.98087100  0.51781400  1
  N  180  1  0.36469450  0.13122300  0.49856500  1
  N  181  1  0.63530650  0.86608500  0.50144500  1
  N  182  1  0.63204100  0.01643700  0.48218400  1
  N  205  1  0.86799900  0.51648750  0.98215350  1
  N  206  1  0.99575350  0.36611450  0.00145250  1
  N  207  1  0.00424350  0.63118650  0.99857150  1
  N  208  1  0.13200550  0.48081400  0.01785900  1
  N  426  1  0.34408950  0.92499300  0.90811600  1
  N  442  1  0.17857700  0.57227800  0.59190100  1
  N  458  1  0.27050200  0.90672600  0.57359700  1
  N  474  1  0.75219100  0.59058600  0.92634000  1
  N  490  1  0.65590600  0.07227600  0.09192100  1
  N  506  1  0.82140800  0.42502050  0.40810750  1
  N  522  1  0.72951650  0.09056750  0.42638850  1
  N  538  1  0.24784250  0.40670550  0.07364050  1
  N  682  1  0.04681100  0.72668100  0.89700800  1
  N  698  1  0.67185850  0.77056950  0.60298850  1
  N  714  1  0.77487800  0.89560150  0.77194150  1
  N  730  1  0.44374000  0.60166500  0.72810800  1
  N  746  1  0.95320000  0.27059350  0.10299250  1
  N  762  1  0.32816200  0.22675150  0.39702250  1
  N  778  1  0.22512300  0.10169750  0.22806250  1
  N  794  1  0.55620500  0.39563750  0.27191750  1
