# generated using pymatgen
data_CdH12C23Br4(N3O2)2
_symmetry_space_group_name_H-M   'P 1'
_cell_length_a   13.28500000
_cell_length_b   14.03694000
_cell_length_c   18.91091000
_cell_angle_alpha   90.70156000
_cell_angle_beta   108.56977000
_cell_angle_gamma   94.03536000
_symmetry_Int_Tables_number   1
_chemical_formula_structural   CdH12C23Br4(N3O2)2
_chemical_formula_sum   'Cd4 H48 C92 Br16 N24 O16'
_cell_volume   3332.38992000
_cell_formula_units_Z   4
loop_
 _symmetry_equiv_pos_site_id
 _symmetry_equiv_pos_as_xyz
  1  'x, y, z'
loop_
 _atom_site_type_symbol
 _atom_site_label
 _atom_site_symmetry_multiplicity
 _atom_site_fract_x
 _atom_site_fract_y
 _atom_site_fract_z
 _atom_site_occupancy
  Cd  Cd0  1  0.93316000  0.46452000  0.19538000  1
  Cd  Cd1  1  0.47191000  0.88997000  0.58074000  1
  Cd  Cd2  1  0.06684000  0.53547000  0.80463000  1
  Cd  Cd3  1  0.52809000  0.11003000  0.41926000  1
  H  H4  1  0.18069000  0.43680000  0.17231000  1
  H  H5  1  0.87667000  0.40077000  0.01027000  1
  H  H6  1  0.02378000  0.32670000  0.95101000  1
  H  H7  1  0.19678000  0.35610000  0.94231000  1
  H  H8  1  0.48493000  0.22208000  0.05676000  1
  H  H9  1  0.28059000  0.30841000  0.17834000  1
  H  H10  1  0.35101000  0.16377000  0.24260000  1
  H  H11  1  0.61401000  0.27793000  0.17908000  1
  H  H12  1  0.68563000  0.20153000  0.32050000  1
  H  H13  1  0.20522000  0.28641000  0.84282000  1
  H  H14  1  0.49743000  0.24223000  0.80895000  1
  H  H15  1  0.53243000  0.25757000  0.96047000  1
  H  H16  1  0.05973000  0.44667000  0.37465000  1
  H  H17  1  0.11404000  0.26360000  0.21485000  1
  H  H18  1  0.26692000  0.23949000  0.35235000  1
  H  H19  1  0.27928000  0.61438000  0.59460000  1
  H  H20  1  0.18680000  0.69002000  0.69381000  1
  H  H21  1  0.15576000  0.39033000  0.70078000  1
  H  H22  1  0.19085000  0.48794000  0.48870000  1
  H  H23  1  0.25493000  0.19525000  0.46035000  1
  H  H24  1  0.31086000  0.31648000  0.68176000  1
  H  H25  1  0.39006000  0.10869000  0.51780000  1
  H  H26  1  0.28998000  0.15816000  0.70645000  1
  H  H27  1  0.36292000  0.97699000  0.71092000  1
  H  H28  1  0.81931000  0.56319000  0.82769000  1
  H  H29  1  0.12333000  0.59923000  0.98973000  1
  H  H30  1  0.97622000  0.67329000  0.04899000  1
  H  H31  1  0.80322000  0.64390000  0.05769000  1
  H  H32  1  0.51507000  0.77791000  0.94324000  1
  H  H33  1  0.71941000  0.69158000  0.82166000  1
  H  H34  1  0.64899000  0.83622000  0.75740000  1
  H  H35  1  0.38599000  0.72206000  0.82092000  1
  H  H36  1  0.31437000  0.79846000  0.67950000  1
  H  H37  1  0.79478000  0.71359000  0.15719000  1
  H  H38  1  0.50257000  0.75777000  0.19105000  1
  H  H39  1  0.46757000  0.74242000  0.03953000  1
  H  H40  1  0.94027000  0.55333000  0.62536000  1
  H  H41  1  0.88596000  0.73640000  0.78515000  1
  H  H42  1  0.73308000  0.76050000  0.64765000  1
  H  H43  1  0.72072000  0.38562000  0.40540000  1
  H  H44  1  0.81320000  0.30998000  0.30619000  1
  H  H45  1  0.84424000  0.60967000  0.29922000  1
  H  H46  1  0.80915000  0.51206000  0.51130000  1
  H  H47  1  0.74507000  0.80474000  0.53965000  1
  H  H48  1  0.68914000  0.68352000  0.31824000  1
  H  H49  1  0.60994000  0.89130000  0.48220000  1
  H  H50  1  0.71002000  0.84183000  0.29355000  1
  H  H51  1  0.63708000  0.02301000  0.28908000  1
  C  C52  1  0.11682000  0.41615000  0.12132000  1
  C  C53  1  0.96170000  0.39631000  0.03486000  1
  C  C54  1  0.03289000  0.35929000  0.00517000  1
  C  C55  1  0.22709000  0.33269000  0.05948000  1
  C  C56  1  0.24882000  0.32636000  0.99228000  1
  C  C57  1  0.34156000  0.28544000  0.99134000  1
  C  C58  1  0.41299000  0.25399000  0.05700000  1
  C  C59  1  0.38984000  0.26299000  0.12360000  1
  C  C60  1  0.29699000  0.30173000  0.12587000  1
  C  C61  1  0.43244000  0.18500000  0.24617000  1
  C  C62  1  0.57178000  0.24201000  0.21314000  1
  C  C63  1  0.60553000  0.20417000  0.28251000  1
  C  C64  1  0.28881000  0.27669000  0.85231000  1
  C  C65  1  0.44069000  0.25204000  0.83826000  1
  C  C66  1  0.45992000  0.25862000  0.91380000  1
  C  C67  1  0.09448000  0.39450000  0.34885000  1
  C  C68  1  0.12583000  0.29856000  0.26854000  1
  C  C69  1  0.20083000  0.28439000  0.33587000  1
  C  C70  1  0.23844000  0.58001000  0.63017000  1
  C  C71  1  0.19383000  0.61635000  0.68005000  1
  C  C72  1  0.17750000  0.46195000  0.68750000  1
  C  C73  1  0.24765000  0.40859000  0.58910000  1
  C  C74  1  0.21937000  0.42078000  0.51206000  1
  C  C75  1  0.22322000  0.34300000  0.46631000  1
  C  C76  1  0.25831000  0.25662000  0.49666000  1
  C  C77  1  0.29240000  0.24855000  0.57393000  1
  C  C78  1  0.28700000  0.32393000  0.62136000  1
  C  C79  1  0.37059000  0.09458000  0.56817000  1
  C  C80  1  0.31880000  0.11925000  0.66779000  1
  C  C81  1  0.35582000  0.03044000  0.66928000  1
  C  C82  1  0.46410000  0.69488000  0.53926000  1
  C  C83  1  0.48311000  0.59431000  0.51887000  1
  C  C84  1  0.52032000  0.52807000  0.57427000  1
  C  C85  1  0.53680000  0.43462000  0.55600000  1
  C  C86  1  0.70090000  0.42432000  0.08962000  1
  C  C87  1  0.59710000  0.46333000  0.04276000  1
  C  C88  1  0.52497000  0.49382000  0.07700000  1
  C  C89  1  0.42913000  0.52922000  0.03468000  1
  C  C90  1  0.01734000  0.66762000  0.23048000  1
  C  C91  1  0.09286000  0.75300000  0.26892000  1
  C  C92  1  0.18250000  0.77766000  0.24716000  1
  C  C93  1  0.25997000  0.84863000  0.28648000  1
  C  C94  1  0.24963000  0.89683000  0.34887000  1
  C  C95  1  0.15691000  0.87687000  0.36788000  1
  C  C96  1  0.07935000  0.80583000  0.32823000  1
  C  C97  1  0.34124000  0.96379000  0.39673000  1
  C  C98  1  0.88318000  0.58385000  0.87868000  1
  C  C99  1  0.03830000  0.60368000  0.96515000  1
  C  C100  1  0.96711000  0.64071000  0.99483000  1
  C  C101  1  0.77291000  0.66730000  0.94052000  1
  C  C102  1  0.75118000  0.67363000  0.00772000  1
  C  C103  1  0.65844000  0.71455000  0.00866000  1
  C  C104  1  0.58701000  0.74600000  0.94300000  1
  C  C105  1  0.61016000  0.73701000  0.87640000  1
  C  C106  1  0.70301000  0.69827000  0.87413000  1
  C  C107  1  0.56756000  0.81500000  0.75384000  1
  C  C108  1  0.42822000  0.75798000  0.78686000  1
  C  C109  1  0.39447000  0.79583000  0.71749000  1
  C  C110  1  0.71119000  0.72331000  0.14769000  1
  C  C111  1  0.55931000  0.74795000  0.16174000  1
  C  C112  1  0.54008000  0.74137000  0.08620000  1
  C  C113  1  0.90552000  0.60549000  0.65115000  1
  C  C114  1  0.87417000  0.70144000  0.73146000  1
  C  C115  1  0.79917000  0.71560000  0.66413000  1
  C  C116  1  0.76156000  0.41999000  0.36983000  1
  C  C117  1  0.80617000  0.38364000  0.31995000  1
  C  C118  1  0.82250000  0.53804000  0.31250000  1
  C  C119  1  0.75235000  0.59140000  0.41090000  1
  C  C120  1  0.78063000  0.57921000  0.48794000  1
  C  C121  1  0.77678000  0.65699000  0.53369000  1
  C  C122  1  0.74169000  0.74338000  0.50334000  1
  C  C123  1  0.70760000  0.75144000  0.42607000  1
  C  C124  1  0.71300000  0.67607000  0.37864000  1
  C  C125  1  0.62941000  0.90542000  0.43184000  1
  C  C126  1  0.68120000  0.88075000  0.33221000  1
  C  C127  1  0.64418000  0.96956000  0.33072000  1
  C  C128  1  0.53590000  0.30512000  0.46074000  1
  C  C129  1  0.51689000  0.40569000  0.48113000  1
  C  C130  1  0.47968000  0.47193000  0.42574000  1
  C  C131  1  0.46320000  0.56537000  0.44400000  1
  C  C132  1  0.29910000  0.57567000  0.91038000  1
  C  C133  1  0.40290000  0.53667000  0.95724000  1
  C  C134  1  0.47503000  0.50617000  0.92300000  1
  C  C135  1  0.57087000  0.47077000  0.96533000  1
  C  C136  1  0.98266000  0.33238000  0.76952000  1
  C  C137  1  0.90714000  0.24700000  0.73108000  1
  C  C138  1  0.81750000  0.22234000  0.75284000  1
  C  C139  1  0.74003000  0.15137000  0.71353000  1
  C  C140  1  0.75037000  0.10316000  0.65113000  1
  C  C141  1  0.84309000  0.12313000  0.63212000  1
  C  C142  1  0.92065000  0.19417000  0.67177000  1
  C  C143  1  0.65876000  0.03620000  0.60327000  1
  Br  Br144  1  0.54757000  0.56796000  0.67676000  1
  Br  Br145  1  0.58547000  0.34344000  0.63150000  1
  Br  Br146  1  0.56107000  0.48765000  0.18329000  1
  Br  Br147  1  0.33184000  0.56961000  0.08350000  1
  Br  Br148  1  0.95256000  0.77914000  0.35516000  1
  Br  Br149  1  0.14044000  0.94845000  0.45033000  1
  Br  Br150  1  0.19871000  0.71021000  0.16310000  1
  Br  Br151  1  0.38546000  0.87868000  0.25880000  1
  Br  Br152  1  0.45243000  0.43204000  0.32324000  1
  Br  Br153  1  0.41453000  0.65655000  0.36850000  1
  Br  Br154  1  0.43893000  0.51235000  0.81671000  1
  Br  Br155  1  0.66816000  0.43039000  0.91650000  1
  Br  Br156  1  0.04744000  0.22085000  0.64485000  1
  Br  Br157  1  0.85956000  0.05154000  0.54967000  1
  Br  Br158  1  0.80129000  0.28979000  0.83690000  1
  Br  Br159  1  0.61454000  0.12132000  0.74120000  1
  N  N160  1  0.01476000  0.43145000  0.10697000  1
  N  N161  1  0.13155000  0.37126000  0.06101000  1
  N  N162  1  0.36249000  0.27519000  0.92302000  1
  N  N163  1  0.33398000  0.26268000  0.80041000  1
  N  N164  1  0.46100000  0.23017000  0.19062000  1
  N  N165  1  0.51870000  0.16852000  0.30213000  1
  N  N166  1  0.06006000  0.36734000  0.27723000  1
  N  N167  1  0.18034000  0.34605000  0.38718000  1
  N  N168  1  0.22791000  0.48100000  0.63559000  1
  N  N169  1  0.15585000  0.54247000  0.71489000  1
  N  N170  1  0.32822000  0.15964000  0.60300000  1
  N  N171  1  0.38729000  0.01578000  0.60688000  1
  N  N172  1  0.98524000  0.56855000  0.89303000  1
  N  N173  1  0.86845000  0.62874000  0.93899000  1
  N  N174  1  0.63751000  0.72480000  0.07698000  1
  N  N175  1  0.66602000  0.73732000  0.19959000  1
  N  N176  1  0.53900000  0.76983000  0.80938000  1
  N  N177  1  0.48130000  0.83147000  0.69787000  1
  N  N178  1  0.93994000  0.63266000  0.72277000  1
  N  N179  1  0.81966000  0.65395000  0.61282000  1
  N  N180  1  0.77209000  0.51900000  0.36441000  1
  N  N181  1  0.84415000  0.45752000  0.28512000  1
  N  N182  1  0.67178000  0.84035000  0.39700000  1
  N  N183  1  0.61271000  0.98422000  0.39312000  1
  O  O184  1  0.78111000  0.48633000  0.10376000  1
  O  O185  1  0.69853000  0.34004000  0.10961000  1
  O  O186  1  0.03503000  0.59100000  0.26697000  1
  O  O187  1  0.94901000  0.67684000  0.16821000  1
  O  O188  1  0.54300000  0.75737000  0.54955000  1
  O  O189  1  0.37502000  0.70994000  0.54510000  1
  O  O190  1  0.34901000  0.04836000  0.37474000  1
  O  O191  1  0.40480000  0.92820000  0.45284000  1
  O  O192  1  0.21889000  0.51367000  0.89625000  1
  O  O193  1  0.30147000  0.65996000  0.89039000  1
  O  O194  1  0.96497000  0.40899000  0.73303000  1
  O  O195  1  0.05099000  0.32316000  0.83180000  1
  O  O196  1  0.45700000  0.24263000  0.45045000  1
  O  O197  1  0.62498000  0.29005000  0.45490000  1
  O  O198  1  0.65099000  0.95164000  0.62526000  1
  O  O199  1  0.59520000  0.07179000  0.54716000  1
