# generated using pymatgen
data_Eu4H14C36S6O25
_symmetry_space_group_name_H-M   'P 1'
_cell_length_a   11.41138000
_cell_length_b   16.90327000
_cell_length_c   17.82008000
_cell_angle_alpha   89.60510000
_cell_angle_beta   89.94879000
_cell_angle_gamma   89.92361000
_symmetry_Int_Tables_number   1
_chemical_formula_structural   Eu4H14C36S6O25
_chemical_formula_sum   'Eu8 H28 C72 S12 O50'
_cell_volume   3437.22272403
_cell_formula_units_Z   2
loop_
 _symmetry_equiv_pos_site_id
 _symmetry_equiv_pos_as_xyz
  1  'x, y, z'
loop_
 _atom_site_type_symbol
 _atom_site_label
 _atom_site_symmetry_multiplicity
 _atom_site_fract_x
 _atom_site_fract_y
 _atom_site_fract_z
 _atom_site_occupancy
  Eu  Eu0  1  0.58009000  0.59111000  0.83199000  1
  Eu  Eu1  1  0.02979000  0.03148000  0.33637000  1
  Eu  Eu2  1  0.40976000  0.37532000  0.82680000  1
  Eu  Eu3  1  0.59019000  0.87536000  0.82586000  1
  Eu  Eu4  1  0.12090000  0.74187000  0.32417000  1
  Eu  Eu5  1  0.42016000  0.09124000  0.83178000  1
  Eu  Eu6  1  0.96678000  0.52963000  0.33513000  1
  Eu  Eu7  1  0.88100000  0.24228000  0.32444000  1
  H  H8  1  0.74402000  0.91784000  0.00607000  1
  H  H9  1  0.61363000  0.19025000  0.63908000  1
  H  H10  1  0.84772000  0.93711000  0.13895000  1
  H  H11  1  0.43040000  0.73431000  0.78511000  1
  H  H12  1  0.56946000  0.23398000  0.78506000  1
  H  H13  1  0.71320000  0.20476000  0.50439000  1
  H  H14  1  0.88670000  0.51182000  0.54038000  1
  H  H15  1  0.77827000  0.53004000  0.67242000  1
  H  H16  1  0.38587000  0.68971000  0.64032000  1
  H  H17  1  0.39620000  0.77944000  0.02102000  1
  H  H18  1  0.23396000  0.08513000  0.17447000  1
  H  H19  1  0.42573000  0.73303000  0.87171000  1
  H  H20  1  0.22111000  0.02989000  0.67244000  1
  H  H21  1  0.29034000  0.70479000  0.50500000  1
  H  H22  1  0.11181000  0.01281000  0.54085000  1
  H  H23  1  0.34270000  0.10103000  0.04215000  1
  H  H24  1  0.69299000  0.26811000  0.15782000  1
  H  H25  1  0.30463000  0.76837000  0.15819000  1
  H  H26  1  0.90667000  0.85177000  0.50759000  1
  H  H27  1  0.09078000  0.35199000  0.50911000  1
  H  H28  1  0.15216000  0.43697000  0.13946000  1
  H  H29  1  0.76614000  0.58517000  0.17371000  1
  H  H30  1  0.81507000  0.86503000  0.64458000  1
  H  H31  1  0.25522000  0.41799000  0.00600000  1
  H  H32  1  0.18292000  0.36536000  0.64592000  1
  H  H33  1  0.57413000  0.23281000  0.87160000  1
  H  H34  1  0.60260000  0.27934000  0.02030000  1
  H  H35  1  0.65758000  0.60137000  0.04202000  1
  C  C36  1  0.07465000  0.21069000  0.21646000  1
  C  C37  1  0.77333000  0.63571000  0.13600000  1
  C  C38  1  0.18374000  0.88219000  0.44822000  1
  C  C39  1  0.29189000  0.22821000  0.71088000  1
  C  C40  1  0.15300000  0.22971000  0.51021000  1
  C  C41  1  0.70488000  0.31752000  0.11934000  1
  C  C42  1  0.22680000  0.13561000  0.13659000  1
  C  C43  1  0.65327000  0.04437000  0.72096000  1
  C  C44  1  0.28332000  0.65299000  0.54105000  1
  C  C45  1  0.29370000  0.23749000  0.95391000  1
  C  C46  1  0.20689000  0.48036000  0.11104000  1
  C  C47  1  0.34063000  0.82358000  0.04717000  1
  C  C48  1  0.29347000  0.81797000  0.11979000  1
  C  C49  1  0.78216000  0.08577000  0.52111000  1
  C  C50  1  0.79277000  0.98061000  0.11072000  1
  C  C51  1  0.81556000  0.38067000  0.44933000  1
  C  C52  1  0.81818000  0.47388000  0.56306000  1
  C  C53  1  0.67619000  0.42555000  0.64502000  1
  C  C54  1  0.80926000  0.08463000  0.21510000  1
  C  C55  1  0.68856000  0.39385000  0.01078000  1
  C  C56  1  0.18048000  0.97458000  0.56283000  1
  C  C57  1  0.23737000  0.98320000  0.63217000  1
  C  C58  1  0.84702000  0.69917000  0.15147000  1
  C  C59  1  0.35442000  0.92317000  0.93751000  1
  C  C60  1  0.59782000  0.41585000  0.71036000  1
  C  C61  1  0.13642000  0.30538000  0.53961000  1
  C  C62  1  0.92542000  0.70960000  0.21653000  1
  C  C63  1  0.70822000  0.72827000  0.71025000  1
  C  C64  1  0.31131000  0.89449000  0.01139000  1
  C  C65  1  0.81367000  0.81226000  0.61031000  1
  C  C66  1  0.32493000  0.53698000  0.01915000  1
  C  C67  1  0.74703000  0.71447000  0.02952000  1
  C  C68  1  0.18867000  0.58418000  0.21516000  1
  C  C69  1  0.66751000  0.14563000  0.61219000  1
  C  C70  1  0.69234000  0.07291000  0.64618000  1
  C  C71  1  0.70641000  0.73748000  0.95330000  1
  C  C72  1  0.84811000  0.72853000  0.50980000  1
  C  C73  1  0.15319000  0.19947000  0.15167000  1
  C  C74  1  0.76156000  0.74253000  0.63574000  1
  C  C75  1  0.76145000  0.48313000  0.63251000  1
  C  C76  1  0.71865000  0.15297000  0.54067000  1
  C  C77  1  0.22052000  0.58605000  0.52009000  1
  C  C78  1  0.15556000  0.57288000  0.44986000  1
  C  C79  1  0.60582000  0.04904000  0.94953000  1
  C  C80  1  0.39411000  0.54917000  0.95012000  1
  C  C81  1  0.25321000  0.21402000  0.02993000  1
  C  C82  1  0.18116000  0.90199000  0.21470000  1
  C  C83  1  0.73920000  0.97067000  0.04046000  1
  C  C84  1  0.71659000  0.64413000  0.06677000  1
  C  C85  1  0.84969000  0.06998000  0.45279000  1
  C  C86  1  0.33251000  0.64522000  0.61297000  1
  C  C87  1  0.77003000  0.38431000  0.13859000  1
  C  C88  1  0.34670000  0.54279000  0.72072000  1
  C  C89  1  0.26027000  0.47066000  0.04061000  1
  C  C90  1  0.40228000  0.91707000  0.70871000  1
  C  C91  1  0.23152000  0.55383000  0.14265000  1
  C  C92  1  0.28355000  0.14368000  0.06719000  1
  C  C93  1  0.67451000  0.03696000  0.01874000  1
  C  C94  1  0.64543000  0.42308000  0.93728000  1
  C  C95  1  0.65836000  0.32312000  0.04663000  1
  C  C96  1  0.77527000  0.40923000  0.52324000  1
  C  C97  1  0.22889000  0.88511000  0.13930000  1
  C  C98  1  0.10536000  0.19929000  0.43888000  1
  C  C99  1  0.18543000  0.31280000  0.61140000  1
  C  C100  1  0.23950000  0.24337000  0.63614000  1
  C  C101  1  0.32295000  0.92564000  0.64393000  1
  C  C102  1  0.30724000  0.57222000  0.64625000  1
  C  C103  1  0.89606000  0.69710000  0.43890000  1
  C  C104  1  0.22323000  0.91032000  0.52243000  1
  C  C105  1  0.76798000  0.05419000  0.14225000  1
  C  C106  1  0.81883000  0.40193000  0.21340000  1
  C  C107  1  0.86264000  0.80473000  0.53845000  1
  S  S108  1  0.23260000  0.16941000  0.56990000  1
  S  S109  1  0.66597000  0.36003000  0.57142000  1
  S  S110  1  0.32078000  0.61060000  0.08575000  1
  S  S111  1  0.77662000  0.45226000  0.06611000  1
  S  S112  1  0.22258000  0.51374000  0.58884000  1
  S  S113  1  0.84534000  0.76984000  0.08048000  1
  S  S114  1  0.33257000  0.86036000  0.57012000  1
  S  S115  1  0.22345000  0.95330000  0.06699000  1
  S  S116  1  0.15483000  0.26983000  0.08048000  1
  S  S117  1  0.77124000  0.66792000  0.57049000  1
  S  S118  1  0.67879000  0.11088000  0.08511000  1
  S  S119  1  0.77833000  0.01386000  0.59029000  1
  O  O120  1  0.48055000  0.73375000  0.82954000  1
  O  O121  1  0.68625000  0.80956000  0.93764000  1
  O  O122  1  0.69599000  0.67958000  0.90856000  1
  O  O123  1  0.15211000  0.62977000  0.40176000  1
  O  O124  1  0.44660000  0.61494000  0.94046000  1
  O  O125  1  0.20506000  0.81035000  0.43195000  1
  O  O126  1  0.10401000  0.50718000  0.43998000  1
  O  O127  1  0.33208000  0.15900000  0.72411000  1
  O  O128  1  0.11625000  0.12588000  0.42461000  1
  O  O129  1  0.94131000  0.65089000  0.26143000  1
  O  O130  1  0.88357000  0.62350000  0.42481000  1
  O  O131  1  0.60134000  0.09555000  0.76160000  1
  O  O132  1  0.40975000  0.87294000  0.89794000  1
  O  O133  1  0.87289000  0.42901000  0.40821000  1
  O  O134  1  0.20653000  0.65657000  0.23100000  1
  O  O135  1  0.85752000  0.12355000  0.40125000  1
  O  O136  1  0.02334000  0.27697000  0.22352000  1
  O  O137  1  0.70811000  0.78604000  0.75571000  1
  O  O138  1  0.78951000  0.15673000  0.23143000  1
  O  O139  1  0.59972000  0.99215000  0.90266000  1
  O  O140  1  0.66728000  0.65949000  0.72427000  1
  O  O141  1  0.53835000  0.35229000  0.71573000  1
  O  O142  1  0.79301000  0.30946000  0.43183000  1
  O  O143  1  0.40044000  0.59279000  0.76142000  1
  O  O144  1  0.94882000  0.74750000  0.39743000  1
  O  O145  1  0.05802000  0.15197000  0.26146000  1
  O  O146  1  0.55349000  0.11506000  0.94004000  1
  O  O147  1  0.05385000  0.25056000  0.39735000  1
  O  O148  1  0.58994000  0.37289000  0.89784000  1
  O  O149  1  0.45875000  0.85251000  0.71610000  1
  O  O150  1  0.12336000  0.96503000  0.22680000  1
  O  O151  1  0.33563000  0.99544000  0.92055000  1
  O  O152  1  0.20724000  0.85080000  0.26512000  1
  O  O153  1  0.67438000  0.97258000  0.73854000  1
  O  O154  1  0.86305000  0.03514000  0.25736000  1
  O  O155  1  0.79419000  0.35202000  0.26512000  1
  O  O156  1  0.97685000  0.77562000  0.22367000  1
  O  O157  1  0.51928000  0.23389000  0.82954000  1
  O  O158  1  0.41136000  0.97548000  0.75359000  1
  O  O159  1  0.31360000  0.30972000  0.93886000  1
  O  O160  1  0.59245000  0.47208000  0.75782000  1
  O  O161  1  0.13564000  0.53459000  0.25742000  1
  O  O162  1  0.90208000  0.00363000  0.44687000  1
  O  O163  1  0.32440000  0.47122000  0.73837000  1
  O  O164  1  0.29162000  0.28522000  0.75722000  1
  O  O165  1  0.40027000  0.49202000  0.90356000  1
  O  O166  1  0.66413000  0.49533000  0.92065000  1
  O  O167  1  0.30382000  0.18000000  0.90862000  1
  O  O168  1  0.87687000  0.46522000  0.22346000  1
  O  O169  1  0.13027000  0.93111000  0.40559000  1
