# generated using pymatgen
data_Co6H18C68(O7F12)3
_symmetry_space_group_name_H-M   'P 1'
_cell_length_a   16.55416520
_cell_length_b   19.92147000
_cell_length_c   21.93138121
_cell_angle_alpha   65.68342632
_cell_angle_beta   70.23150191
_cell_angle_gamma   71.94074910
_symmetry_Int_Tables_number   1
_chemical_formula_structural   Co6H18C68(O7F12)3
_chemical_formula_sum   'Co12 H36 C136 O42 F72'
_cell_volume   6078.37444926
_cell_formula_units_Z   2
loop_
 _symmetry_equiv_pos_site_id
 _symmetry_equiv_pos_as_xyz
  1  'x, y, z'
loop_
 _atom_site_type_symbol
 _atom_site_label
 _atom_site_symmetry_multiplicity
 _atom_site_fract_x
 _atom_site_fract_y
 _atom_site_fract_z
 _atom_site_occupancy
  Co  Co0  1  0.94654000  0.22348000  0.76735000  1
  Co  Co1  1  0.97594000  0.70878000  0.24813000  1
  Co  Co2  1  0.12163000  0.36451000  0.42754000  1
  Co  Co3  1  0.99237000  0.03474000  0.82031000  1
  Co  Co4  1  0.07309000  0.86615000  0.91486000  1
  Co  Co5  1  0.04913000  0.52190000  0.31014000  1
  Co  Co6  1  0.02485000  0.21348000  0.87518000  1
  Co  Co7  1  0.06708000  0.02583000  0.92915000  1
  Co  Co8  1  0.97554000  0.37971000  0.76344000  1
  Co  Co9  1  0.01205000  0.72103000  0.36642000  1
  Co  Co10  1  0.07567000  0.53391000  0.43120000  1
  Co  Co11  1  0.94250000  0.87951000  0.25121000  1
  H  H12  1  0.65814000  0.38458000  0.87914000  1
  H  H13  1  0.37684000  0.76396000  0.76802000  1
  H  H14  1  0.39114000  0.34891000  0.27682000  1
  H  H15  1  0.54645000  0.93047000  0.33389000  1
  H  H16  1  0.60999000  0.55273000  0.64783000  1
  H  H17  1  0.53843000  0.60110000  0.95288000  1
  H  H18  1  0.56043000  0.77482000  0.01147000  1
  H  H19  1  0.77667000  0.59191000  0.99682000  1
  H  H20  1  0.78069000  0.09210000  0.51889000  1
  H  H21  1  0.61692000  0.31071000  0.47981000  1
  H  H22  1  0.55272000  0.13977000  0.44291000  1
  H  H23  1  0.21998000  0.63166000  0.74663000  1
  H  H24  1  0.44020000  0.44856000  0.77278000  1
  H  H25  1  0.47415000  0.67307000  0.71880000  1
  H  H26  1  0.24636000  0.14380000  0.24450000  1
  H  H27  1  0.42564000  0.93346000  0.25415000  1
  H  H28  1  0.52518000  0.13342000  0.19126000  1
  H  H29  1  0.74922000  0.90715000  0.11501000  1
  H  H30  1  0.27832000  0.02129000  0.15376000  1
  H  H31  1  0.16340000  0.85624000  0.39110000  1
  H  H32  1  0.28402000  0.26493000  0.14127000  1
  H  H33  1  0.27592000  0.38072000  0.66720000  1
  H  H34  1  0.23099000  0.45212000  0.86971000  1
  H  H35  1  0.12281000  0.87011000  0.66207000  1
  H  H36  1  0.70169000  0.85765000  0.48911000  1
  H  H37  1  0.82569000  0.08645000  0.39187000  1
  H  H38  1  0.30205000  0.35143000  0.56664000  1
  H  H39  1  0.52766000  0.33493000  0.35390000  1
  H  H40  1  0.87068000  0.35441000  0.49900000  1
  H  H41  1  0.81674000  0.22759000  0.36755000  1
  H  H42  1  0.74594000  0.58539000  0.85492000  1
  H  H43  1  0.80082000  0.33076000  0.02684000  1
  H  H44  1  0.52925000  0.82167000  0.87733000  1
  H  H45  1  0.23453000  0.77910000  0.02278000  1
  H  H46  1  0.76528000  0.87492000  0.02144000  1
  H  H47  1  0.77455000  0.74143000  0.87144000  1
  C  C48  1  0.04694000  0.88038000  0.05532000  1
  C  C49  1  0.32556000  0.92004000  0.72623000  1
  C  C50  1  0.99571000  0.35391000  0.63367000  1
  C  C51  1  0.01841000  0.39143000  0.55671000  1
  C  C52  1  0.79703000  0.36344000  0.77767000  1
  C  C53  1  0.44751000  0.19803000  0.30518000  1
  C  C54  1  0.36341000  0.32795000  0.25158000  1
  C  C55  1  0.21730000  0.40641000  0.27933000  1
  C  C56  1  0.39269000  0.25268000  0.25443000  1
  C  C57  1  0.64688000  0.42025000  0.82864000  1
  C  C58  1  0.11775000  0.92010000  0.76298000  1
  C  C59  1  0.81063000  0.82689000  0.22760000  1
  C  C60  1  0.58985000  0.92498000  0.28575000  1
  C  C61  1  0.71789000  0.85683000  0.22534000  1
  C  C62  1  0.65436000  0.85931000  0.28661000  1
  C  C63  1  0.65472000  0.79234000  0.35275000  1
  C  C64  1  0.28532000  0.36963000  0.23142000  1
  C  C65  1  0.62089000  0.51608000  0.69822000  1
  C  C66  1  0.70880000  0.40893000  0.76968000  1
  C  C67  1  0.69411000  0.45629000  0.70344000  1
  C  C68  1  0.75779000  0.44698000  0.63767000  1
  C  C69  1  0.19535000  0.88545000  0.71915000  1
  C  C70  1  0.27698000  0.86203000  0.73636000  1
  C  C71  1  0.65790000  0.58241000  0.98316000  1
  C  C72  1  0.57348000  0.62214000  0.97261000  1
  C  C73  1  0.53775000  0.69192000  0.98371000  1
  C  C74  1  0.58706000  0.72092000  0.00396000  1
  C  C75  1  0.67581000  0.69037000  0.99909000  1
  C  C76  1  0.70848000  0.61740000  0.99683000  1
  C  C77  1  0.67052000  0.10565000  0.48059000  1
  C  C78  1  0.72166000  0.12968000  0.50437000  1
  C  C79  1  0.70982000  0.20606000  0.49266000  1
  C  C80  1  0.62972000  0.25282000  0.48262000  1
  C  C81  1  0.56979000  0.22785000  0.46901000  1
  C  C82  1  0.59291000  0.15567000  0.46267000  1
  C  C83  1  0.34245000  0.66350000  0.72856000  1
  C  C84  1  0.28947000  0.61228000  0.74362000  1
  C  C85  1  0.32693000  0.53574000  0.75484000  1
  C  C86  1  0.41292000  0.50825000  0.76121000  1
  C  C87  1  0.46516000  0.55674000  0.75080000  1
  C  C88  1  0.43164000  0.63504000  0.73132000  1
  C  C89  1  0.38325000  0.14796000  0.21994000  1
  C  C90  1  0.31314000  0.11207000  0.23848000  1
  C  C91  1  0.32910000  0.03505000  0.25026000  1
  C  C92  1  0.41421000  0.99328000  0.24433000  1
  C  C93  1  0.48495000  0.02759000  0.22447000  1
  C  C94  1  0.47023000  0.10591000  0.20971000  1
  C  C95  1  0.93516000  0.35271000  0.90920000  1
  C  C96  1  0.88961000  0.90332000  0.90349000  1
  C  C97  1  0.23252000  0.90504000  0.91117000  1
  C  C98  1  0.15576000  0.31829000  0.77852000  1
  C  C99  1  0.86211000  0.85081000  0.39915000  1
  C  C100  1  0.03961000  0.84588000  0.12438000  1
  C  C101  1  0.97346000  0.38241000  0.37145000  1
  C  C102  1  0.24477000  0.42541000  0.45073000  1
  C  C103  1  0.10775000  0.84700000  0.29393000  1
  C  C104  1  0.57357000  0.97916000  0.22291000  1
  C  C105  1  0.62838000  0.96977000  0.16019000  1
  C  C106  1  0.70067000  0.90903000  0.16219000  1
  C  C107  1  0.61093000  0.02500000  0.09120000  1
  C  C108  1  0.25030000  0.98693000  0.20566000  1
  C  C109  1  0.25828000  0.99842000  0.26204000  1
  C  C110  1  0.22121000  0.95423000  0.32973000  1
  C  C111  1  0.18803000  0.89280000  0.33940000  1
  C  C112  1  0.17941000  0.88197000  0.28292000  1
  C  C113  1  0.21903000  0.92463000  0.21545000  1
  C  C114  1  0.23249000  0.90274000  0.15367000  1
  C  C115  1  0.22175000  0.96968000  0.39174000  1
  C  C116  1  0.30325000  0.28105000  0.17509000  1
  C  C117  1  0.36405000  0.22901000  0.21352000  1
  C  C118  1  0.26168000  0.35085000  0.18516000  1
  C  C119  1  0.19389000  0.40480000  0.14615000  1
  C  C120  1  0.55676000  0.52414000  0.75713000  1
  C  C121  1  0.57330000  0.47963000  0.82292000  1
  C  C122  1  0.50878000  0.49117000  0.88763000  1
  C  C123  1  0.26716000  0.39629000  0.71114000  1
  C  C124  1  0.22248000  0.35471000  0.77613000  1
  C  C125  1  0.22012000  0.36931000  0.83459000  1
  C  C126  1  0.23898000  0.43754000  0.82523000  1
  C  C127  1  0.27735000  0.48309000  0.75938000  1
  C  C128  1  0.29128000  0.46239000  0.70141000  1
  C  C129  1  0.33183000  0.51069000  0.62930000  1
  C  C130  1  0.20533000  0.31005000  0.90591000  1
  C  C131  1  0.32357000  0.78786000  0.74248000  1
  C  C132  1  0.30358000  0.74650000  0.71252000  1
  C  C133  1  0.24045000  0.78377000  0.67226000  1
  C  C134  1  0.18101000  0.84909000  0.68187000  1
  C  C135  1  0.24158000  0.76012000  0.61460000  1
  C  C136  1  0.73074000  0.90550000  0.47478000  1
  C  C137  1  0.81972000  0.90282000  0.43908000  1
  C  C138  1  0.85526000  0.96633000  0.42024000  1
  C  C139  1  0.79861000  0.03584000  0.41661000  1
  C  C140  1  0.71210000  0.03889000  0.45734000  1
  C  C141  1  0.67843000  0.97135000  0.48950000  1
  C  C142  1  0.58649000  0.96973000  0.53565000  1
  C  C143  1  0.95072000  0.95915000  0.41495000  1
  C  C144  1  0.35095000  0.34710000  0.52019000  1
  C  C145  1  0.33681000  0.39904000  0.45630000  1
  C  C146  1  0.40542000  0.39917000  0.39673000  1
  C  C147  1  0.47588000  0.33642000  0.39980000  1
  C  C148  1  0.48282000  0.27779000  0.46300000  1
  C  C149  1  0.41792000  0.28254000  0.52371000  1
  C  C150  1  0.42223000  0.22050000  0.59285000  1
  C  C151  1  0.40767000  0.46862000  0.33236000  1
  C  C152  1  0.85988000  0.32592000  0.47052000  1
  C  C153  1  0.90206000  0.34126000  0.40032000  1
  C  C154  1  0.88725000  0.30526000  0.36251000  1
  C  C155  1  0.83060000  0.25417000  0.39619000  1
  C  C156  1  0.78716000  0.24025000  0.46597000  1
  C  C157  1  0.80747000  0.27143000  0.50485000  1
  C  C158  1  0.77219000  0.24841000  0.58245000  1
  C  C159  1  0.93426000  0.31918000  0.28705000  1
  C  C160  1  0.75977000  0.53111000  0.89416000  1
  C  C161  1  0.70375000  0.51658000  0.95986000  1
  C  C162  1  0.71664000  0.44229000  0.00838000  1
  C  C163  1  0.79160000  0.38802000  0.99125000  1
  C  C164  1  0.85668000  0.40960000  0.92978000  1
  C  C165  1  0.84389000  0.48649000  0.88531000  1
  C  C166  1  0.92032000  0.52521000  0.83877000  1
  C  C167  1  0.65478000  0.42223000  0.07928000  1
  C  C168  1  0.46494000  0.81257000  0.90990000  1
  C  C169  1  0.45691000  0.74209000  0.96225000  1
  C  C170  1  0.37301000  0.73103000  0.00582000  1
  C  C171  1  0.29931000  0.78925000  0.99353000  1
  C  C172  1  0.30836000  0.85944000  0.94138000  1
  C  C173  1  0.39309000  0.87364000  0.90585000  1
  C  C174  1  0.40816000  0.95366000  0.87301000  1
  C  C175  1  0.36146000  0.65697000  0.06442000  1
  C  C176  1  0.76786000  0.84540000  0.98888000  1
  C  C177  1  0.81529000  0.86808000  0.91977000  1
  C  C178  1  0.81233000  0.83380000  0.87571000  1
  C  C179  1  0.77570000  0.76912000  0.90449000  1
  C  C180  1  0.73615000  0.74202000  0.97537000  1
  C  C181  1  0.73701000  0.77801000  0.01864000  1
  C  C182  1  0.70399000  0.74584000  0.09638000  1
  C  C183  1  0.85019000  0.86458000  0.79853000  1
  O  O184  1  0.01433000  0.27915000  0.66482000  1
  O  O185  1  0.05197000  0.77054000  0.15257000  1
  O  O186  1  0.98153000  0.12420000  0.86235000  1
  O  O187  1  0.20221000  0.87515000  0.88214000  1
  O  O188  1  0.00068000  0.61933000  0.35045000  1
  O  O189  1  0.08050000  0.83866000  0.01585000  1
  O  O190  1  0.86230000  0.87512000  0.19967000  1
  O  O191  1  0.07165000  0.48139000  0.38917000  1
  O  O192  1  0.22519000  0.38029000  0.34296000  1
  O  O193  1  0.03718000  0.98405000  0.88925000  1
  O  O194  1  0.16965000  0.47487000  0.25472000  1
  O  O195  1  0.02258000  0.35534000  0.51665000  1
  O  O196  1  0.84230000  0.38820000  0.80064000  1
  O  O197  1  0.93579000  0.13132000  0.75354000  1
  O  O198  1  0.81892000  0.29224000  0.77793000  1
  O  O199  1  0.07206000  0.87615000  0.81743000  1
  O  O200  1  0.09937000  0.99278000  0.75271000  1
  O  O201  1  0.00280000  0.60942000  0.23153000  1
  O  O202  1  0.84383000  0.75348000  0.24516000  1
  O  O203  1  0.98361000  0.26308000  0.80448000  1
  O  O204  1  0.06957000  0.11729000  0.94826000  1
  O  O205  1  0.94057000  0.87242000  0.94675000  1
  O  O206  1  0.89404000  0.97106000  0.85443000  1
  O  O207  1  0.99259000  0.37687000  0.85277000  1
  O  O208  1  0.93441000  0.28014000  0.93297000  1
  O  O209  1  0.95451000  0.39724000  0.67020000  1
  O  O210  1  0.20165000  0.97681000  0.90716000  1
  O  O211  1  0.10938000  0.35309000  0.73169000  1
  O  O212  1  0.14470000  0.25103000  0.82587000  1
  O  O213  1  0.01742000  0.95470000  0.02915000  1
  O  O214  1  0.97546000  0.76084000  0.29316000  1
  O  O215  1  0.05983000  0.63351000  0.44403000  1
  O  O216  1  0.05292000  0.34478000  0.37542000  1
  O  O217  1  0.95827000  0.45565000  0.33842000  1
  O  O218  1  0.84434000  0.87013000  0.33965000  1
  O  O219  1  0.91484000  0.78534000  0.42420000  1
  O  O220  1  0.03673000  0.88521000  0.16075000  1
  O  O221  1  0.19415000  0.37627000  0.48087000  1
  O  O222  1  0.21168000  0.49699000  0.42018000  1
  O  O223  1  0.02878000  0.88897000  0.29578000  1
  O  O224  1  0.11852000  0.77313000  0.31816000  1
  O  O225  1  0.01460000  0.46647000  0.53102000  1
  F  F226  1  0.26971000  0.97741000  0.74882000  1
  F  F227  1  0.53476000  0.18642000  0.27074000  1
  F  F228  1  0.36382000  0.95028000  0.65679000  1
  F  F229  1  0.54946000  0.46472000  0.94116000  1
  F  F230  1  0.47314000  0.56675000  0.87599000  1
  F  F231  1  0.81842000  0.49192000  0.61486000  1
  F  F232  1  0.70916000  0.79521000  0.38698000  1
  F  F233  1  0.43987000  0.22636000  0.35525000  1
  F  F234  1  0.57122000  0.79184000  0.39565000  1
  F  F235  1  0.68357000  0.72601000  0.33867000  1
  F  F236  1  0.39075000  0.88746000  0.76178000  1
  F  F237  1  0.61553000  0.09624000  0.08356000  1
  F  F238  1  0.52861000  0.02600000  0.08779000  1
  F  F239  1  0.67144000  0.00608000  0.03637000  1
  F  F240  1  0.17585000  0.95351000  0.11368000  1
  F  F241  1  0.21910000  0.83088000  0.17270000  1
  F  F242  1  0.31753000  0.90488000  0.11415000  1
  F  F243  1  0.20365000  0.04621000  0.37883000  1
  F  F244  1  0.30313000  0.93870000  0.40633000  1
  F  F245  1  0.15885000  0.93900000  0.44909000  1
  F  F246  1  0.19529000  0.38529000  0.09201000  1
  F  F247  1  0.21048000  0.47674000  0.11914000  1
  F  F248  1  0.11137000  0.40452000  0.19025000  1
  F  F249  1  0.42029000  0.13001000  0.33925000  1
  F  F250  1  0.71398000  0.46866000  0.58673000  1
  F  F251  1  0.80038000  0.37324000  0.64747000  1
  F  F252  1  0.44222000  0.45282000  0.90742000  1
  F  F253  1  0.32895000  0.48682000  0.57917000  1
  F  F254  1  0.41848000  0.50803000  0.62351000  1
  F  F255  1  0.28645000  0.58409000  0.61640000  1
  F  F256  1  0.24950000  0.23976000  0.90255000  1
  F  F257  1  0.11704000  0.30982000  0.93309000  1
  F  F258  1  0.23609000  0.32367000  0.95028000  1
  F  F259  1  0.17816000  0.71797000  0.63668000  1
  F  F260  1  0.32276000  0.71902000  0.59252000  1
  F  F261  1  0.22368000  0.82301000  0.55865000  1
  F  F262  1  0.57336000  0.89671000  0.57105000  1
  F  F263  1  0.52603000  0.00798000  0.49598000  1
  F  F264  1  0.57205000  0.00249000  0.58408000  1
  F  F265  1  0.99066000  0.99857000  0.34837000  1
  F  F266  1  0.99419000  0.88494000  0.43310000  1
  F  F267  1  0.95720000  0.98957000  0.45919000  1
  F  F268  1  0.34327000  0.22585000  0.64135000  1
  F  F269  1  0.48653000  0.22530000  0.61707000  1
  F  F270  1  0.44131000  0.15085000  0.58605000  1
  F  F271  1  0.38988000  0.53172000  0.35013000  1
  F  F272  1  0.34555000  0.47590000  0.29986000  1
  F  F273  1  0.48892000  0.46555000  0.28619000  1
  F  F274  1  0.83062000  0.25289000  0.61255000  1
  F  F275  1  0.75998000  0.17501000  0.61110000  1
  F  F276  1  0.69318000  0.29574000  0.59775000  1
  F  F277  1  0.90018000  0.28919000  0.25652000  1
  F  F278  1  0.02202000  0.28626000  0.28177000  1
  F  F279  1  0.92597000  0.39557000  0.25091000  1
  F  F280  1  0.89668000  0.60184000  0.82669000  1
  F  F281  1  0.94599000  0.51491000  0.77580000  1
  F  F282  1  0.99025000  0.49790000  0.86929000  1
  F  F283  1  0.56923000  0.45610000  0.07500000  1
  F  F284  1  0.67677000  0.44666000  0.12106000  1
  F  F285  1  0.65937000  0.34535000  0.10929000  1
  F  F286  1  0.49648000  0.95567000  0.85221000  1
  F  F287  1  0.36816000  0.99042000  0.92038000  1
  F  F288  1  0.37320000  0.99195000  0.81611000  1
  F  F289  1  0.41329000  0.64116000  0.10853000  1
  F  F290  1  0.38503000  0.59969000  0.03786000  1
  F  F291  1  0.27552000  0.65883000  0.10284000  1
  F  F292  1  0.74987000  0.76249000  0.12889000  1
  F  F293  1  0.71502000  0.66837000  0.11929000  1
  F  F294  1  0.61614000  0.77659000  0.11529000  1
  F  F295  1  0.94050000  0.84446000  0.78432000  1
  F  F296  1  0.82548000  0.94207000  0.77422000  1
  F  F297  1  0.82062000  0.83678000  0.76334000  1
