# generated using pymatgen
data_Cu5H48C64(NO2)8
_symmetry_space_group_name_H-M   'P 1'
_cell_length_a   13.75788000
_cell_length_b   13.76777000
_cell_length_c   22.23699000
_cell_angle_alpha   101.77275000
_cell_angle_beta   101.69847000
_cell_angle_gamma   109.96990000
_symmetry_Int_Tables_number   1
_chemical_formula_structural   Cu5H48C64(NO2)8
_chemical_formula_sum   'Cu10 H96 C128 N16 O32'
_cell_volume   3701.70215383
_cell_formula_units_Z   2
loop_
 _symmetry_equiv_pos_site_id
 _symmetry_equiv_pos_as_xyz
  1  'x, y, z'
loop_
 _atom_site_type_symbol
 _atom_site_label
 _atom_site_symmetry_multiplicity
 _atom_site_fract_x
 _atom_site_fract_y
 _atom_site_fract_z
 _atom_site_occupancy
  Cu  Cu0  1  0.37116000  0.60872000  0.90007000  1
  Cu  Cu1  1  0.52957000  0.79258000  0.90004000  1
  Cu  Cu2  1  0.47040000  0.20756000  0.10001000  1
  Cu  Cu3  1  0.70762000  0.97045000  0.60010000  1
  Cu  Cu4  1  0.62869000  0.39125000  0.09995000  1
  Cu  Cu5  1  0.62421000  0.87206000  0.24924000  1
  Cu  Cu6  1  0.37558000  0.12794000  0.75072000  1
  Cu  Cu7  1  0.89112000  0.12872000  0.60005000  1
  Cu  Cu8  1  0.29258000  0.02970000  0.39996000  1
  Cu  Cu9  1  0.10881000  0.87132000  0.40002000  1
  H  H10  1  0.74443000  0.52223000  0.92979000  1
  H  H11  1  0.69673000  0.77635000  0.83908000  1
  H  H12  1  0.27450000  0.55493000  0.70508000  1
  H  H13  1  0.89915000  0.28348000  0.34694000  1
  H  H14  1  0.50117000  0.92606000  0.55287000  1
  H  H15  1  0.54950000  0.43479000  0.65249000  1
  H  H16  1  0.44304000  0.54248000  0.05696000  1
  H  H17  1  0.02038000  0.07376000  0.25182000  1
  H  H18  1  0.95631000  0.05632000  0.44269000  1
  H  H19  1  0.82273000  0.87971000  0.78452000  1
  H  H20  1  0.22863000  0.67792000  0.25070000  1
  H  H21  1  0.21570000  0.60007000  0.15273000  1
  H  H22  1  0.27667000  0.19693000  0.33905000  1
  H  H23  1  0.51194000  0.11172000  0.55796000  1
  H  H24  1  0.27121000  0.77427000  0.04848000  1
  H  H25  1  0.76567000  0.15910000  0.86638000  1
  H  H26  1  0.34025000  0.73397000  0.63341000  1
  H  H27  1  0.40526000  0.04684000  0.62940000  1
  H  H28  1  0.05495000  0.77483000  0.20487000  1
  H  H29  1  0.72606000  0.22875000  0.45173000  1
  H  H30  1  0.77698000  0.92043000  0.37275000  1
  H  H31  1  0.45340000  0.09538000  0.87107000  1
  H  H32  1  0.54658000  0.90462000  0.12887000  1
  H  H33  1  0.93500000  0.04953000  0.15296000  1
  H  H34  1  0.61204000  0.01181000  0.05788000  1
  H  H35  1  0.10142000  0.20766000  0.86557000  1
  H  H36  1  0.30305000  0.22355000  0.16086000  1
  H  H37  1  0.25557000  0.47781000  0.07025000  1
  H  H38  1  0.57878000  0.72202000  0.12651000  1
  H  H39  1  0.72333000  0.80317000  0.66097000  1
  H  H40  1  0.96306000  0.40721000  0.78566000  1
  H  H41  1  0.14385000  0.56450000  0.84036000  1
  H  H42  1  0.78417000  0.39989000  0.84729000  1
  H  H43  1  0.38021000  0.32282000  0.28451000  1
  H  H44  1  0.58783000  0.31174000  0.56951000  1
  H  H45  1  0.55700000  0.45763000  0.94314000  1
  H  H46  1  0.22277000  0.07958000  0.62707000  1
  H  H47  1  0.65973000  0.26603000  0.36657000  1
  H  H48  1  0.42116000  0.27808000  0.87362000  1
  H  H49  1  0.41411000  0.88187000  0.25071000  1
  H  H50  1  0.16318000  0.13160000  0.74782000  1
  H  H51  1  0.14882000  0.92830000  0.20500000  1
  H  H52  1  0.37435000  0.44774000  0.94679000  1
  H  H53  1  0.61979000  0.67725000  0.71548000  1
  H  H54  1  0.27533000  0.27627000  0.54987000  1
  H  H55  1  0.94771000  0.87430000  0.44668000  1
  H  H56  1  0.63154000  0.66291000  0.24799000  1
  H  H57  1  0.09235000  0.53683000  0.71436000  1
  H  H58  1  0.42604000  0.47935000  0.24829000  1
  H  H59  1  0.77117000  0.32211000  0.74944000  1
  H  H60  1  0.49885000  0.07402000  0.44715000  1
  H  H61  1  0.42621000  0.00092000  0.05292000  1
  H  H62  1  0.77642000  0.77502000  0.04964000  1
  H  H63  1  0.06501000  0.95050000  0.84706000  1
  H  H64  1  0.42769000  0.64892000  0.70491000  1
  H  H65  1  0.72860000  0.22561000  0.95149000  1
  H  H66  1  0.94500000  0.22530000  0.79508000  1
  H  H67  1  0.70759000  0.60129000  0.36542000  1
  H  H68  1  0.81239000  0.08785000  0.06983000  1
  H  H69  1  0.36840000  0.33708000  0.75202000  1
  H  H70  1  0.04344000  0.94363000  0.55720000  1
  H  H71  1  0.57365000  0.99895000  0.94711000  1
  H  H72  1  0.17721000  0.12026000  0.21552000  1
  H  H73  1  0.83675000  0.86839000  0.25217000  1
  H  H74  1  0.93512000  0.35611000  0.65958000  1
  H  H75  1  0.59468000  0.95315000  0.37065000  1
  H  H76  1  0.57228000  0.35109000  0.29507000  1
  H  H77  1  0.38798000  0.98826000  0.94210000  1
  H  H78  1  0.23415000  0.84080000  0.13363000  1
  H  H79  1  0.22361000  0.22481000  0.95027000  1
  H  H80  1  0.18765000  0.91222000  0.93019000  1
  H  H81  1  0.48800000  0.88824000  0.44207000  1
  H  H82  1  0.62555000  0.55227000  0.05321000  1
  H  H83  1  0.03689000  0.59288000  0.21434000  1
  H  H84  1  0.85114000  0.07170000  0.79505000  1
  H  H85  1  0.61756000  0.08533000  0.24871000  1
  H  H86  1  0.29232000  0.39861000  0.63455000  1
  H  H87  1  0.57386000  0.52063000  0.75171000  1
  H  H88  1  0.10084000  0.71658000  0.65296000  1
  H  H89  1  0.85618000  0.43558000  0.15962000  1
  H  H90  1  0.82185000  0.27100000  0.24924000  1
  H  H91  1  0.38245000  0.91477000  0.75109000  1
  H  H92  1  0.72461000  0.72368000  0.45012000  1
  H  H93  1  0.97957000  0.92629000  0.74820000  1
  H  H94  1  0.27396000  0.77130000  0.54829000  1
  H  H95  1  0.97876000  0.75621000  0.57034000  1
  H  H96  1  0.90762000  0.46319000  0.28561000  1
  H  H97  1  0.45042000  0.56517000  0.34750000  1
  H  H98  1  0.58569000  0.11812000  0.74939000  1
  H  H99  1  0.72545000  0.44498000  0.29492000  1
  H  H100  1  0.89847000  0.79232000  0.13435000  1
  H  H101  1  0.06482000  0.64390000  0.34041000  1
  H  H102  1  0.02111000  0.24378000  0.42958000  1
  H  H103  1  0.05217000  0.12563000  0.55328000  1
  H  H104  1  0.17833000  0.72898000  0.75067000  1
  H  H105  1  0.41209000  0.68821000  0.43048000  1
  C  C106  1  0.20509000  0.37746000  0.88973000  1
  C  C107  1  0.51309000  0.18584000  0.38979000  1
  C  C108  1  0.87051000  0.51581000  0.15452000  1
  C  C109  1  0.19793000  0.97283000  0.17914000  1
  C  C110  1  0.63241000  0.93857000  0.13318000  1
  C  C111  1  0.87611000  0.79912000  0.43348000  1
  C  C112  1  0.24660000  0.92508000  0.14026000  1
  C  C113  1  0.56133000  0.62463000  0.26354000  1
  C  C114  1  0.36757000  0.06142000  0.86678000  1
  C  C115  1  0.98002000  0.70471000  0.17875000  1
  C  C116  1  0.46028000  0.30611000  0.68647000  1
  C  C117  1  0.19772000  0.10806000  0.49032000  1
  C  C118  1  0.70080000  0.62379000  0.06642000  1
  C  C119  1  0.19409000  0.04005000  0.81345000  1
  C  C120  1  0.50113000  0.48150000  0.76462000  1
  C  C121  1  0.37785000  0.72420000  0.18505000  1
  C  C122  1  0.79551000  0.51993000  0.32109000  1
  C  C123  1  0.31431000  0.98719000  0.11032000  1
  C  C124  1  0.70298000  0.13993000  0.26442000  1
  C  C125  1  0.64036000  0.20348000  0.76494000  1
  C  C126  1  0.15142000  0.97925000  0.85275000  1
  C  C127  1  0.21957000  0.95889000  0.89936000  1
  C  C128  1  0.36216000  0.21648000  0.34447000  1
  C  C129  1  0.36410000  0.94242000  0.06603000  1
  C  C130  1  0.01864000  0.99896000  0.73529000  1
  C  C131  1  0.38078000  0.79358000  0.98924000  1
  C  C132  1  0.33446000  0.83607000  0.03831000  1
  C  C133  1  0.80687000  0.00168000  0.36808000  1
  C  C134  1  0.48692000  0.81423000  0.61022000  1
  C  C135  1  0.35946000  0.79650000  0.23513000  1
  C  C136  1  0.28161000  0.76321000  0.26362000  1
  C  C137  1  0.60791000  0.69749000  0.99030000  1
  C  C138  1  0.43913000  0.13254000  0.63348000  1
  C  C139  1  0.10257000  0.46981000  0.68479000  1
  C  C140  1  0.33034000  0.00076000  0.90647000  1
  C  C141  1  0.49950000  0.16948000  0.59359000  1
  C  C142  1  0.05686000  0.81861000  0.60048000  1
  C  C143  1  0.90781000  0.07822000  0.40717000  1
  C  C144  1  0.71834000  0.23675000  0.73652000  1
  C  C145  1  0.77508000  0.12130000  0.31444000  1
  C  C146  1  0.78551000  0.91925000  0.81441000  1
  C  C147  1  0.70372000  0.37657000  0.85344000  1
  C  C148  1  0.49752000  0.69214000  0.13125000  1
  C  C149  1  0.80200000  0.02715000  0.82090000  1
  C  C150  1  0.56083000  0.86744000  0.36655000  1
  C  C151  1  0.19291000  0.99836000  0.63181000  1
  C  C152  1  0.96986000  0.60300000  0.18476000  1
  C  C153  1  0.57540000  0.25358000  0.35992000  1
  C  C154  1  0.52767000  0.30209000  0.32095000  1
  C  C155  1  0.52188000  0.44483000  0.18689000  1
  C  C156  1  0.29704000  0.29688000  0.96077000  1
  C  C157  1  0.53965000  0.69386000  0.31352000  1
  C  C158  1  0.21440000  0.08073000  0.18560000  1
  C  C159  1  0.66531000  0.16384000  0.96165000  1
  C  C160  1  0.12245000  0.29485000  0.61033000  1
  C  C161  1  0.47901000  0.65146000  0.35298000  1
  C  C162  1  0.45866000  0.71983000  0.39952000  1
  C  C163  1  0.25724000  0.83572000  0.31201000  1
  C  C164  1  0.68556000  0.01270000  0.88971000  1
  C  C165  1  0.29616000  0.62344000  0.14660000  1
  C  C166  1  0.49883000  0.51844000  0.23541000  1
  C  C167  1  0.12950000  0.48426000  0.84546000  1
  C  C168  1  0.74298000  0.16420000  0.68828000  1
  C  C169  1  0.21417000  0.39260000  0.64050000  1
  C  C170  1  0.52093000  0.34851000  0.64702000  1
  C  C171  1  0.39200000  0.30257000  0.00971000  1
  C  C172  1  0.66419000  0.24282000  0.18801000  1
  C  C173  1  0.87577000  0.20305000  0.35302000  1
  C  C174  1  0.68210000  0.44400000  0.89979000  1
  C  C175  1  0.20442000  0.48000000  0.67889000  1
  C  C176  1  0.79485000  0.62252000  0.11023000  1
  C  C177  1  0.22482000  0.87879000  0.68547000  1
  C  C178  1  0.73651000  0.21801000  0.23619000  1
  C  C179  1  0.09196000  0.92180000  0.59273000  1
  C  C180  1  0.29912000  0.37618000  0.93357000  1
  C  C181  1  0.78574000  0.60733000  0.35946000  1
  C  C182  1  0.62198000  0.27583000  0.81500000  1
  C  C183  1  0.63786000  0.78362000  0.65556000  1
  C  C184  1  0.42105000  0.59111000  0.09239000  1
  C  C185  1  0.55765000  0.13600000  0.43407000  1
  C  C186  1  0.50240000  0.30794000  0.86885000  1
  C  C187  1  0.44237000  0.86406000  0.56593000  1
  C  C188  1  0.87744000  0.70509000  0.38963000  1
  C  C189  1  0.94477000  0.02161000  0.68675000  1
  C  C190  1  0.66967000  0.99927000  0.09351000  1
  C  C191  1  0.58031000  0.71449000  0.68563000  1
  C  C192  1  0.84858000  0.02076000  0.14725000  1
  C  C193  1  0.66401000  0.16559000  0.46183000  1
  C  C194  1  0.12378000  0.20081000  0.56648000  1
  C  C195  1  0.42460000  0.74647000  0.64007000  1
  C  C196  1  0.26366000  0.78201000  0.76367000  1
  C  C197  1  0.03011000  0.39711000  0.81525000  1
  C  C198  1  0.29703000  0.86015000  0.73545000  1
  C  C199  1  0.41967000  0.28557000  0.31437000  1
  C  C200  1  0.47808000  0.55506000  0.81318000  1
  C  C201  1  0.20321000  0.20287000  0.53931000  1
  C  C202  1  0.87511000  0.93847000  0.23660000  1
  C  C203  1  0.31786000  0.55605000  0.10026000  1
  C  C204  1  0.78046000  0.04116000  0.10065000  1
  C  C205  1  0.01544000  0.37043000  0.65454000  1
  C  C206  1  0.61873000  0.20627000  0.01059000  1
  C  C207  1  0.12412000  0.79703000  0.64691000  1
  C  C208  1  0.12484000  0.06155000  0.76341000  1
  C  C209  1  0.80588000  0.95996000  0.18654000  1
  C  C210  1  0.01993000  0.29538000  0.82122000  1
  C  C211  1  0.33598000  0.83444000  0.53818000  1
  C  C212  1  0.29357000  0.88096000  0.48930000  1
  C  C213  1  0.79670000  0.79709000  0.46067000  1
  C  C214  1  0.98448000  0.62954000  0.34544000  1
  C  C215  1  0.89736000  0.53016000  0.31519000  1
  C  C216  1  0.94298000  0.18142000  0.39945000  1
  C  C217  1  0.63576000  0.05745000  0.93400000  1
  C  C218  1  0.10735000  0.28572000  0.85961000  1
  C  C219  1  0.50044000  0.83049000  0.40643000  1
  C  C220  1  0.98133000  0.00105000  0.26472000  1
  C  C221  1  0.70636000  0.11915000  0.51078000  1
  C  C222  1  0.75323000  0.07482000  0.85975000  1
  C  C223  1  0.43859000  0.37533000  0.73645000  1
  C  C224  1  0.05521000  0.97839000  0.31324000  1
  C  C225  1  0.54128000  0.28013000  0.60048000  1
  C  C226  1  0.57892000  0.40898000  0.90769000  1
  C  C227  1  0.89257000  0.71429000  0.14035000  1
  C  C228  1  0.71631000  0.86178000  0.84448000  1
  C  C229  1  0.33601000  0.75736000  0.81194000  1
  C  C230  1  0.70290000  0.70306000  0.03918000  1
  C  C231  1  0.28356000  0.13812000  0.15548000  1
  C  C232  1  0.47229000  0.69793000  0.67903000  1
  C  C233  1  0.80222000  0.89195000  0.50967000  1
  N  N234  1  0.52142000  0.24147000  0.82320000  1
  N  N235  1  0.02518000  0.28412000  0.61959000  1
  N  N236  1  0.59367000  0.83477000  0.62021000  1
  N  N237  1  0.97474000  0.71584000  0.38039000  1
  N  N238  1  0.41871000  0.19763000  0.67920000  1
  N  N239  1  0.30273000  0.08194000  0.82105000  1
  N  N240  1  0.74053000  0.02073000  0.32247000  1
  N  N241  1  0.33478000  0.09385000  0.12016000  1
  N  N242  1  0.58123000  0.80235000  0.32081000  1
  N  N243  1  0.78418000  0.52535000  0.11950000  1
  N  N244  1  0.25928000  0.97936000  0.67743000  1
  N  N245  1  0.66513000  0.90605000  0.87984000  1
  N  N246  1  0.47843000  0.75859000  0.17688000  1
  N  N247  1  0.21581000  0.47464000  0.88045000  1
  N  N248  1  0.69723000  0.91805000  0.17891000  1
  N  N249  1  0.40635000  0.16534000  0.37982000  1
  O  O250  1  0.43330000  0.82817000  0.83874000  1
  O  O251  1  0.01175000  0.90554000  0.33874000  1
  O  O252  1  0.63288000  0.77713000  0.96635000  1
  O  O253  1  0.40565000  0.51132000  0.83892000  1
  O  O254  1  0.80979000  0.16874000  0.53588000  1
  O  O255  1  0.87932000  0.98328000  0.52430000  1
  O  O256  1  0.27747000  0.13312000  0.46639000  1
  O  O257  1  0.59437000  0.48852000  0.16118000  1
  O  O258  1  0.45866000  0.85638000  0.97567000  1
  O  O259  1  0.98825000  0.09436000  0.66120000  1
  O  O260  1  0.15567000  0.03247000  0.32442000  1
  O  O261  1  0.16640000  0.79471000  0.32184000  1
  O  O262  1  0.70515000  0.33390000  0.17854000  1
  O  O263  1  0.29499000  0.66645000  0.82162000  1
  O  O264  1  0.56693000  0.17198000  0.16112000  1
  O  O265  1  0.32799000  0.93306000  0.33865000  1
  O  O266  1  0.66804000  0.30971000  0.03546000  1
  O  O267  1  0.72254000  0.86690000  0.53364000  1
  O  O268  1  0.54118000  0.14332000  0.02432000  1
  O  O269  1  0.48330000  0.37971000  0.02426000  1
  O  O270  1  0.12059000  0.01673000  0.47568000  1
  O  O271  1  0.53147000  0.65556000  0.82422000  1
  O  O272  1  0.64332000  0.04139000  0.52428000  1
  O  O273  1  0.33085000  0.69023000  0.96411000  1
  O  O274  1  0.51654000  0.62043000  0.97576000  1
  O  O275  1  0.19008000  0.83166000  0.46441000  1
  O  O276  1  0.36705000  0.22296000  0.03369000  1
  O  O277  1  0.83417000  0.20485000  0.67879000  1
  O  O278  1  0.46839000  0.34433000  0.17582000  1
  O  O279  1  0.67190000  0.06710000  0.66123000  1
  O  O280  1  0.35664000  0.95852000  0.47568000  1
  O  O281  1  0.84431000  0.96759000  0.67561000  1
