# generated using pymatgen
data_CuH3C9O4
_symmetry_space_group_name_H-M   'P 1'
_cell_length_a   15.45066010
_cell_length_b   15.45338631
_cell_length_c   15.45734592
_cell_angle_alpha   74.73692769
_cell_angle_beta   74.74572959
_cell_angle_gamma   74.75708417
_symmetry_Int_Tables_number   1
_chemical_formula_structural   CuH3C9O4
_chemical_formula_sum   'Cu6 H18 C54 O24'
_cell_volume   3359.87642309
_cell_formula_units_Z   6
loop_
 _symmetry_equiv_pos_site_id
 _symmetry_equiv_pos_as_xyz
  1  'x, y, z'
loop_
 _atom_site_type_symbol
 _atom_site_label
 _atom_site_symmetry_multiplicity
 _atom_site_fract_x
 _atom_site_fract_y
 _atom_site_fract_z
 _atom_site_occupancy
  Cu  Cu1  1  0.99105363  0.99106361  0.42572023  1.0
  Cu  Cu2  1  0.42613189  0.99112222  0.99112336  1.0
  Cu  Cu3  1  0.99113393  0.42625597  0.99114442  1.0
  Cu  Cu4  1  0.00892691  0.00891622  0.57409684  1.0
  Cu  Cu5  1  0.00886832  0.57373462  0.00885611  1.0
  Cu  Cu6  1  0.57357172  0.00884330  0.00884202  1.0
  H  H1  1  0.99002529  0.29740184  0.52770848  1.0
  H  H2  1  0.52774012  0.99002875  0.29738416  1.0
  H  H3  1  0.29738893  0.52770937  0.99002684  1.0
  H  H4  1  0.70260600  0.00997793  0.47230843  1.0
  H  H5  1  0.00997458  0.47229748  0.70261105  1.0
  H  H6  1  0.47227903  0.70261165  0.00997434  1.0
  H  H7  1  0.00997787  0.70260623  0.47231065  1.0
  H  H8  1  0.47228158  0.00997442  0.70261200  1.0
  H  H9  1  0.70261047  0.47229286  0.00997446  1.0
  H  H10  1  0.29740062  0.99002500  0.52770951  1.0
  H  H11  1  0.99002665  0.52770480  0.29738863  1.0
  H  H12  1  0.52774392  0.29738553  0.99002915  1.0
  H  H13  1  0.97443336  0.26454149  0.26454082  1.0
  H  H14  1  0.26452921  0.97443302  0.26454007  1.0
  H  H15  1  0.26451544  0.26452671  0.97443456  1.0
  H  H16  1  0.73548938  0.02556983  0.73549210  1.0
  H  H17  1  0.02556857  0.73545910  0.73548226  1.0
  H  H18  1  0.73550297  0.73548214  0.02556723  1.0
  C  C1  1  0.98173939  0.27127853  0.40025260  1.0
  C  C2  1  0.98707008  0.32675592  0.45613490  1.0
  C  C3  1  0.98395279  0.17125418  0.43830010  1.0
  C  C4  1  0.40016842  0.98178249  0.27141930  1.0
  C  C5  1  0.45613979  0.98707894  0.32681609  1.0
  C  C6  1  0.43823238  0.98396362  0.17151894  1.0
  C  C7  1  0.27131978  0.40021802  0.98176188  1.0
  C  C8  1  0.32678739  0.45612693  0.98707615  1.0
  C  C9  1  0.17142971  0.43823439  0.98396551  1.0
  C  C10  1  0.72874058  0.01827076  0.59975438  1.0
  C  C11  1  0.67325522  0.01293548  0.54388008  1.0
  C  C12  1  0.82876044  0.01605192  0.56168799  1.0
  C  C13  1  0.01823305  0.59980455  0.72864653  1.0
  C  C14  1  0.01292504  0.54389106  0.67320812  1.0
  C  C15  1  0.01603345  0.56176929  0.82855288  1.0
  C  C16  1  0.59982323  0.72861649  0.01823301  1.0
  C  C17  1  0.54387877  0.67319948  0.01292366  1.0
  C  C18  1  0.56181982  0.82849754  0.01605327  1.0
  C  C19  1  0.01826843  0.72872330  0.59976836  1.0
  C  C20  1  0.01293517  0.67325436  0.54388613  1.0
  C  C21  1  0.01604919  0.82874375  0.56168928  1.0
  C  C22  1  0.59983793  0.01822721  0.72859158  1.0
  C  C23  1  0.54388823  0.01292331  0.67319382  1.0
  C  C24  1  0.56183034  0.01605350  0.82849038  1.0
  C  C25  1  0.72868904  0.59977641  0.01824083  1.0
  C  C26  1  0.67321441  0.54387595  0.01292538  1.0
  C  C27  1  0.82857715  0.56175763  0.01603591  1.0
  C  C28  1  0.27126792  0.98173728  0.40025897  1.0
  C  C29  1  0.32675508  0.98706938  0.45614086  1.0
  C  C30  1  0.17124228  0.98395094  0.43829999  1.0
  C  C31  1  0.98176948  0.40018771  0.27136537  1.0
  C  C32  1  0.98707690  0.45611147  0.32679614  1.0
  C  C33  1  0.98396800  0.43822109  0.17145360  1.0
  C  C34  1  0.40019164  0.27138552  0.98177682  1.0
  C  C35  1  0.45614960  0.32680850  0.98707856  1.0
  C  C36  1  0.43824596  0.17150621  0.98396287  1.0
  C  C37  1  0.98960605  0.41993474  0.41994217  1.0
  C  C38  1  0.99652670  0.47599472  0.47600906  1.0
  C  C39  1  0.97834808  0.30787575  0.30796027  1.0
  C  C40  1  0.41994017  0.98960522  0.41995182  1.0
  C  C41  1  0.47600614  0.99652541  0.47601211  1.0
  C  C42  1  0.30786000  0.97835124  0.30797965  1.0
  C  C43  1  0.41995076  0.41995500  0.98960469  1.0
  C  C44  1  0.47600770  0.47599972  0.99652121  1.0
  C  C45  1  0.30789725  0.30793265  0.97835375  1.0
  C  C46  1  0.58007367  0.01039625  0.58006385  1.0
  C  C47  1  0.52400997  0.00347617  0.52399963  1.0
  C  C48  1  0.69216711  0.02165543  0.69204967  1.0
  C  C49  1  0.01039646  0.58007878  0.58006230  1.0
  C  C50  1  0.00347582  0.52401973  0.52399394  1.0
  C  C51  1  0.02165660  0.69212201  0.69206653  1.0
  C  C52  1  0.58005184  0.58005878  0.01039559  1.0
  C  C53  1  0.52399597  0.52401081  0.00347994  1.0
  C  C54  1  0.69213135  0.69206982  0.02165068  1.0
  O  O1  1  0.97792896  0.12459836  0.38393129  1.0
  O  O2  1  0.99368002  0.14113203  0.52122253  1.0
  O  O3  1  0.38399314  0.97784722  0.12464696  1.0
  O  O4  1  0.52119759  0.99360548  0.14113312  1.0
  O  O5  1  0.12445303  0.38407864  0.97789472  1.0
  O  O6  1  0.14101961  0.52122525  0.99361948  1.0
  O  O7  1  0.87544063  0.02205798  0.61604444  1.0
  O  O8  1  0.85883416  0.00633138  0.47876194  1.0
  O  O9  1  0.02210479  0.61592150  0.87549626  1.0
  O  O10  1  0.00637977  0.47876896  0.85896723  1.0
  O  O11  1  0.61595480  0.87543397  0.02212475  1.0
  O  O12  1  0.47877031  0.85882032  0.00641370  1.0
  O  O13  1  0.02205626  0.87541967  0.61604180  1.0
  O  O14  1  0.00632830  0.85883752  0.47875762  1.0
  O  O15  1  0.61596289  0.02212570  0.87540278  1.0
  O  O16  1  0.47877702  0.00641646  0.85879830  1.0
  O  O17  1  0.87554856  0.61591592  0.02210657  1.0
  O  O18  1  0.85898293  0.47876683  0.00637976  1.0
  O  O19  1  0.12457911  0.97792886  0.38392886  1.0
  O  O20  1  0.14113493  0.99367903  0.52121753  1.0
  O  O21  1  0.97789548  0.38407389  0.12450469  1.0
  O  O22  1  0.99362105  0.52122125  0.14103846  1.0
  O  O23  1  0.38400223  0.12461297  0.97784555  1.0
  O  O24  1  0.52120634  0.14111135  0.99360686  1.0
