# generated using pymatgen
data_H16C28N2O
_symmetry_space_group_name_H-M   'P 1'
_cell_length_a   9.58633333
_cell_length_b   45.31370932
_cell_length_c   45.31240000
_cell_angle_alpha   120.00913195
_cell_angle_beta   90.00000000
_cell_angle_gamma   90.00000000
_symmetry_Int_Tables_number   1
_chemical_formula_structural   H16C28N2O
_chemical_formula_sum   'H48 C84 N6 O3'
_cell_volume   17044.71982087
_cell_formula_units_Z   3
loop_
 _symmetry_equiv_pos_site_id
 _symmetry_equiv_pos_as_xyz
  1  'x, y, z'
loop_
 _atom_site_type_symbol
 _atom_site_label
 _atom_site_symmetry_multiplicity
 _atom_site_fract_x
 _atom_site_fract_y
 _atom_site_fract_z
 _atom_site_occupancy
  C  1  1  0.92117000  0.57190200  0.39307700  1
  C  2  1  0.92179600  0.56369800  0.18964700  1
  C  3  1  0.92118000  0.76720900  0.38496800  1
  C  4  1  0.97153600  0.57394500  0.16681100  1
  C  5  1  0.89024300  0.52017200  0.11769100  1
  C  6  1  0.84098400  0.51030100  0.14098400  1
  C  7  1  0.85646400  0.53164200  0.17639400  1
  C  8  1  0.97423900  0.53918500  0.38323800  1
  C  9  1  0.95818600  0.52517000  0.40469800  1
  C  10  1  0.88882400  0.54340600  0.43651800  1
  C  11  1  0.83622900  0.57620400  0.44598000  1
  C  12  1  0.85207200  0.59030300  0.42468000  1
  C  13  1  0.97426000  0.79010100  0.41768300  1
  C  14  1  0.95820600  0.82557900  0.43169300  1
  C  15  1  0.88880200  0.83915000  0.41345500  1
  C  16  1  0.83621500  0.81580000  0.38065700  1
  C  17  1  0.85207400  0.78039900  0.36656300  1
  C  29  1  0.94535300  0.67042600  0.34078100  1
  C  30  1  0.94521700  0.65213400  0.35850800  1
  C  31  1  0.94533200  0.61609200  0.34049400  1
  C  32  1  0.94513400  0.59836100  0.30447200  1
  C  33  1  0.94524900  0.61636900  0.28644200  1
  C  34  1  0.94512300  0.65239100  0.30473900  1
  C  39  1  0.93422000  0.73420000  0.37150800  1
  C  40  1  0.94149300  0.70378200  0.35746500  1
  C  41  1  0.93438800  0.58328800  0.22266300  1
  C  42  1  0.94145100  0.59968800  0.25308500  1
  C  43  1  0.94147200  0.59941200  0.35716700  1
  C  44  1  0.93420600  0.58536700  0.37353600  1
  C  45  1  0.86873300  0.87404300  0.42654600  1
  C  46  1  0.86880500  0.53031500  0.45831700  1
  C  47  1  0.87054600  0.49833500  0.08279200  1
  C  48  1  0.95591000  0.55243700  0.13132400  1
  C  52  1  0.93359400  0.36263700  0.58450100  1
  C  53  1  0.93465800  0.37236300  0.78886400  1
  C  54  1  0.91370200  0.35952900  0.81122200  1
  C  55  1  0.95948700  0.41617000  0.86090900  1
  C  56  1  0.97984900  0.42865900  0.83813200  1
  C  57  1  0.96750000  0.40716700  0.80266100  1
  C  58  1  0.91860600  0.39805400  0.59766300  1
  C  59  1  0.93057900  0.41195200  0.57601600  1
  C  60  1  0.95808000  0.39089400  0.54072700  1
  C  61  1  0.97251600  0.35541300  0.52790400  1
  C  62  1  0.96025000  0.34142100  0.54938500  1
  C  70  1  0.91882500  0.28291400  0.61991500  1
  C  71  1  0.91875200  0.31895300  0.63769900  1
  C  72  1  0.91891600  0.33691200  0.67372400  1
  C  73  1  0.91885500  0.31913300  0.69198100  1
  C  74  1  0.91891700  0.28310800  0.67391100  1
  C  79  1  0.92610400  0.35260000  0.75578700  1
  C  80  1  0.92136900  0.33602300  0.72534500  1
  C  81  1  0.92109700  0.33542700  0.62081300  1
  C  82  1  0.92554000  0.34930200  0.60424700  1
  C  83  1  0.97492500  0.40380300  0.51873200  1
  C  84  1  0.97613500  0.43819000  0.89583800  1
  C  85  1  0.92590800  0.38118600  0.84676700  1
  C  88  1  0.92497700  0.48483800  0.02558400  1
  C  89  1  0.02598800  0.49255500  0.00781500  1
  C  90  1  0.02863700  0.47510800  0.97193400  1
  C  91  1  0.92879500  0.44960900  0.95263200  1
  C  92  1  0.82690200  0.44186500  0.97032900  1
  C  95  1  0.82547200  0.45923800  0.00628600  1
  C  101  1  0.92445700  0.48687400  0.47211500  1
  C  102  1  0.02632200  0.46163200  0.46468200  1
  C  103  1  0.02887800  0.44323500  0.48216100  1
  C  104  1  0.92814400  0.44923800  0.50742100  1
  C  105  1  0.82543100  0.47443800  0.51489000  1
  C  108  1  0.82403300  0.49297200  0.49747200  1
  C  114  1  0.92448900  0.93129700  0.46996900  1
  C  115  1  0.02628200  0.94910700  0.49523200  1
  C  117  1  0.82419000  0.95055800  0.46384300  1
  C  358  1  0.93375100  0.16795800  0.59419500  1
  C  359  1  0.91821000  0.14567700  0.55879400  1
  C  360  1  0.93023400  0.11013000  0.54490100  1
  C  361  1  0.95820500  0.09591900  0.56595100  1
  C  362  1  0.97318400  0.11860500  0.60141600  1
  C  363  1  0.96095900  0.15407900  0.61539900  1
  C  368  1  0.91876000  0.26484500  0.63786700  1
  C  369  1  0.92563400  0.20104000  0.60751900  1
  C  370  1  0.92114000  0.23148100  0.62138900  1
  C  371  1  0.97494900  0.06101200  0.55305300  1
  C  406  1  0.92821300  0.00424900  0.50761100  1
  C  418  1  0.02885600  0.98499100  0.51363600  1
  C  419  1  0.82561200  0.98651500  0.48237500  1
  H  18  1  0.79266600  0.48725000  0.13237900  1
  H  19  1  0.81900300  0.52345700  0.19228100  1
  H  20  1  0.99230400  0.56077600  0.11552700  1
  H  21  1  0.81217000  0.61410600  0.43256800  1
  H  22  1  0.02461200  0.52519500  0.36038000  1
  H  23  1  0.99717800  0.50131200  0.39666900  1
  H  24  1  0.78518700  0.59036000  0.46870100  1
  H  25  1  0.02462300  0.78124200  0.43167800  1
  H  26  1  0.78514500  0.82435500  0.36650000  1
  H  27  1  0.81216100  0.76447200  0.34276000  1
  H  28  1  0.99715700  0.84141800  0.45555400  1
  H  35  1  0.94363200  0.57217500  0.29130000  1
  H  36  1  0.94371500  0.66515200  0.38469400  1
  H  37  1  0.94364200  0.66555800  0.29172300  1
  H  38  1  0.01910300  0.59713700  0.17571600  1
  H  49  1  0.80978100  0.47806000  0.07546700  1
  H  50  1  0.80645700  0.54302800  0.47832300  1
  H  51  1  0.80637300  0.88132700  0.41383200  1
  H  63  1  0.00446000  0.45374900  0.84717400  1
  H  64  1  0.98372000  0.41726200  0.78711600  1
  H  65  1  0.91167000  0.37096600  0.86221900  1
  H  66  1  0.97221500  0.31561800  0.53905200  1
  H  67  1  0.89997500  0.41410800  0.62309900  1
  H  68  1  0.92098300  0.43777600  0.58645900  1
  H  69  1  0.99273200  0.33922000  0.50258400  1
  H  75  1  0.91985600  0.36309800  0.68673100  1
  H  76  1  0.91969800  0.26972800  0.59372300  1
  H  77  1  0.91988900  0.27010600  0.68709100  1
  H  78  1  0.89042900  0.33431600  0.80192000  1
  H  86  1  0.02526900  0.46018700  0.90351000  1
  H  87  1  0.02339000  0.38939000  0.49665000  1
  H  93  1  0.10523800  0.48104500  0.96007700  1
  H  94  1  0.09986500  0.51084200  0.02096200  1
  H  96  1  0.74976100  0.45317000  0.01822300  1
  H  98  1  0.65128700  0.42828800  0.94874100  1
  H  106  1  0.10611200  0.42563000  0.47645400  1
  H  107  1  0.10089800  0.45665100  0.44658600  1
  H  109  1  0.74773500  0.51080500  0.50334900  1
  H  111  1  0.64957600  0.46604300  0.52803300  1
  H  116  1  0.10072900  0.93599300  0.50024800  1
  H  118  1  0.74796700  0.93860200  0.44598500  1
  H  364  1  0.89917000  0.15504200  0.54274400  1
  H  365  1  0.99373300  0.10949500  0.61760400  1
  H  366  1  0.97326300  0.16957000  0.64119200  1
  H  367  1  0.92012900  0.09473000  0.51909200  1
  H  372  1  0.02340100  0.05334500  0.56746500  1
  H  407  1  0.10596900  0.99689000  0.53127300  1
  H  409  1  0.64978400  0.00806100  0.49072200  1
  N  99  1  0.92946500  0.50256700  0.05962900  1
  N  100  1  0.92620900  0.43202000  0.91858200  1
  N  112  1  0.92907600  0.50316800  0.45436800  1
  N  113  1  0.92546700  0.43279500  0.52501800  1
  N  119  1  0.92907600  0.89725200  0.45367900  1
  N  373  1  0.92555200  0.03829300  0.52405300  1
  O  97  1  0.72998400  0.41711300  0.95315800  1
  O  110  1  0.72758400  0.48181600  0.53940300  1
  O  408  1  0.72788500  0.00365200  0.47497400  1
