# generated using pymatgen
data_Cd3H30C24(NO3)4
_symmetry_space_group_name_H-M   'P 1'
_cell_length_a   9.38262000
_cell_length_b   16.28871000
_cell_length_c   26.03796000
_cell_angle_alpha   89.99643000
_cell_angle_beta   90.00894000
_cell_angle_gamma   89.96024000
_symmetry_Int_Tables_number   1
_chemical_formula_structural   Cd3H30C24(NO3)4
_chemical_formula_sum   'Cd12 H120 C96 N16 O48'
_cell_volume   3979.40062364
_cell_formula_units_Z   4
loop_
 _symmetry_equiv_pos_site_id
 _symmetry_equiv_pos_as_xyz
  1  'x, y, z'
loop_
 _atom_site_type_symbol
 _atom_site_label
 _atom_site_symmetry_multiplicity
 _atom_site_fract_x
 _atom_site_fract_y
 _atom_site_fract_z
 _atom_site_occupancy
  Cd  Cd1  1  0.97437000  0.58584000  0.11211000  1.0
  Cd  Cd2  1  0.51339000  0.02204000  0.98176000  1.0
  Cd  Cd3  1  0.52379000  0.13782000  0.24312000  1.0
  Cd  Cd4  1  0.52565000  0.08463000  0.11299000  1.0
  Cd  Cd5  1  0.98621000  0.52206000  0.98156000  1.0
  Cd  Cd6  1  0.97664000  0.63756000  0.24287000  1.0
  Cd  Cd7  1  0.02554000  0.41431000  0.61239000  1.0
  Cd  Cd8  1  0.48648000  0.97790000  0.48182000  1.0
  Cd  Cd9  1  0.47651000  0.86204000  0.74304000  1.0
  Cd  Cd10  1  0.47478000  0.91533000  0.61294000  1.0
  Cd  Cd11  1  0.01152000  0.47746000  0.48145000  1.0
  Cd  Cd12  1  0.02372000  0.36229000  0.74289000  1.0
  H  H1  1  0.60910000  0.38599000  0.11049000  1.0
  H  H2  1  0.49262000  0.47679000  0.01604000  1.0
  H  H3  1  0.48090000  0.50945000  0.08085000  1.0
  H  H4  1  0.33451000  0.38827000  0.10257000  1.0
  H  H5  1  0.25232000  0.29028000  0.03569000  1.0
  H  H6  1  0.35099000  0.34279000  0.98817000  1.0
  H  H7  1  0.47179000  0.25253000  0.08182000  1.0
  H  H8  1  0.70984000  0.28490000  0.04850000  1.0
  H  H9  1  0.63389000  0.34063000  0.99673000  1.0
  H  H10  1  0.35129000  0.77385000  0.12254000  1.0
  H  H11  1  0.48681000  0.69230000  0.21688000  1.0
  H  H12  1  0.49278000  0.65387000  0.15317000  1.0
  H  H13  1  0.62596000  0.77702000  0.12457000  1.0
  H  H14  1  0.70512000  0.88385000  0.18585000  1.0
  H  H15  1  0.62152000  0.83089000  0.23724000  1.0
  H  H16  1  0.47456000  0.90816000  0.14390000  1.0
  H  H17  1  0.24639000  0.87256000  0.18680000  1.0
  H  H18  1  0.33945000  0.82276000  0.23659000  1.0
  H  H19  1  0.46031000  0.00921000  0.34229000  1.0
  H  H20  1  0.61009000  0.06740000  0.36463000  1.0
  H  H21  1  0.60434000  0.21792000  0.35627000  1.0
  H  H22  1  0.45102000  0.26584000  0.32841000  1.0
  H  H23  1  0.25708000  0.07475000  0.30635000  1.0
  H  H24  1  0.25107000  0.18367000  0.29944000  1.0
  H  H25  1  0.21661000  0.22607000  0.43598000  1.0
  H  H26  1  0.23086000  0.26960000  0.37354000  1.0
  H  H27  1  0.22279000  0.07730000  0.44547000  1.0
  H  H28  1  0.23723000  0.01424000  0.38927000  1.0
  H  H29  1  0.58729000  0.15577000  0.43989000  1.0
  H  H30  1  0.42136000  0.15901000  0.47390000  1.0
  H  H31  1  0.89022000  0.88452000  0.11022000  1.0
  H  H32  1  0.00456000  0.97695000  0.01607000  1.0
  H  H33  1  0.01459000  0.00943000  0.08097000  1.0
  H  H34  1  0.16412000  0.88949000  0.10276000  1.0
  H  H35  1  0.24956000  0.79229000  0.03596000  1.0
  H  H36  1  0.15045000  0.84435000  0.98827000  1.0
  H  H37  1  0.03046000  0.75272000  0.08151000  1.0
  H  H38  1  0.79214000  0.78335000  0.04798000  1.0
  H  H39  1  0.86675000  0.83992000  0.99632000  1.0
  H  H40  1  0.14972000  0.27407000  0.12262000  1.0
  H  H41  1  0.01359000  0.19264000  0.21683000  1.0
  H  H42  1  0.00848000  0.15395000  0.15315000  1.0
  H  H43  1  0.87603000  0.27759000  0.12417000  1.0
  H  H44  1  0.79501000  0.38381000  0.18572000  1.0
  H  H45  1  0.87861000  0.33073000  0.23706000  1.0
  H  H46  1  0.02587000  0.40723000  0.14350000  1.0
  H  H47  1  0.25391000  0.37262000  0.18695000  1.0
  H  H48  1  0.16086000  0.32280000  0.23668000  1.0
  H  H49  1  0.03998000  0.50920000  0.34247000  1.0
  H  H50  1  0.89043000  0.56761000  0.36484000  1.0
  H  H51  1  0.89588000  0.71791000  0.35633000  1.0
  H  H52  1  0.04920000  0.76581000  0.32857000  1.0
  H  H53  1  0.24337000  0.57454000  0.30661000  1.0
  H  H54  1  0.24926000  0.68344000  0.29954000  1.0
  H  H55  1  0.28368000  0.72599000  0.43613000  1.0
  H  H56  1  0.26919000  0.76959000  0.37375000  1.0
  H  H57  1  0.27782000  0.57724000  0.44566000  1.0
  H  H58  1  0.26357000  0.51422000  0.38948000  1.0
  H  H59  1  0.91309000  0.65568000  0.44005000  1.0
  H  H60  1  0.07890000  0.65896000  0.47410000  1.0
  H  H61  1  0.53960000  0.99080000  0.84226000  1.0
  H  H62  1  0.38983000  0.93258000  0.86459000  1.0
  H  H63  1  0.39557000  0.78209000  0.85622000  1.0
  H  H64  1  0.54888000  0.73417000  0.82837000  1.0
  H  H65  1  0.74282000  0.92525000  0.80632000  1.0
  H  H66  1  0.74880000  0.81632000  0.79942000  1.0
  H  H67  1  0.78335000  0.77397000  0.93596000  1.0
  H  H68  1  0.76911000  0.73038000  0.87354000  1.0
  H  H69  1  0.77722000  0.92270000  0.94544000  1.0
  H  H70  1  0.76270000  0.98576000  0.88924000  1.0
  H  H71  1  0.41269000  0.84423000  0.93985000  1.0
  H  H72  1  0.57866000  0.84099000  0.97387000  1.0
  H  H73  1  0.39058000  0.61391000  0.61047000  1.0
  H  H74  1  0.50706000  0.52320000  0.51603000  1.0
  H  H75  1  0.51901000  0.49056000  0.58084000  1.0
  H  H76  1  0.66604000  0.61137000  0.60252000  1.0
  H  H77  1  0.74740000  0.70974000  0.53582000  1.0
  H  H78  1  0.64856000  0.65741000  0.48823000  1.0
  H  H79  1  0.52789000  0.74730000  0.58199000  1.0
  H  H80  1  0.28988000  0.71507000  0.54854000  1.0
  H  H81  1  0.36597000  0.65941000  0.49671000  1.0
  H  H82  1  0.64903000  0.22630000  0.62255000  1.0
  H  H83  1  0.51290000  0.30766000  0.71680000  1.0
  H  H84  1  0.50716000  0.34616000  0.65310000  1.0
  H  H85  1  0.37444000  0.22277000  0.62440000  1.0
  H  H86  1  0.29510000  0.11611000  0.68581000  1.0
  H  H87  1  0.37865000  0.16924000  0.73715000  1.0
  H  H88  1  0.52569000  0.09213000  0.64380000  1.0
  H  H89  1  0.75381000  0.12763000  0.68679000  1.0
  H  H90  1  0.66062000  0.17736000  0.73657000  1.0
  H  H91  1  0.95998000  0.49078000  0.84246000  1.0
  H  H92  1  0.10953000  0.43239000  0.86488000  1.0
  H  H93  1  0.10408000  0.28204000  0.85639000  1.0
  H  H94  1  0.95077000  0.23415000  0.82859000  1.0
  H  H95  1  0.75661000  0.42544000  0.80661000  1.0
  H  H96  1  0.75069000  0.31654000  0.79952000  1.0
  H  H97  1  0.71631000  0.27400000  0.93614000  1.0
  H  H98  1  0.73075000  0.23037000  0.87376000  1.0
  H  H99  1  0.72209000  0.42267000  0.94563000  1.0
  H  H100  1  0.73636000  0.48574000  0.88945000  1.0
  H  H101  1  0.08693000  0.34430000  0.94006000  1.0
  H  H102  1  0.92118000  0.34097000  0.97411000  1.0
  H  H103  1  0.10976000  0.11544000  0.61022000  1.0
  H  H104  1  0.99568000  0.02302000  0.51606000  1.0
  H  H105  1  0.98539000  0.99062000  0.58096000  1.0
  H  H106  1  0.83593000  0.11052000  0.60265000  1.0
  H  H107  1  0.75035000  0.20773000  0.53590000  1.0
  H  H108  1  0.84970000  0.15585000  0.48816000  1.0
  H  H109  1  0.96948000  0.24700000  0.58159000  1.0
  H  H110  1  0.20785000  0.21669000  0.54802000  1.0
  H  H111  1  0.13310000  0.16015000  0.49634000  1.0
  H  H112  1  0.85042000  0.72585000  0.62260000  1.0
  H  H113  1  0.98616000  0.80733000  0.71684000  1.0
  H  H114  1  0.99153000  0.84597000  0.65315000  1.0
  H  H115  1  0.12406000  0.72236000  0.62425000  1.0
  H  H116  1  0.20494000  0.61610000  0.68577000  1.0
  H  H117  1  0.12143000  0.66917000  0.73713000  1.0
  H  H118  1  0.97413000  0.59249000  0.64360000  1.0
  H  H119  1  0.74606000  0.62736000  0.68692000  1.0
  H  H120  1  0.83900000  0.67729000  0.73664000  1.0
  C  C1  1  0.74947000  0.45491000  0.06251000  1.0
  C  C2  1  0.61584000  0.40213000  0.06952000  1.0
  C  C3  1  0.48427000  0.45505000  0.05592000  1.0
  C  C4  1  0.34580000  0.40486000  0.06186000  1.0
  C  C5  1  0.34954000  0.32646000  0.02904000  1.0
  C  C6  1  0.48013000  0.27401000  0.04199000  1.0
  C  C7  1  0.61922000  0.32358000  0.03713000  1.0
  C  C8  1  0.21828000  0.45857000  0.04801000  1.0
  C  C9  1  0.49060000  0.19881000  0.00721000  1.0
  C  C10  1  0.21989000  0.70410000  0.17261000  1.0
  C  C11  1  0.34979000  0.75862000  0.16370000  1.0
  C  C12  1  0.48761000  0.71035000  0.17621000  1.0
  C  C13  1  0.62031000  0.76387000  0.16593000  1.0
  C  C14  1  0.75575000  0.71727000  0.17960000  1.0
  C  C15  1  0.61396000  0.84476000  0.19606000  1.0
  C  C16  1  0.47422000  0.89088000  0.18468000  1.0
  C  C17  1  0.34381000  0.83778000  0.19555000  1.0
  C  C18  1  0.47497000  0.96974000  0.21521000  1.0
  C  C19  1  0.49360000  0.06631000  0.36108000  1.0
  C  C20  1  0.48769000  0.21553000  0.35320000  1.0
  C  C21  1  0.28559000  0.13331000  0.32440000  1.0
  C  C22  1  0.26645000  0.21900000  0.39823000  1.0
  C  C23  1  0.26858000  0.07265000  0.40695000  1.0
  C  C24  1  0.47085000  0.15483000  0.43592000  1.0
  C  C25  1  0.74908000  0.95314000  0.06253000  1.0
  C  C26  1  0.88330000  0.90097000  0.06931000  1.0
  C  C27  1  0.01334000  0.95513000  0.05593000  1.0
  C  C28  1  0.15294000  0.90605000  0.06204000  1.0
  C  C29  1  0.15154000  0.82771000  0.02909000  1.0
  C  C30  1  0.02213000  0.77422000  0.04167000  1.0
  C  C31  1  0.88181000  0.82274000  0.03669000  1.0
  C  C32  1  0.28016000  0.96029000  0.04872000  1.0
  C  C33  1  0.01305000  0.69902000  0.00695000  1.0
  C  C34  1  0.28066000  0.20415000  0.17267000  1.0
  C  C35  1  0.15092000  0.25872000  0.16376000  1.0
  C  C36  1  0.01317000  0.21051000  0.17611000  1.0
  C  C37  1  0.88050000  0.26406000  0.16550000  1.0
  C  C38  1  0.74555000  0.21668000  0.17834000  1.0
  C  C39  1  0.88621000  0.34462000  0.19587000  1.0
  C  C40  1  0.02588000  0.39067000  0.18439000  1.0
  C  C41  1  0.15655000  0.33783000  0.19564000  1.0
  C  C42  1  0.02372000  0.46989000  0.21447000  1.0
  C  C43  1  0.00688000  0.56637000  0.36122000  1.0
  C  C44  1  0.01254000  0.71549000  0.35332000  1.0
  C  C45  1  0.21471000  0.63320000  0.32455000  1.0
  C  C46  1  0.23373000  0.71895000  0.39840000  1.0
  C  C47  1  0.23197000  0.57263000  0.40714000  1.0
  C  C48  1  0.02951000  0.65476000  0.43608000  1.0
  C  C49  1  0.50632000  0.93369000  0.86103000  1.0
  C  C50  1  0.51222000  0.78447000  0.85316000  1.0
  C  C51  1  0.71432000  0.86669000  0.82437000  1.0
  C  C52  1  0.73350000  0.78099000  0.89821000  1.0
  C  C53  1  0.73138000  0.92734000  0.90692000  1.0
  C  C54  1  0.52912000  0.84516000  0.93588000  1.0
  C  C55  1  0.25034000  0.54436000  0.56287000  1.0
  C  C56  1  0.38370000  0.59770000  0.56951000  1.0
  C  C57  1  0.51538000  0.54494000  0.55590000  1.0
  C  C58  1  0.65391000  0.59505000  0.56179000  1.0
  C  C59  1  0.65014000  0.67359000  0.52912000  1.0
  C  C60  1  0.51953000  0.72592000  0.54213000  1.0
  C  C61  1  0.38036000  0.67631000  0.53714000  1.0
  C  C62  1  0.78090000  0.54131000  0.54755000  1.0
  C  C63  1  0.50922000  0.80119000  0.50738000  1.0
  C  C64  1  0.77978000  0.29610000  0.67264000  1.0
  C  C65  1  0.65023000  0.24149000  0.66371000  1.0
  C  C66  1  0.51227000  0.28966000  0.67612000  1.0
  C  C67  1  0.37973000  0.23603000  0.66577000  1.0
  C  C68  1  0.24424000  0.28252000  0.67943000  1.0
  C  C69  1  0.38627000  0.15522000  0.69599000  1.0
  C  C70  1  0.52614000  0.10921000  0.68460000  1.0
  C  C71  1  0.65637000  0.16238000  0.69553000  1.0
  C  C72  1  0.52606000  0.03030000  0.71508000  1.0
  C  C73  1  0.99307000  0.43361000  0.86122000  1.0
  C  C74  1  0.98743000  0.28447000  0.85334000  1.0
  C  C75  1  0.78527000  0.36677000  0.82454000  1.0
  C  C76  1  0.76623000  0.28101000  0.89841000  1.0
  C  C77  1  0.76793000  0.42731000  0.90711000  1.0
  C  C78  1  0.97050000  0.34515000  0.93609000  1.0
  C  C79  1  0.25089000  0.04692000  0.56245000  1.0
  C  C80  1  0.11664000  0.09912000  0.56929000  1.0
  C  C81  1  0.98673000  0.04491000  0.55589000  1.0
  C  C82  1  0.84720000  0.09405000  0.56192000  1.0
  C  C83  1  0.84851000  0.17249000  0.52898000  1.0
  C  C84  1  0.97781000  0.22606000  0.54162000  1.0
  C  C85  1  0.11808000  0.17742000  0.53668000  1.0
  C  C86  1  0.72003000  0.03974000  0.54863000  1.0
  C  C87  1  0.98700000  0.30211000  0.50732000  1.0
  C  C88  1  0.71951000  0.79574000  0.67267000  1.0
  C  C89  1  0.84917000  0.74117000  0.66373000  1.0
  C  C90  1  0.98681000  0.78943000  0.67613000  1.0
  C  C91  1  0.11951000  0.73589000  0.66557000  1.0
  C  C92  1  0.25438000  0.78346000  0.67835000  1.0
  C  C93  1  0.11381000  0.65530000  0.69594000  1.0
  C  C94  1  0.97410000  0.60924000  0.68447000  1.0
  C  C95  1  0.84346000  0.66211000  0.69564000  1.0
  C  C96  1  0.97623000  0.53009000  0.71458000  1.0
  N  N1  1  0.44674000  0.13616000  0.32791000  1.0
  N  N2  1  0.42312000  0.22293000  0.40381000  1.0
  N  N3  1  0.22100000  0.14063000  0.37495000  1.0
  N  N4  1  0.42895000  0.07234000  0.41324000  1.0
  N  N5  1  0.05362000  0.63613000  0.32801000  1.0
  N  N6  1  0.07704000  0.72289000  0.40397000  1.0
  N  N7  1  0.27931000  0.64059000  0.37511000  1.0
  N  N8  1  0.07161000  0.57232000  0.41339000  1.0
  N  N9  1  0.55317000  0.86384000  0.82787000  1.0
  N  N10  1  0.57682000  0.77706000  0.90377000  1.0
  N  N11  1  0.77893000  0.85937000  0.87492000  1.0
  N  N12  1  0.57101000  0.92765000  0.91320000  1.0
  N  N13  1  0.94637000  0.36384000  0.82801000  1.0
  N  N14  1  0.92293000  0.27708000  0.90398000  1.0
  N  N15  1  0.72064000  0.35937000  0.87509000  1.0
  N  N16  1  0.92828000  0.42762000  0.91338000  1.0
  O  O1  1  0.77573000  0.50784000  0.09667000  1.0
  O  O2  1  0.54399000  0.13250000  0.02922000  1.0
  O  O3  1  0.14292000  0.48766000  0.08388000  1.0
  O  O4  1  0.17350000  0.66220000  0.13518000  1.0
  O  O5  1  0.55148000  0.02891000  0.19475000  1.0
  O  O6  1  0.83707000  0.69550000  0.14336000  1.0
  O  O7  1  0.82171000  0.44266000  0.02125000  1.0
  O  O8  1  0.19751000  0.47044000  0.99958000  1.0
  O  O9  1  0.17038000  0.70424000  0.21865000  1.0
  O  O10  1  0.77793000  0.70464000  0.22789000  1.0
  O  O11  1  0.41417000  0.97855000  0.25758000  1.0
  O  O12  1  0.45713000  0.19951000  0.96104000  1.0
  O  O13  1  0.72158000  0.00456000  0.09742000  1.0
  O  O14  1  0.95642000  0.63320000  0.02862000  1.0
  O  O15  1  0.35593000  0.98745000  0.08512000  1.0
  O  O16  1  0.32711000  0.16223000  0.13526000  1.0
  O  O17  1  0.95047000  0.52943000  0.19287000  1.0
  O  O18  1  0.66943000  0.19187000  0.14142000  1.0
  O  O19  1  0.67801000  0.94208000  0.02089000  1.0
  O  O20  1  0.30031000  0.97393000  0.00036000  1.0
  O  O21  1  0.33025000  0.20442000  0.21869000  1.0
  O  O22  1  0.71999000  0.20632000  0.22661000  1.0
  O  O23  1  0.07953000  0.47843000  0.25769000  1.0
  O  O24  1  0.04983000  0.69924000  0.96107000  1.0
  O  O25  1  0.22339000  0.49334000  0.59817000  1.0
  O  O26  1  0.45600000  0.86752000  0.52940000  1.0
  O  O27  1  0.85730000  0.51243000  0.58323000  1.0
  O  O28  1  0.82525000  0.33823000  0.63519000  1.0
  O  O29  1  0.45039000  0.97087000  0.69449000  1.0
  O  O30  1  0.16284000  0.30444000  0.64325000  1.0
  O  O31  1  0.17925000  0.55426000  0.52111000  1.0
  O  O32  1  0.80032000  0.52935000  0.49902000  1.0
  O  O33  1  0.82977000  0.29578000  0.71863000  1.0
  O  O34  1  0.22211000  0.29505000  0.72772000  1.0
  O  O35  1  0.58623000  0.02173000  0.75761000  1.0
  O  O36  1  0.54275000  0.80055000  0.46122000  1.0
  O  O37  1  0.27850000  0.99544000  0.59724000  1.0
  O  O38  1  0.04496000  0.36710000  0.52935000  1.0
  O  O39  1  0.64452000  0.01249000  0.58508000  1.0
  O  O40  1  0.67311000  0.83772000  0.63531000  1.0
  O  O41  1  0.04934000  0.47052000  0.69300000  1.0
  O  O42  1  0.33049000  0.80812000  0.64141000  1.0
  O  O43  1  0.32186000  0.05801000  0.52079000  1.0
  O  O44  1  0.69965000  0.02604000  0.50030000  1.0
  O  O45  1  0.66999000  0.79540000  0.71872000  1.0
  O  O46  1  0.27974000  0.79437000  0.72660000  1.0
  O  O47  1  0.92042000  0.52156000  0.75783000  1.0
  O  O48  1  0.94948000  0.30393000  0.46157000  1.0
