# generated using pymatgen
data_H2C5NO2
_symmetry_space_group_name_H-M   'P 1'
_cell_length_a   9.92793333
_cell_length_b   34.09510000
_cell_length_c   34.25320000
_cell_angle_alpha   89.73050000
_cell_angle_beta   90.00000000
_cell_angle_gamma   90.00000000
_symmetry_Int_Tables_number   1
_chemical_formula_structural   H2C5NO2
_chemical_formula_sum   'H72 C180 N36 O72'
_cell_volume   11594.37030268
_cell_formula_units_Z   36
loop_
 _symmetry_equiv_pos_site_id
 _symmetry_equiv_pos_as_xyz
  1  'x, y, z'
loop_
 _atom_site_type_symbol
 _atom_site_label
 _atom_site_symmetry_multiplicity
 _atom_site_fract_x
 _atom_site_fract_y
 _atom_site_fract_z
 _atom_site_occupancy
  C  1  1  0.01256000  0.62762200  0.07884600  1
  C  2  1  0.00862000  0.61699900  0.11876200  1
  C  3  1  0.00430600  0.57740000  0.13101800  1
  C  4  1  0.00799600  0.54790600  0.10213700  1
  C  5  1  0.01127400  0.55718300  0.06174200  1
  C  6  1  0.00975500  0.59735700  0.05070300  1
  C  10  1  0.01691600  0.37095200  0.92432700  1
  C  11  1  0.01286100  0.38260500  0.88464200  1
  C  12  1  0.00697900  0.42248200  0.87322700  1
  C  13  1  0.00540800  0.45110800  0.90299600  1
  C  14  1  0.00295900  0.44090700  0.94314000  1
  C  15  1  0.00961800  0.40054000  0.95315800  1
  C  19  1  0.01277100  0.92052300  0.63104000  1
  C  20  1  0.00549800  0.88051100  0.62051300  1
  C  21  1  0.00204900  0.86844400  0.58112200  1
  C  22  1  0.00868000  0.89757200  0.55168000  1
  C  23  1  0.01420500  0.93804700  0.56076600  1
  C  24  1  0.01274000  0.94893500  0.60071400  1
  C  28  1  0.02088800  0.07595900  0.37362600  1
  C  29  1  0.01755400  0.11574800  0.38524300  1
  C  30  1  0.01264500  0.12684900  0.42494200  1
  C  31  1  0.01136600  0.09674500  0.45346000  1
  C  32  1  0.00755200  0.05654200  0.44336900  1
  C  33  1  0.01360500  0.04677200  0.40318800  1
  C  37  1  0.03174300  0.85720200  0.06458000  1
  C  38  1  0.03030800  0.87047900  0.02549300  1
  C  39  1  0.01858700  0.84430700  0.99386800  1
  C  40  1  0.00500500  0.80382900  0.00190500  1
  C  41  1  0.00493300  0.78940600  0.04082500  1
  C  42  1  0.01823000  0.81658400  0.07187800  1
  C  46  1  0.03895400  0.14098600  0.93932100  1
  C  47  1  0.04050100  0.12784900  0.97845900  1
  C  48  1  0.03181800  0.15413800  0.01006400  1
  C  49  1  0.01873700  0.19462500  0.00194300  1
  C  50  1  0.01534400  0.20895600  0.96298000  1
  C  51  1  0.02530400  0.18159400  0.93197500  1
  C  55  1  0.02864500  0.93686100  0.85959900  1
  C  56  1  0.03054200  0.97612900  0.87235700  1
  C  57  1  0.02382600  0.00792200  0.84592400  1
  C  58  1  0.01128500  0.99987900  0.80565600  1
  C  59  1  0.00677900  0.96075100  0.79167700  1
  C  60  1  0.01546100  0.92955200  0.81922800  1
  C  64  1  0.04119500  0.06149600  0.14440700  1
  C  65  1  0.04070600  0.02224300  0.13156800  1
  C  66  1  0.03189200  0.99042000  0.15791200  1
  C  67  1  0.01983100  0.99845700  0.19819200  1
  C  68  1  0.01739400  0.03755700  0.21230600  1
  C  69  1  0.02823200  0.06876400  0.18481400  1
  C  73  1  0.99478200  0.35800500  0.43797200  1
  C  74  1  0.99077400  0.36967900  0.47740600  1
  C  75  1  0.99767900  0.34217300  0.50823000  1
  C  76  1  0.01211600  0.30205000  0.49903700  1
  C  77  1  0.01942400  0.28929700  0.45969300  1
  C  78  1  0.01062400  0.31781200  0.42947200  1
  C  82  1  0.97500300  0.63876500  0.56564700  1
  C  83  1  0.97622100  0.62650200  0.52635400  1
  C  84  1  0.98910600  0.65348600  0.49521100  1
  C  85  1  0.00365600  0.69368800  0.50393600  1
  C  86  1  0.00437000  0.70706600  0.54308700  1
  C  87  1  0.99021900  0.67911700  0.57366200  1
  C  91  1  0.98003600  0.43263000  0.64264300  1
  C  92  1  0.97496900  0.47211700  0.63025500  1
  C  93  1  0.98240800  0.50343300  0.65695600  1
  C  94  1  0.99787400  0.49461900  0.69705700  1
  C  95  1  0.00583000  0.45526100  0.71058600  1
  C  96  1  0.99694300  0.42457900  0.68280800  1
  C  100  1  0.99143700  0.56418100  0.36001600  1
  C  101  1  0.99355200  0.52487600  0.37300700  1
  C  102  1  0.00410900  0.49332300  0.34671400  1
  C  103  1  0.01650800  0.50161400  0.30646300  1
  C  104  1  0.01709200  0.54080800  0.29236200  1
  C  105  1  0.00427500  0.57183600  0.31963300  1
  C  109  1  0.01334600  0.52703800  0.03272800  1
  C  111  1  0.91582800  0.50454200  0.97202700  1
  C  112  1  0.99875600  0.47053000  0.97268600  1
  C  114  1  0.09578700  0.49292700  0.03351200  1
  C  115  1  0.19417200  0.48578200  0.06140600  1
  C  116  1  0.81712100  0.51164200  0.94415700  1
  C  123  1  0.01747500  0.96716400  0.53049200  1
  C  125  1  0.91929800  0.02776300  0.50690200  1
  C  126  1  0.00252300  0.02686000  0.47310500  1
  C  128  1  0.10014000  0.96611200  0.49659400  1
  C  129  1  0.19889200  0.93810300  0.49010100  1
  C  130  1  0.82041900  0.05576500  0.51341500  1
  C  137  1  0.00221500  0.74827600  0.04874600  1
  C  139  1  0.11208000  0.69538700  0.08345700  1
  C  140  1  0.01875800  0.66801900  0.06786400  1
  C  142  1  0.91058400  0.72079900  0.03252500  1
  C  143  1  0.80315000  0.73141400  0.00883800  1
  C  144  1  0.22017400  0.68502400  0.10709200  1
  C  151  1  0.01114500  0.25008800  0.95480300  1
  C  153  1  0.11383500  0.30269500  0.91763200  1
  C  154  1  0.02415300  0.33030000  0.93464200  1
  C  156  1  0.92296400  0.27776100  0.97226900  1
  C  157  1  0.82064200  0.26761600  0.99801000  1
  C  158  1  0.21676400  0.31251500  0.89218400  1
  C  165  1  0.00369400  0.95248800  0.75077100  1
  C  167  1  0.10499500  0.91389700  0.69947900  1
  C  168  1  0.01864700  0.93144900  0.67128600  1
  C  170  1  0.91888100  0.97059000  0.72249600  1
  C  171  1  0.81861800  0.99736900  0.73166600  1
  C  172  1  0.20633500  0.88730400  0.69058300  1
  C  179  1  0.01346000  0.04565800  0.25327800  1
  C  181  1  0.11372400  0.08379600  0.30514600  1
  C  182  1  0.02718400  0.06589800  0.33310200  1
  C  184  1  0.92811000  0.02733800  0.28127900  1
  C  185  1  0.82756700  0.00075900  0.27182000  1
  C  186  1  0.21489300  0.11027800  0.31441700  1
  C  193  1  0.02594100  0.24844300  0.45087500  1
  C  195  1  0.92889100  0.18472000  0.46438700  1
  C  196  1  0.01191800  0.16739200  0.43541400  1
  C  198  1  0.10961900  0.23109700  0.42208900  1
  C  199  1  0.20748800  0.25133200  0.40117900  1
  C  200  1  0.82969200  0.16469700  0.48488500  1
  C  207  1  0.00969400  0.74793500  0.55168600  1
  C  209  1  0.90377600  0.80040200  0.58769100  1
  C  210  1  0.99598500  0.82784200  0.57141500  1
  C  212  1  0.10104600  0.77545300  0.53513600  1
  C  213  1  0.20623500  0.76527700  0.51047000  1
  C  214  1  0.79813500  0.81043900  0.61199200  1
  C  221  1  0.01448600  0.44700800  0.75147100  1
  C  223  1  0.92163500  0.46174600  0.81510100  1
  C  224  1  0.00519100  0.43281200  0.83268600  1
  C  226  1  0.09913700  0.41838100  0.76909200  1
  C  227  1  0.19572900  0.39701200  0.74905100  1
  C  228  1  0.82368000  0.48272900  0.83498000  1
  C  235  1  0.01974000  0.54893300  0.25146100  1
  C  237  1  0.91075100  0.58467700  0.19914200  1
  C  238  1  0.00025900  0.56773300  0.17157300  1
  C  240  1  0.10817800  0.53165100  0.22381700  1
  C  241  1  0.21368300  0.50683500  0.23377400  1
  C  242  1  0.80521500  0.60931200  0.18936000  1
  C  249  1  0.03907400  0.95183700  0.14247400  1
  C  251  1  0.15852900  0.91189000  0.09590600  1
  C  252  1  0.04893100  0.88514200  0.09489200  1
  C  254  1  0.93286400  0.92402700  0.14307900  1
  C  255  1  0.81378300  0.92988100  0.16335900  1
  C  256  1  0.27347000  0.90839600  0.07295900  1
  C  263  1  0.03466300  0.04644400  0.86129500  1
  C  265  1  0.15977900  0.08558500  0.90725600  1
  C  266  1  0.05192600  0.11289100  0.90896200  1
  C  268  1  0.93022700  0.07481500  0.86129700  1
  C  269  1  0.80966300  0.06954100  0.84163800  1
  C  270  1  0.27664700  0.08844700  0.92946000  1
  C  277  1  0.02651400  0.85983400  0.95536400  1
  C  279  1  0.15124900  0.90496000  0.91475300  1
  C  280  1  0.04220200  0.90647700  0.88793100  1
  C  282  1  0.92087400  0.85956500  0.92749900  1
  C  283  1  0.80033400  0.83998000  0.93349100  1
  C  284  1  0.26862900  0.92695500  0.91094300  1
  C  291  1  0.04056500  0.13865500  0.04859600  1
  C  293  1  0.16400000  0.09288500  0.08888900  1
  C  294  1  0.05597100  0.09186700  0.11608500  1
  C  296  1  0.93579600  0.13930600  0.07673500  1
  C  297  1  0.81569000  0.15918900  0.07099900  1
  C  298  1  0.28011700  0.07029200  0.09235200  1
  C  305  1  0.99595500  0.45464200  0.36197100  1
  C  307  1  0.87222300  0.41400800  0.40719000  1
  C  308  1  0.98103700  0.38699500  0.40835300  1
  C  310  1  0.10136800  0.42660900  0.36136300  1
  C  311  1  0.22161600  0.43257700  0.34163200  1
  C  312  1  0.75537100  0.41017200  0.42928800  1
  C  319  1  0.97303000  0.54230400  0.64201600  1
  C  321  1  0.85081500  0.58284400  0.59624200  1
  C  322  1  0.95908000  0.61006200  0.59552500  1
  C  324  1  0.07782400  0.57054900  0.64298100  1
  C  325  1  0.19769300  0.56460700  0.66284700  1
  C  326  1  0.73533200  0.58648100  0.57351200  1
  C  333  1  0.98685900  0.35631600  0.54703000  1
  C  335  1  0.85920900  0.40051700  0.58750800  1
  C  336  1  0.96840200  0.40259300  0.61421100  1
  C  338  1  0.09313400  0.35683800  0.57466900  1
  C  339  1  0.21576300  0.33856300  0.56842200  1
  C  340  1  0.74046400  0.42184200  0.59130900  1
  C  347  1  0.98374100  0.63902600  0.45643000  1
  C  349  1  0.86292200  0.59474300  0.41440500  1
  C  350  1  0.97369400  0.59420100  0.38816400  1
  C  352  1  0.09127200  0.64026700  0.42920300  1
  C  353  1  0.21135600  0.65968000  0.43625000  1
  C  354  1  0.74702600  0.57232300  0.40965800  1
  H  7  1  0.00306700  0.51914800  0.11075400  1
  H  8  1  0.01383700  0.60474500  0.02170400  1
  H  9  1  0.00898900  0.63862700  0.13941100  1
  H  16  1  0.00968500  0.48008300  0.89523500  1
  H  17  1  0.01022800  0.39251200  0.98201400  1
  H  18  1  0.01122400  0.36146900  0.86349000  1
  H  25  1  0.00365100  0.88911400  0.52307200  1
  H  26  1  0.01852200  0.97802200  0.60787100  1
  H  27  1  0.00274400  0.85960200  0.64204500  1
  H  34  1  0.01631500  0.10431200  0.48229200  1
  H  35  1  0.01349600  0.01783500  0.39530300  1
  H  36  1  0.01526800  0.13723500  0.36426300  1
  H  43  1  0.00195800  0.78459900  0.97905400  1
  H  44  1  0.02051100  0.80669100  0.10015500  1
  H  45  1  0.03826300  0.89998100  0.01990800  1
  H  52  1  0.01763500  0.21391300  0.02475100  1
  H  53  1  0.02470100  0.19133100  0.90363800  1
  H  54  1  0.04774300  0.09834300  0.98408900  1
  H  61  1  0.01169700  0.02283900  0.78630000  1
  H  62  1  0.01464900  0.90108400  0.80980900  1
  H  63  1  0.03767300  0.98171800  0.90170000  1
  H  70  1  0.01867300  0.97543600  0.21746800  1
  H  71  1  0.02870900  0.09720800  0.19429300  1
  H  72  1  0.04715800  0.01668500  0.10220900  1
  H  79  1  0.01611000  0.28193200  0.52130800  1
  H  80  1  0.00868700  0.30918000  0.40089300  1
  H  81  1  0.98230500  0.39894100  0.48382600  1
  H  88  1  0.00758900  0.71349000  0.48140400  1
  H  89  1  0.98893500  0.68823300  0.60211300  1
  H  90  1  0.96818100  0.59716000  0.52026700  1
  H  97  1  0.00250200  0.51722400  0.71659900  1
  H  98  1  0.99625100  0.39595900  0.69196400  1
  H  99  1  0.96640100  0.47820900  0.60099400  1
  H  106  1  0.01848600  0.47874600  0.28720700  1
  H  107  1  0.00184700  0.60031900  0.31001200  1
  H  108  1  0.98608800  0.51906900  0.40235700  1
  H  119  1  0.16616100  0.43223100  0.07251500  1
  H  122  1  0.70954500  0.46638600  0.95106900  1
  H  133  1  0.17273800  0.92674500  0.43686600  1
  H  136  1  0.71383700  0.04887200  0.46824000  1
  H  147  1  0.81955800  0.69473500  0.96816200  1
  H  150  1  0.30774100  0.64861400  0.07422600  1
  H  161  1  0.83460900  0.30723800  0.03585300  1
  H  164  1  0.37403300  0.34338200  0.89038100  1
  H  175  1  0.83742300  0.03450100  0.69113100  1
  H  178  1  0.30754500  0.91759100  0.65469200  1
  H  189  1  0.84626700  0.96310000  0.31187800  1
  H  192  1  0.31663500  0.07959300  0.34982100  1
  H  203  1  0.31243900  0.27089800  0.44284700  1
  H  206  1  0.71989000  0.14802600  0.44304800  1
  H  217  1  0.19958100  0.80559900  0.47280800  1
  H  220  1  0.64192800  0.84182100  0.61196200  1
  H  231  1  0.29977400  0.43839900  0.72785800  1
  H  234  1  0.71359000  0.44097200  0.85250900  1
  H  245  1  0.20284900  0.46865900  0.19430900  1
  H  248  1  0.64689400  0.60955200  0.15903800  1
  H  259  1  0.74218500  0.97230400  0.13428600  1
  H  262  1  0.32641000  0.85669700  0.08595200  1
  H  273  1  0.73580600  0.02772200  0.87095000  1
  H  276  1  0.33215200  0.13979300  0.91597700  1
  H  287  1  0.73150000  0.86891700  0.97600300  1
  H  290  1  0.32124900  0.91255500  0.85994300  1
  H  301  1  0.74456400  0.13027500  0.02878700  1
  H  304  1  0.33511300  0.08412400  0.14329800  1
  H  315  1  0.29199800  0.47467500  0.37102900  1
  H  318  1  0.70186100  0.35902000  0.41493000  1
  H  329  1  0.27228100  0.52370300  0.63281900  1
  H  332  1  0.68085400  0.63775900  0.58711900  1
  H  343  1  0.28268500  0.36986400  0.52704700  1
  H  346  1  0.68963300  0.40715700  0.64251700  1
  H  357  1  0.27748200  0.62951700  0.47855100  1
  H  360  1  0.69775600  0.58716700  0.35837000  1
  N  110  1  0.92760800  0.53053400  0.00192000  1
  N  113  1  0.08429500  0.46701400  0.00354000  1
  N  124  1  0.93120200  0.99800500  0.53334500  1
  N  127  1  0.08863200  0.99597600  0.47022900  1
  N  138  1  0.09852900  0.73371000  0.07300300  1
  N  141  1  0.92274700  0.68242000  0.04333500  1
  N  152  1  0.10202900  0.26447200  0.92872000  1
  N  155  1  0.93364200  0.31602200  0.96094900  1
  N  166  1  0.09261000  0.92543400  0.73725800  1
  N  169  1  0.93024600  0.95880100  0.68463100  1
  N  180  1  0.10201400  0.07261200  0.26721700  1
  N  183  1  0.93902500  0.03873000  0.31926200  1
  N  194  1  0.93993600  0.22405800  0.47015000  1
  N  197  1  0.09788400  0.19180900  0.41615400  1
  N  208  1  0.91588700  0.76224900  0.57678800  1
  N  211  1  0.08961000  0.81363800  0.54615900  1
  N  222  1  0.93027600  0.46685500  0.77572900  1
  N  225  1  0.08949400  0.41304300  0.80839500  1
  N  236  1  0.92554800  0.57418300  0.23726200  1
  N  239  1  0.09425300  0.54231300  0.18565000  1
  N  250  1  0.14563200  0.94401000  0.11887200  1
  N  253  1  0.94155300  0.89284200  0.11837100  1
  N  264  1  0.14333200  0.05361200  0.88428100  1
  N  267  1  0.94258400  0.10587800  0.88603400  1
  N  278  1  0.13559600  0.88248700  0.94724100  1
  N  281  1  0.93251300  0.88385600  0.89589600  1
  N  292  1  0.14851300  0.11544300  0.05643700  1
  N  295  1  0.94719000  0.11493200  0.10829000  1
  N  306  1  0.88744400  0.44660600  0.38477700  1
  N  309  1  0.09006300  0.39485900  0.38551300  1
  N  320  1  0.86560500  0.55022300  0.61870500  1
  N  323  1  0.06717200  0.60225500  0.61873900  1
  N  334  1  0.87628300  0.37831700  0.55509000  1
  N  337  1  0.07983900  0.38083000  0.60618500  1
  N  348  1  0.87582900  0.61635400  0.44736000  1
  N  351  1  0.08241800  0.61671400  0.39722000  1
  O  117  1  0.28727400  0.50916400  0.06306100  1
  O  118  1  0.22263300  0.45234000  0.07283300  1
  O  120  1  0.80283800  0.54517200  0.93207700  1
  O  121  1  0.71727300  0.49022600  0.94092100  1
  O  131  1  0.29112700  0.93648300  0.51368300  1
  O  132  1  0.22851000  0.92650300  0.45704900  1
  O  134  1  0.80414200  0.06786600  0.54662300  1
  O  135  1  0.72100300  0.05905300  0.49189600  1
  O  145  1  0.71452600  0.75093200  0.02408100  1
  O  146  1  0.76624500  0.71088300  0.98119500  1
  O  148  1  0.25245200  0.70707500  0.13353000  1
  O  149  1  0.31184900  0.66356000  0.09527900  1
  O  159  1  0.73266300  0.24625800  0.98500500  1
  O  160  1  0.78271900  0.28957000  0.02439800  1
  O  162  1  0.24884100  0.28925000  0.86662200  1
  O  163  1  0.30054000  0.33677100  0.90353200  1
  O  173  1  0.72966600  0.98621800  0.75374900  1
  O  174  1  0.78445100  0.02405000  0.70919800  1
  O  176  1  0.22585100  0.85987400  0.71298300  1
  O  177  1  0.30334300  0.89647900  0.66982100  1
  O  187  1  0.73867100  0.01225100  0.24989200  1
  O  188  1  0.79329900  0.97381000  0.29396100  1
  O  190  1  0.23556000  0.13783600  0.29225200  1
  O  191  1  0.31239000  0.10083000  0.33487100  1
  O  201  1  0.22389600  0.24309300  0.36681500  1
  O  202  1  0.30565500  0.26645200  0.41746000  1
  O  204  1  0.81499100  0.17195300  0.51953700  1
  O  205  1  0.72812500  0.15170600  0.46852100  1
  O  215  1  0.29120600  0.74325100  0.52423900  1
  O  216  1  0.24885600  0.78746600  0.48467500  1
  O  218  1  0.76154500  0.78704000  0.63713600  1
  O  219  1  0.71686300  0.83505200  0.59966200  1
  O  229  1  0.21399100  0.36274500  0.75830000  1
  O  230  1  0.29329100  0.41300800  0.73314100  1
  O  232  1  0.81090500  0.51757600  0.82731400  1
  O  233  1  0.72228900  0.46653000  0.84845300  1
  O  243  1  0.29997600  0.51992200  0.25557400  1
  O  244  1  0.25340400  0.48034100  0.21210600  1
  O  246  1  0.77143200  0.63496700  0.21234200  1
  O  247  1  0.72181000  0.59700500  0.16555000  1
  O  257  1  0.77035100  0.90215400  0.18224600  1
  O  258  1  0.72709700  0.95278400  0.15089300  1
  O  260  1  0.32733200  0.93807800  0.06025100  1
  O  261  1  0.34717500  0.87918800  0.07439500  1
  O  271  1  0.76682300  0.09775400  0.82332400  1
  O  272  1  0.72145600  0.04740900  0.85448800  1
  O  274  1  0.32945200  0.05846900  0.94184400  1
  O  275  1  0.35230700  0.11719400  0.92741600  1
  O  285  1  0.75347300  0.82177300  0.90601100  1
  O  286  1  0.71500100  0.85247000  0.95663000  1
  O  288  1  0.32178300  0.94018800  0.94026500  1
  O  289  1  0.34248700  0.92452600  0.88199300  1
  O  299  1  0.77029900  0.17761100  0.09854100  1
  O  300  1  0.72921200  0.14682900  0.04814900  1
  O  302  1  0.33282300  0.05725500  0.06287000  1
  O  303  1  0.35517300  0.07228900  0.12108300  1
  O  313  1  0.26589000  0.40503900  0.32289000  1
  O  314  1  0.30774700  0.45536100  0.35442100  1
  O  316  1  0.70157300  0.43961900  0.44227000  1
  O  317  1  0.68090100  0.38122000  0.42680200  1
  O  327  1  0.24008400  0.59225300  0.68183400  1
  O  328  1  0.28625200  0.54290800  0.64968200  1
  O  330  1  0.68234400  0.55691900  0.56050400  1
  O  331  1  0.66072000  0.61545900  0.57531700  1
  O  341  1  0.26388000  0.31996100  0.59562500  1
  O  342  1  0.30053300  0.35298100  0.54610800  1
  O  344  1  0.68610200  0.43490000  0.56197100  1
  O  345  1  0.66737800  0.41908800  0.62041700  1
  O  355  1  0.25993100  0.67871500  0.40941100  1
  O  356  1  0.29519500  0.64653400  0.45960600  1
  O  358  1  0.69101200  0.55874400  0.43850400  1
  O  359  1  0.67521800  0.57490400  0.38026100  1
