# generated using pymatgen
data_CuH16C28O5
_symmetry_space_group_name_H-M   'P 1'
_cell_length_a   31.43924000
_cell_length_b   31.44329000
_cell_length_c   46.36514000
_cell_angle_alpha   109.77191000
_cell_angle_beta   109.78316000
_cell_angle_gamma   90.06110000
_symmetry_Int_Tables_number   1
_chemical_formula_structural   CuH16C28O5
_chemical_formula_sum   'Cu8 H128 C224 O40'
_cell_volume   40239.56684288
_cell_formula_units_Z   8
loop_
 _symmetry_equiv_pos_site_id
 _symmetry_equiv_pos_as_xyz
  1  'x, y, z'
loop_
 _atom_site_type_symbol
 _atom_site_label
 _atom_site_symmetry_multiplicity
 _atom_site_fract_x
 _atom_site_fract_y
 _atom_site_fract_z
 _atom_site_occupancy
  Cu  Cu1  1  0.58105000  0.08203000  0.21784000  1.0
  Cu  Cu2  1  0.63705000  0.13569000  0.21796000  1.0
  Cu  Cu3  1  0.88551000  0.83117000  0.71815000  1.0
  Cu  Cu4  1  0.83185000  0.88715000  0.71823000  1.0
  Cu  Cu5  1  0.11286000  0.16814000  0.28177000  1.0
  Cu  Cu6  1  0.16885000  0.11450000  0.28186000  1.0
  Cu  Cu7  1  0.91806000  0.41896000  0.78216000  1.0
  Cu  Cu8  1  0.86425000  0.36289000  0.78204000  1.0
  H  H1  1  0.39194000  0.11990000  0.11197000  1.0
  H  H2  1  0.45481000  0.09677000  0.15056000  1.0
  H  H3  1  0.55178000  0.18953000  0.14735000  1.0
  H  H4  1  0.48911000  0.21318000  0.10838000  1.0
  H  H5  1  0.23816000  0.15033000  0.16724000  1.0
  H  H6  1  0.22434000  0.13312000  0.21187000  1.0
  H  H7  1  0.11035000  0.20903000  0.20280000  1.0
  H  H8  1  0.12286000  0.22614000  0.15745000  1.0
  H  H9  1  0.35590000  0.19447000  0.02521000  1.0
  H  H10  1  0.29470000  0.18407000  0.10527000  1.0
  H  H11  1  0.15866000  0.21945000  0.07375000  1.0
  H  H12  1  0.17047000  0.23046000  0.02697000  1.0
  H  H13  1  0.34336000  0.15743000  0.09059000  1.0
  H  H14  1  0.41204000  0.20627000  0.07476000  1.0
  H  H15  1  0.25067000  0.17814000  0.13404000  1.0
  H  H16  1  0.15890000  0.21630000  0.11980000  1.0
  H  H17  1  0.72024000  0.99233000  0.11198000  1.0
  H  H18  1  0.69541000  0.05388000  0.15033000  1.0
  H  H19  1  0.59549000  0.95751000  0.14697000  1.0
  H  H20  1  0.61978000  0.89502000  0.10825000  1.0
  H  H21  1  0.92957000  0.01744000  0.16760000  1.0
  H  H22  1  0.98794000  0.07929000  0.21238000  1.0
  H  H23  1  0.09298000  0.99453000  0.20331000  1.0
  H  H24  1  0.03521000  0.93209000  0.15787000  1.0
  H  H25  1  0.67038000  0.83005000  0.02597000  1.0
  H  H26  1  0.81099000  0.92186000  0.10561000  1.0
  H  H27  1  0.91613000  0.85555000  0.07455000  1.0
  H  H28  1  0.85788000  0.79684000  0.02814000  1.0
  H  H29  1  0.74794000  0.93319000  0.09096000  1.0
  H  H30  1  0.66347000  0.86851000  0.07518000  1.0
  H  H31  1  0.88404000  0.95700000  0.13443000  1.0
  H  H32  1  0.96139000  0.90421000  0.12022000  1.0
  H  H33  1  0.74227000  0.64205000  0.61213000  1.0
  H  H34  1  0.80384000  0.70512000  0.65076000  1.0
  H  H35  1  0.70768000  0.80167000  0.64726000  1.0
  H  H36  1  0.64518000  0.73877000  0.60830000  1.0
  H  H37  1  0.76740000  0.48814000  0.66755000  1.0
  H  H38  1  0.82926000  0.47442000  0.71212000  1.0
  H  H39  1  0.74424000  0.36026000  0.70307000  1.0
  H  H40  1  0.68187000  0.37277000  0.65781000  1.0
  H  H41  1  0.58014000  0.60599000  0.52599000  1.0
  H  H42  1  0.67157000  0.54450000  0.60548000  1.0
  H  H43  1  0.60491000  0.40832000  0.57404000  1.0
  H  H44  1  0.54670000  0.42020000  0.52750000  1.0
  H  H45  1  0.68341000  0.59312000  0.59064000  1.0
  H  H46  1  0.61855000  0.66171000  0.57505000  1.0
  H  H47  1  0.70642000  0.50051000  0.63422000  1.0
  H  H48  1  0.65399000  0.40878000  0.62013000  1.0
  H  H49  1  0.86968000  0.96983000  0.61195000  1.0
  H  H50  1  0.84650000  0.94517000  0.65039000  1.0
  H  H51  1  0.93946000  0.84531000  0.64710000  1.0
  H  H52  1  0.96325000  0.86953000  0.60836000  1.0
  H  H53  1  0.89993000  0.17940000  0.66765000  1.0
  H  H54  1  0.88289000  0.23771000  0.71240000  1.0
  H  H55  1  0.95871000  0.34280000  0.70333000  1.0
  H  H56  1  0.97567000  0.28515000  0.65788000  1.0
  H  H57  1  0.94535000  0.92027000  0.52569000  1.0
  H  H58  1  0.93385000  0.06091000  0.60564000  1.0
  H  H59  1  0.96921000  0.16604000  0.57447000  1.0
  H  H60  1  0.98056000  0.10771000  0.52771000  1.0
  H  H61  1  0.90782000  0.99764000  0.59102000  1.0
  H  H62  1  0.95638000  0.91317000  0.57490000  1.0
  H  H63  1  0.92767000  0.13382000  0.63449000  1.0
  H  H64  1  0.96596000  0.21141000  0.62027000  1.0
  H  H65  1  0.03017000  0.13032000  0.38805000  1.0
  H  H66  1  0.05484000  0.15351000  0.34961000  1.0
  H  H67  1  0.15470000  0.06054000  0.35289000  1.0
  H  H68  1  0.13048000  0.03675000  0.39164000  1.0
  H  H69  1  0.82063000  0.10006000  0.33236000  1.0
  H  H70  1  0.76230000  0.11710000  0.28760000  1.0
  H  H71  1  0.65719000  0.04129000  0.29666000  1.0
  H  H72  1  0.71485000  0.02432000  0.34212000  1.0
  H  H73  1  0.07976000  0.05465000  0.47432000  1.0
  H  H74  1  0.93909000  0.06616000  0.39436000  1.0
  H  H75  1  0.83394000  0.03079000  0.42552000  1.0
  H  H76  1  0.89228000  0.01943000  0.47229000  1.0
  H  H77  1  0.00236000  0.09219000  0.40898000  1.0
  H  H78  1  0.08683000  0.04361000  0.42510000  1.0
  H  H79  1  0.86619000  0.07234000  0.36551000  1.0
  H  H80  1  0.78859000  0.03404000  0.37973000  1.0
  H  H81  1  0.35797000  0.25775000  0.38789000  1.0
  H  H82  1  0.29490000  0.19619000  0.34925000  1.0
  H  H83  1  0.19830000  0.29230000  0.35272000  1.0
  H  H84  1  0.26121000  0.35480000  0.39168000  1.0
  H  H85  1  0.51189000  0.23266000  0.33248000  1.0
  H  H86  1  0.52558000  0.17083000  0.28791000  1.0
  H  H87  1  0.63976000  0.25585000  0.29696000  1.0
  H  H88  1  0.62726000  0.31819000  0.34222000  1.0
  H  H89  1  0.39393000  0.41983000  0.47399000  1.0
  H  H90  1  0.45548000  0.32848000  0.39455000  1.0
  H  H91  1  0.59166000  0.39516000  0.42601000  1.0
  H  H92  1  0.57978000  0.45333000  0.47254000  1.0
  H  H93  1  0.40687000  0.31660000  0.40939000  1.0
  H  H94  1  0.33826000  0.38143000  0.42495000  1.0
  H  H95  1  0.49949000  0.29364000  0.36582000  1.0
  H  H96  1  0.59124000  0.34606000  0.37991000  1.0
  H  H97  1  0.88018000  0.60799000  0.88797000  1.0
  H  H98  1  0.90330000  0.54511000  0.84941000  1.0
  H  H99  1  0.81048000  0.44821000  0.85264000  1.0
  H  H100  1  0.78686000  0.51089000  0.89159000  1.0
  H  H101  1  0.84966000  0.76183000  0.83275000  1.0
  H  H102  1  0.86687000  0.77567000  0.78812000  1.0
  H  H103  1  0.79095000  0.88965000  0.79720000  1.0
  H  H104  1  0.77385000  0.87710000  0.84254000  1.0
  H  H105  1  0.80440000  0.64369000  0.97431000  1.0
  H  H106  1  0.81596000  0.70529000  0.89472000  1.0
  H  H107  1  0.78077000  0.84137000  0.92631000  1.0
  H  H108  1  0.76985000  0.82958000  0.97312000  1.0
  H  H109  1  0.84281000  0.65672000  0.90955000  1.0
  H  H110  1  0.79368000  0.58795000  0.92512000  1.0
  H  H111  1  0.82184000  0.74929000  0.86592000  1.0
  H  H112  1  0.78378000  0.84109000  0.88023000  1.0
  H  H113  1  0.00768000  0.27981000  0.88802000  1.0
  H  H114  1  0.94611000  0.30463000  0.84968000  1.0
  H  H115  1  0.04247000  0.40454000  0.85301000  1.0
  H  H116  1  0.10499000  0.38025000  0.89174000  1.0
  H  H117  1  0.98257000  0.07043000  0.83240000  1.0
  H  H118  1  0.92071000  0.01208000  0.78762000  1.0
  H  H119  1  0.00547000  0.90704000  0.79670000  1.0
  H  H120  1  0.06792000  0.96480000  0.84216000  1.0
  H  H121  1  0.16927000  0.32969000  0.97444000  1.0
  H  H122  1  0.07810000  0.18897000  0.89433000  1.0
  H  H123  1  0.14464000  0.08392000  0.92538000  1.0
  H  H124  1  0.20334000  0.14220000  0.97178000  1.0
  H  H125  1  0.06684000  0.25200000  0.90884000  1.0
  H  H126  1  0.13149000  0.33660000  0.92489000  1.0
  H  H127  1  0.04299000  0.11595000  0.86558000  1.0
  H  H128  1  0.09586000  0.03862000  0.87976000  1.0
  C  C1  1  0.43566000  0.16889000  0.10748000  1.0
  C  C2  1  0.42672000  0.13568000  0.11969000  1.0
  C  C3  1  0.46180000  0.12233000  0.14122000  1.0
  C  C4  1  0.50719000  0.14175000  0.15136000  1.0
  C  C5  1  0.51665000  0.17460000  0.13933000  1.0
  C  C6  1  0.48144000  0.18765000  0.11758000  1.0
  C  C7  1  0.54465000  0.12790000  0.17481000  1.0
  C  C8  1  0.18157000  0.18991000  0.15887000  1.0
  C  C9  1  0.21022000  0.16368000  0.17486000  1.0
  C  C10  1  0.20276000  0.15384000  0.19993000  1.0
  C  C11  1  0.16671000  0.17027000  0.21021000  1.0
  C  C12  1  0.13818000  0.19659000  0.19476000  1.0
  C  C13  1  0.14537000  0.20594000  0.16942000  1.0
  C  C14  1  0.15840000  0.15972000  0.23699000  1.0
  C  C15  1  0.24564000  0.21998000  0.01151000  1.0
  C  C16  1  0.28926000  0.21421000  0.00669000  1.0
  C  C17  1  0.32457000  0.20038000  0.03022000  1.0
  C  C18  1  0.31891000  0.19274000  0.05623000  1.0
  C  C19  1  0.27558000  0.19968000  0.06121000  1.0
  C  C20  1  0.23948000  0.21342000  0.03846000  1.0
  C  C21  1  0.26777000  0.19380000  0.08762000  1.0
  C  C22  1  0.22638000  0.20046000  0.09311000  1.0
  C  C23  1  0.19116000  0.21414000  0.07050000  1.0
  C  C24  1  0.19761000  0.22022000  0.04421000  1.0
  C  C25  1  0.35463000  0.17689000  0.07846000  1.0
  C  C26  1  0.40003000  0.18487000  0.08540000  1.0
  C  C27  1  0.22203000  0.19214000  0.12085000  1.0
  C  C28  1  0.18662000  0.20024000  0.13183000  1.0
  C  C29  1  0.67225000  0.93865000  0.10755000  1.0
  C  C30  1  0.69319000  0.98411000  0.11966000  1.0
  C  C31  1  0.67939000  0.01889000  0.14107000  1.0
  C  C32  1  0.64416000  0.00943000  0.15117000  1.0
  C  C33  1  0.62273000  0.96453000  0.13911000  1.0
  C  C34  1  0.63645000  0.92982000  0.11749000  1.0
  C  C35  1  0.63014000  0.04660000  0.17469000  1.0
  C  C36  1  0.97789000  0.96967000  0.15929000  1.0
  C  C37  1  0.96515000  0.01181000  0.17530000  1.0
  C  C38  1  0.99761000  0.04669000  0.20039000  1.0
  C  C39  1  0.04393000  0.04059000  0.21061000  1.0
  C  C40  1  0.05709000  0.99886000  0.19521000  1.0
  C  C41  1  0.02462000  0.96419000  0.16987000  1.0
  C  C42  1  0.07892000  0.07807000  0.23715000  1.0
  C  C43  1  0.76733000  0.79123000  0.01266000  1.0
  C  C44  1  0.71890000  0.79181000  0.00784000  1.0
  C  C45  1  0.70674000  0.82934000  0.03101000  1.0
  C  C46  1  0.73819000  0.86344000  0.05679000  1.0
  C  C47  1  0.78654000  0.86189000  0.06178000  1.0
  C  C48  1  0.80018000  0.82538000  0.03925000  1.0
  C  C49  1  0.82053000  0.89454000  0.08807000  1.0
  C  C50  1  0.86742000  0.89364000  0.09359000  1.0
  C  C51  1  0.88031000  0.85736000  0.07117000  1.0
  C  C52  1  0.84781000  0.82459000  0.04507000  1.0
  C  C53  1  0.72455000  0.90159000  0.07883000  1.0
  C  C54  1  0.68603000  0.90058000  0.08570000  1.0
  C  C55  1  0.89947000  0.92972000  0.12128000  1.0
  C  C56  1  0.94579000  0.93240000  0.13225000  1.0
  C  C57  1  0.68870000  0.68555000  0.60755000  1.0
  C  C58  1  0.73414000  0.67677000  0.61980000  1.0
  C  C59  1  0.76892000  0.71195000  0.64133000  1.0
  C  C60  1  0.75950000  0.75727000  0.65140000  1.0
  C  C61  1  0.71464000  0.76658000  0.63927000  1.0
  C  C62  1  0.67993000  0.73126000  0.61755000  1.0
  C  C63  1  0.79666000  0.79480000  0.67499000  1.0
  C  C64  1  0.71949000  0.43152000  0.65918000  1.0
  C  C65  1  0.76173000  0.46018000  0.67519000  1.0
  C  C66  1  0.79664000  0.45273000  0.70024000  1.0
  C  C67  1  0.79050000  0.41666000  0.71053000  1.0
  C  C68  1  0.74870000  0.38810000  0.69504000  1.0
  C  C69  1  0.71403000  0.39532000  0.66974000  1.0
  C  C70  1  0.82785000  0.40831000  0.73730000  1.0
  C  C71  1  0.54134000  0.49550000  0.51213000  1.0
  C  C72  1  0.54197000  0.53931000  0.50751000  1.0
  C  C73  1  0.57951000  0.57453000  0.53088000  1.0
  C  C74  1  0.61359000  0.56871000  0.55658000  1.0
  C  C75  1  0.61190000  0.52524000  0.56143000  1.0
  C  C76  1  0.57539000  0.48911000  0.53875000  1.0
  C  C77  1  0.64429000  0.51746000  0.58780000  1.0
  C  C78  1  0.64320000  0.47606000  0.59329000  1.0
  C  C79  1  0.60693000  0.44079000  0.57072000  1.0
  C  C80  1  0.57439000  0.44726000  0.54453000  1.0
  C  C81  1  0.65177000  0.60444000  0.57866000  1.0
  C  C82  1  0.65068000  0.64980000  0.58559000  1.0
  C  C83  1  0.67925000  0.47182000  0.62108000  1.0
  C  C84  1  0.68212000  0.43650000  0.63213000  1.0
  C  C85  1  0.91891000  0.92195000  0.60754000  1.0
  C  C86  1  0.88556000  0.94283000  0.61967000  1.0
  C  C87  1  0.87220000  0.92907000  0.64114000  1.0
  C  C88  1  0.89174000  0.89390000  0.65130000  1.0
  C  C89  1  0.92455000  0.87250000  0.63920000  1.0
  C  C90  1  0.93766000  0.88621000  0.61754000  1.0
  C  C91  1  0.87814000  0.88008000  0.67498000  1.0
  C  C92  1  0.93956000  0.22772000  0.65934000  1.0
  C  C93  1  0.91338000  0.21495000  0.67535000  1.0
  C  C94  1  0.90360000  0.24738000  0.70044000  1.0
  C  C95  1  0.91996000  0.29369000  0.71068000  1.0
  C  C96  1  0.94631000  0.30690000  0.69526000  1.0
  C  C97  1  0.95561000  0.27447000  0.66991000  1.0
  C  C98  1  0.90905000  0.32866000  0.73725000  1.0
  C  C99  1  0.97009000  0.01720000  0.51209000  1.0
  C  C100  1  0.96476000  0.96876000  0.50724000  1.0
  C  C101  1  0.95098000  0.95662000  0.53067000  1.0
  C  C102  1  0.94299000  0.98804000  0.55661000  1.0
  C  C103  1  0.94949000  0.03642000  0.56161000  1.0
  C  C104  1  0.96309000  0.05006000  0.53891000  1.0
  C  C105  1  0.94349000  0.07044000  0.58803000  1.0
  C  C106  1  0.95001000  0.11735000  0.59356000  1.0
  C  C107  1  0.96376000  0.13024000  0.57106000  1.0
  C  C108  1  0.96997000  0.09769000  0.54478000  1.0
  C  C109  1  0.92715000  0.97429000  0.57877000  1.0
  C  C110  1  0.93501000  0.93573000  0.58559000  1.0
  C  C111  1  0.94169000  0.14934000  0.62132000  1.0
  C  C112  1  0.94983000  0.19569000  0.63228000  1.0
  C  C113  1  0.07806000  0.08109000  0.39246000  1.0
  C  C114  1  0.05718000  0.11444000  0.38033000  1.0
  C  C115  1  0.07093000  0.12781000  0.35886000  1.0
  C  C116  1  0.10611000  0.10827000  0.34870000  1.0
  C  C117  1  0.12751000  0.07546000  0.36080000  1.0
  C  C118  1  0.11380000  0.06234000  0.38245000  1.0
  C  C119  1  0.11992000  0.12187000  0.32502000  1.0
  C  C120  1  0.77229000  0.06043000  0.34067000  1.0
  C  C121  1  0.78507000  0.08662000  0.32466000  1.0
  C  C122  1  0.75264000  0.09640000  0.29957000  1.0
  C  C123  1  0.70631000  0.08004000  0.28934000  1.0
  C  C124  1  0.69310000  0.05369000  0.30475000  1.0
  C  C125  1  0.72552000  0.04438000  0.33010000  1.0
  C  C126  1  0.67136000  0.09096000  0.26279000  1.0
  C  C127  1  0.98281000  0.02992000  0.48792000  1.0
  C  C128  1  0.03125000  0.03524000  0.49277000  1.0
  C  C129  1  0.04340000  0.04902000  0.46933000  1.0
  C  C130  1  0.01197000  0.05701000  0.44339000  1.0
  C  C131  1  0.96359000  0.05051000  0.43839000  1.0
  C  C132  1  0.94994000  0.03690000  0.46109000  1.0
  C  C133  1  0.92956000  0.05652000  0.41197000  1.0
  C  C134  1  0.88265000  0.04999000  0.40644000  1.0
  C  C135  1  0.86974000  0.03623000  0.42894000  1.0
  C  C136  1  0.90230000  0.03002000  0.45522000  1.0
  C  C137  1  0.02572000  0.07285000  0.42123000  1.0
  C  C138  1  0.06427000  0.06499000  0.41441000  1.0
  C  C139  1  0.85066000  0.05832000  0.37869000  1.0
  C  C140  1  0.80431000  0.05018000  0.36772000  1.0
  C  C141  1  0.31444000  0.31130000  0.39245000  1.0
  C  C142  1  0.32323000  0.26587000  0.38021000  1.0
  C  C143  1  0.28805000  0.23110000  0.35867000  1.0
  C  C144  1  0.24273000  0.24050000  0.34860000  1.0
  C  C145  1  0.23340000  0.28535000  0.36071000  1.0
  C  C146  1  0.26872000  0.32006000  0.38244000  1.0
  C  C147  1  0.20520000  0.20334000  0.32501000  1.0
  C  C148  1  0.56849000  0.28057000  0.34085000  1.0
  C  C149  1  0.53984000  0.23834000  0.32485000  1.0
  C  C150  1  0.54729000  0.20344000  0.29979000  1.0
  C  C151  1  0.58335000  0.20959000  0.28950000  1.0
  C  C152  1  0.61191000  0.25138000  0.30499000  1.0
  C  C153  1  0.60471000  0.28604000  0.33029000  1.0
  C  C154  1  0.59169000  0.17225000  0.26274000  1.0
  C  C155  1  0.50447000  0.45863000  0.48792000  1.0
  C  C156  1  0.46063000  0.45803000  0.49250000  1.0
  C  C157  1  0.42541000  0.42048000  0.46913000  1.0
  C  C158  1  0.43126000  0.38641000  0.44344000  1.0
  C  C159  1  0.47475000  0.38812000  0.43860000  1.0
  C  C160  1  0.51087000  0.42462000  0.46129000  1.0
  C  C161  1  0.48253000  0.35575000  0.41223000  1.0
  C  C162  1  0.52393000  0.35684000  0.40675000  1.0
  C  C163  1  0.55920000  0.39312000  0.42932000  1.0
  C  C164  1  0.55273000  0.42564000  0.45552000  1.0
  C  C165  1  0.39555000  0.34823000  0.42136000  1.0
  C  C166  1  0.35017000  0.34931000  0.41441000  1.0
  C  C167  1  0.52819000  0.32081000  0.37896000  1.0
  C  C168  1  0.56351000  0.31793000  0.36791000  1.0
  C  C169  1  0.83117000  0.56433000  0.89248000  1.0
  C  C170  1  0.86439000  0.57323000  0.88027000  1.0
  C  C171  1  0.87774000  0.53814000  0.85876000  1.0
  C  C172  1  0.85830000  0.49276000  0.84862000  1.0
  C  C173  1  0.82545000  0.48333000  0.86065000  1.0
  C  C174  1  0.81240000  0.51855000  0.88240000  1.0
  C  C175  1  0.87214000  0.45529000  0.82514000  1.0
  C  C176  1  0.81008000  0.81840000  0.84112000  1.0
  C  C177  1  0.83630000  0.78976000  0.82512000  1.0
  C  C178  1  0.84614000  0.79724000  0.80006000  1.0
  C  C179  1  0.82973000  0.83330000  0.78979000  1.0
  C  C180  1  0.80340000  0.86181000  0.80524000  1.0
  C  C181  1  0.79404000  0.85460000  0.83057000  1.0
  C  C182  1  0.84028000  0.84162000  0.76301000  1.0
  C  C183  1  0.77996000  0.75435000  0.98845000  1.0
  C  C184  1  0.78499000  0.71050000  0.99299000  1.0
  C  C185  1  0.79892000  0.67520000  0.96951000  1.0
  C  C186  1  0.80721000  0.68105000  0.94376000  1.0
  C  C187  1  0.80069000  0.72453000  0.93893000  1.0
  C  C188  1  0.78713000  0.76069000  0.96173000  1.0
  C  C189  1  0.80647000  0.73230000  0.91247000  1.0
  C  C190  1  0.79984000  0.77370000  0.90700000  1.0
  C  C191  1  0.78627000  0.80895000  0.92964000  1.0
  C  C192  1  0.78027000  0.80252000  0.95596000  1.0
  C  C193  1  0.82320000  0.64539000  0.92158000  1.0
  C  C194  1  0.81517000  0.59997000  0.91454000  1.0
  C  C195  1  0.80795000  0.77797000  0.87916000  1.0
  C  C196  1  0.79981000  0.81337000  0.86818000  1.0
  C  C197  1  0.06136000  0.32778000  0.89243000  1.0
  C  C198  1  0.01590000  0.30685000  0.88034000  1.0
  C  C199  1  0.98110000  0.32065000  0.85893000  1.0
  C  C200  1  0.99055000  0.35587000  0.84882000  1.0
  C  C201  1  0.03545000  0.37729000  0.86087000  1.0
  C  C202  1  0.07018000  0.36358000  0.88249000  1.0
  C  C203  1  0.95334000  0.36985000  0.82527000  1.0
  C  C204  1  0.03034000  0.02212000  0.84073000  1.0
  C  C205  1  0.98819000  0.03486000  0.82472000  1.0
  C  C206  1  0.95331000  0.00241000  0.79962000  1.0
  C  C207  1  0.95941000  0.95610000  0.78939000  1.0
  C  C208  1  0.00115000  0.94293000  0.80481000  1.0
  C  C209  1  0.03581000  0.97538000  0.83016000  1.0
  C  C210  1  0.92192000  0.92112000  0.76285000  1.0
  C  C211  1  0.20868000  0.23272000  0.98735000  1.0
  C  C212  1  0.20780000  0.28118000  0.99246000  1.0
  C  C213  1  0.17025000  0.29333000  0.96928000  1.0
  C  C214  1  0.13649000  0.26183000  0.94322000  1.0
  C  C215  1  0.13826000  0.21347000  0.93805000  1.0
  C  C216  1  0.17488000  0.19985000  0.96053000  1.0
  C  C217  1  0.10556000  0.17947000  0.91180000  1.0
  C  C218  1  0.10652000  0.13259000  0.90630000  1.0
  C  C219  1  0.14288000  0.11971000  0.92869000  1.0
  C  C220  1  0.17568000  0.15222000  0.95475000  1.0
  C  C221  1  0.09840000  0.27544000  0.92110000  1.0
  C  C222  1  0.09943000  0.31401000  0.91431000  1.0
  C  C223  1  0.07034000  0.10054000  0.87869000  1.0
  C  C224  1  0.06764000  0.05421000  0.86774000  1.0
  O  O1  1  0.53386000  0.09545000  0.18300000  1.0
  O  O2  1  0.58472000  0.14953000  0.18529000  1.0
  O  O3  1  0.12725000  0.17919000  0.24667000  1.0
  O  O4  1  0.18260000  0.13211000  0.24821000  1.0
  O  O5  1  0.29540000  0.21946000  0.98262000  1.0
  O  O6  1  0.64960000  0.08721000  0.18335000  1.0
  O  O7  1  0.60006000  0.03540000  0.18475000  1.0
  O  O8  1  0.11981000  0.06850000  0.24675000  1.0
  O  O9  1  0.06580000  0.11688000  0.24822000  1.0
  O  O10  1  0.68908000  0.76226000  0.98368000  1.0
  O  O11  1  0.83718000  0.78387000  0.68374000  1.0
  O  O12  1  0.78558000  0.83497000  0.68501000  1.0
  O  O13  1  0.81838000  0.37632000  0.74634000  1.0
  O  O14  1  0.86637000  0.43329000  0.74904000  1.0
  O  O15  1  0.51258000  0.54545000  0.48349000  1.0
  O  O16  1  0.84637000  0.89975000  0.68375000  1.0
  O  O17  1  0.89932000  0.85006000  0.68511000  1.0
  O  O18  1  0.92788000  0.36963000  0.74650000  1.0
  O  O19  1  0.88177000  0.31539000  0.74862000  1.0
  O  O20  1  0.96997000  0.93899000  0.48299000  1.0
  O  O21  1  0.10024000  0.15364000  0.31625000  1.0
  O  O22  1  0.14995000  0.10070000  0.31489000  1.0
  O  O23  1  0.63034000  0.07221000  0.25352000  1.0
  O  O24  1  0.68460000  0.11821000  0.25137000  1.0
  O  O25  1  0.06103000  0.03001000  0.51702000  1.0
  O  O26  1  0.21614000  0.16284000  0.31626000  1.0
  O  O27  1  0.16502000  0.21442000  0.31499000  1.0
  O  O28  1  0.62368000  0.18166000  0.25366000  1.0
  O  O29  1  0.56673000  0.13370000  0.25095000  1.0
  O  O30  1  0.45448000  0.48745000  0.51650000  1.0
  O  O31  1  0.90458000  0.46614000  0.81697000  1.0
  O  O32  1  0.85045000  0.41526000  0.81468000  1.0
  O  O33  1  0.82080000  0.87277000  0.75333000  1.0
  O  O34  1  0.86789000  0.81742000  0.75179000  1.0
  O  O35  1  0.77951000  0.70444000  0.01702000  1.0
  O  O36  1  0.91276000  0.35038000  0.81664000  1.0
  O  O37  1  0.96461000  0.39988000  0.81521000  1.0
  O  O38  1  0.93150000  0.88024000  0.75326000  1.0
  O  O39  1  0.88311000  0.93424000  0.75178000  1.0
  O  O40  1  0.23748000  0.31094000  0.01661000  1.0
