# generated using pymatgen
data_H44C51N4
_symmetry_space_group_name_H-M   'P 1'
_cell_length_a   18.01010000
_cell_length_b   18.01010000
_cell_length_c   35.81920000
_cell_angle_alpha   89.99790000
_cell_angle_beta   90.00210000
_cell_angle_gamma   90.00000000
_symmetry_Int_Tables_number   1
_chemical_formula_structural   H44C51N4
_chemical_formula_sum   'H88 C102 N8'
_cell_volume   11618.44829943
_cell_formula_units_Z   2
loop_
 _symmetry_equiv_pos_site_id
 _symmetry_equiv_pos_as_xyz
  1  'x, y, z'
loop_
 _atom_site_type_symbol
 _atom_site_label
 _atom_site_symmetry_multiplicity
 _atom_site_fract_x
 _atom_site_fract_y
 _atom_site_fract_z
 _atom_site_occupancy
  C  1  1  0.05475000  0.91437000  0.99206800  1
  C  2  1  0.05172400  0.83598600  0.99548200  1
  C  3  1  0.91057000  0.83772300  0.99516100  1
  C  4  1  0.90990900  0.91614900  0.99195300  1
  C  5  1  0.83895500  0.95211700  0.99055600  1
  C  6  1  0.77003800  0.91313200  0.99219600  1
  C  7  1  0.77425300  0.83513600  0.99599300  1
  C  8  1  0.84287400  0.79824000  0.99720700  1
  C  9  1  0.11816500  0.79453700  0.99760900  1
  C  10  1  0.18777900  0.82926800  0.99581700  1
  C  11  1  0.19442800  0.90702400  0.99149000  1
  C  12  1  0.12674400  0.94820500  0.99002800  1
  C  13  1  0.98291100  0.00237300  0.95467700  1
  C  14  1  0.98057800  0.08106700  0.95510700  1
  C  15  1  0.98221000  0.08307300  0.02597400  1
  C  16  1  0.98300100  0.00442500  0.02739800  1
  C  17  1  0.98164600  0.12468600  0.05940300  1
  C  18  1  0.98109900  0.08965900  0.09437900  1
  C  19  1  0.98119500  0.01140200  0.09755600  1
  C  20  1  0.98233500  0.97027900  0.06354900  1
  C  21  1  0.98425700  0.96638000  0.91901100  1
  C  22  1  0.98271100  0.00582800  0.88446500  1
  C  23  1  0.97844100  0.08410100  0.88668700  1
  C  24  1  0.97786200  0.12089700  0.92117800  1
  C  37  1  0.98287400  0.95929500  0.99135000  1
  C  38  1  0.98056900  0.12462600  0.99024800  1
  C  41  1  0.98058200  0.79450900  0.99730500  1
  C  44  1  0.97885700  0.97680300  0.13290600  1
  C  45  1  0.26503800  0.94043200  0.98730500  1
  C  46  1  0.98743400  0.96975300  0.84952600  1
  C  50  1  0.70081600  0.95006000  0.99065700  1
  C  52  1  0.91428700  0.90872000  0.49194200  1
  C  53  1  0.83593200  0.91191100  0.49542900  1
  C  54  1  0.83804200  0.05303900  0.49509200  1
  C  55  1  0.91647400  0.05355200  0.49181100  1
  C  56  1  0.95253900  0.12446000  0.49038200  1
  C  57  1  0.91363100  0.19345200  0.49206200  1
  C  58  1  0.83564400  0.18934000  0.49592900  1
  C  59  1  0.79866300  0.12078700  0.49718000  1
  C  60  1  0.79434300  0.84556000  0.49759900  1
  C  61  1  0.82891900  0.77586600  0.49579200  1
  C  62  1  0.90664800  0.76905800  0.49142600  1
  C  63  1  0.94794700  0.83664300  0.48989900  1
  C  64  1  0.00249400  0.97991700  0.45450400  1
  C  65  1  0.08123600  0.98027800  0.45496500  1
  C  66  1  0.08323400  0.97909900  0.52579300  1
  C  67  1  0.00459000  0.97986100  0.52725900  1
  C  68  1  0.12498600  0.97852500  0.55916600  1
  C  69  1  0.09011300  0.97934100  0.59415900  1
  C  70  1  0.01187100  0.98077900  0.59743900  1
  C  71  1  0.97059900  0.98090300  0.56346000  1
  C  72  1  0.96657700  0.97900700  0.41880000  1
  C  73  1  0.00625600  0.97891100  0.38431800  1
  C  74  1  0.08461500  0.98010500  0.38657400  1
  C  75  1  0.12128000  0.98074700  0.42107800  1
  C  88  1  0.95942400  0.98045300  0.49120000  1
  C  89  1  0.12478900  0.97973100  0.49008600  1
  C  92  1  0.79464900  0.98314400  0.49728300  1
  C  95  1  0.97769100  0.98517200  0.63286100  1
  C  96  1  0.93993800  0.69841600  0.48717700  1
  C  97  1  0.97066200  0.97525300  0.34926500  1
  C  101  1  0.95051700  0.26271400  0.49051900  1
  C  103  1  0.98477100  0.99683100  0.20070200  1
  C  104  1  0.04596900  0.96052900  0.21819500  1
  C  105  1  0.04803400  0.95348000  0.25807600  1
  C  106  1  0.99320300  0.98900700  0.28073700  1
  C  107  1  0.93438800  0.02902500  0.26321000  1
  C  108  1  0.92820600  0.02951100  0.22326800  1
  C  109  1  0.10866900  0.91145500  0.27771400  1
  C  113  1  0.10984500  0.93304900  0.19521900  1
  C  117  1  0.88070200  0.07355900  0.28603300  1
  C  121  1  0.86273000  0.06643600  0.20509000  1
  C  127  1  0.99959700  0.98725200  0.70048700  1
  C  128  1  0.96332100  0.92980800  0.72097700  1
  C  129  1  0.95497900  0.93603000  0.76074000  1
  C  130  1  0.99021000  0.99527300  0.78048400  1
  C  131  1  0.02788800  0.05182000  0.75991300  1
  C  132  1  0.03101400  0.04874400  0.71995700  1
  C  133  1  0.91038200  0.88120400  0.78277200  1
  C  137  1  0.93624700  0.86189300  0.70105700  1
  C  141  1  0.06581800  0.11480000  0.77985100  1
  C  145  1  0.06814700  0.11046700  0.69869200  1
  C  151  1  0.40156200  0.91525800  0.99084900  1
  C  152  1  0.44050500  0.97576900  0.00765700  1
  C  153  1  0.52006100  0.98063200  0.00481500  1
  C  154  1  0.56173300  0.92163900  0.98824600  1
  C  155  1  0.52278200  0.86024000  0.97234400  1
  C  156  1  0.44316000  0.85760800  0.97314400  1
  C  157  1  0.56241100  0.04615500  0.01929300  1
  C  161  1  0.39887100  0.03174600  0.03039300  1
  C  165  1  0.56488800  0.79779300  0.95411800  1
  C  169  1  0.40395800  0.79280000  0.95536000  1
  C  175  1  0.91499800  0.56198200  0.49086200  1
  C  176  1  0.97564900  0.52316300  0.50761600  1
  C  177  1  0.98068900  0.44362500  0.50474000  1
  C  178  1  0.92179400  0.40182700  0.48816200  1
  C  179  1  0.86025500  0.44066800  0.47231900  1
  C  180  1  0.85740100  0.52028400  0.47317900  1
  C  181  1  0.04630200  0.40139200  0.51920700  1
  C  185  1  0.03160200  0.56491600  0.53031300  1
  C  189  1  0.79787200  0.39845900  0.45410200  1
  C  193  1  0.79242700  0.55937400  0.45547600  1
  H  25  1  0.97645900  0.11594900  0.86307700  1
  H  26  1  0.97563400  0.17772100  0.92132000  1
  H  27  1  0.98083100  0.18151500  0.05852400  1
  H  28  1  0.97982500  0.12264400  0.11763700  1
  H  29  1  0.98221300  0.91355300  0.06504800  1
  H  30  1  0.98666700  0.90962200  0.91832900  1
  H  31  1  0.83770000  0.00876100  0.98842600  1
  H  32  1  0.72715100  0.80377600  0.99821500  1
  H  33  1  0.84304600  0.74165000  0.99998800  1
  H  34  1  0.12972200  0.00467200  0.98724000  1
  H  35  1  0.11635000  0.73795700  0.00032000  1
  H  36  1  0.23383400  0.79620800  0.99726000  1
  H  39  1  0.02903800  0.16124800  0.98969200  1
  H  40  1  0.93064300  0.15926800  0.99032000  1
  H  42  1  0.97996100  0.76350800  0.02357900  1
  H  43  1  0.98025300  0.75451000  0.97431000  1
  H  47  1  0.99754500  0.91563300  0.84910300  1
  H  48  1  0.97164100  0.92215500  0.13431000  1
  H  49  1  0.26779700  0.99199900  0.97755800  1
  H  51  1  0.70114900  0.00495200  0.98925600  1
  H  76  1  0.11656800  0.97952400  0.36297200  1
  H  77  1  0.17814600  0.98095700  0.42126200  1
  H  78  1  0.18182000  0.97821700  0.55823900  1
  H  79  1  0.12328500  0.97992600  0.61735900  1
  H  80  1  0.91389800  0.98232900  0.56501800  1
  H  81  1  0.90978000  0.97819300  0.41802700  1
  H  82  1  0.00917800  0.12561500  0.48820400  1
  H  83  1  0.80434300  0.23647200  0.49819900  1
  H  84  1  0.74208000  0.12070600  0.50000800  1
  H  85  1  0.00439800  0.83351700  0.48707400  1
  H  86  1  0.73777500  0.84750400  0.50034900  1
  H  87  1  0.79577600  0.72987100  0.49725000  1
  H  90  1  0.16045000  0.93054100  0.48963400  1
  H  91  1  0.16039700  0.02897200  0.49005200  1
  H  93  1  0.76375100  0.98385000  0.52358500  1
  H  94  1  0.75456400  0.98356300  0.47432600  1
  H  98  1  0.91777400  0.95975200  0.34815900  1
  H  99  1  0.92359700  0.99569400  0.63436600  1
  H  100  1  0.99133200  0.69559200  0.47720200  1
  H  102  1  0.00542000  0.26241600  0.48920600  1
  H  110  1  0.14536900  0.87987600  0.25959800  1
  H  111  1  0.08428100  0.87137800  0.29703000  1
  H  112  1  0.14307000  0.95020100  0.29351200  1
  H  114  1  0.10765800  0.94816500  0.16586600  1
  H  115  1  0.11224400  0.87256300  0.19655600  1
  H  116  1  0.16169500  0.95616900  0.20590600  1
  H  118  1  0.89565900  0.07903200  0.31526600  1
  H  119  1  0.82572800  0.04824600  0.28472400  1
  H  120  1  0.87739900  0.13021200  0.27540200  1
  H  122  1  0.85870600  0.05705400  0.17510600  1
  H  123  1  0.86532700  0.12632200  0.20945100  1
  H  124  1  0.81124800  0.04514700  0.21705300  1
  H  134  1  0.87494300  0.84549600  0.76598600  1
  H  135  1  0.87328400  0.91012400  0.80199300  1
  H  136  1  0.94764600  0.84541100  0.79863800  1
  H  138  1  0.95393800  0.85779100  0.67208300  1
  H  139  1  0.87567400  0.86088100  0.70120500  1
  H  140  1  0.95726900  0.81221500  0.71496300  1
  H  142  1  0.06548200  0.11076400  0.81014600  1
  H  143  1  0.03906000  0.16722100  0.77264500  1
  H  144  1  0.12416000  0.11728000  0.77177700  1
  H  146  1  0.06415300  0.10590800  0.66844300  1
  H  147  1  0.12712800  0.11227400  0.70554600  1
  H  148  1  0.04280900  0.16354800  0.70595900  1
  H  158  1  0.52889200  0.08989100  0.03163600  1
  H  159  1  0.59228700  0.07211500  0.99625500  1
  H  160  1  0.60186200  0.02831100  0.04061400  1
  H  162  1  0.34106000  0.01803100  0.03552800  1
  H  163  1  0.40032500  0.08558300  0.01642300  1
  H  164  1  0.42410900  0.03670200  0.05798800  1
  H  166  1  0.62477800  0.80507300  0.95319400  1
  H  167  1  0.54743000  0.79154300  0.92514100  1
  H  168  1  0.55434300  0.74602700  0.96903500  1
  H  170  1  0.34368100  0.79519300  0.95632700  1
  H  171  1  0.42023900  0.74135300  0.96921000  1
  H  172  1  0.41844200  0.78935000  0.92585200  1
  H  182  1  0.08997300  0.43498900  0.53155200  1
  H  183  1  0.07230800  0.37158000  0.49616100  1
  H  184  1  0.02853800  0.36189600  0.54052000  1
  H  186  1  0.01782200  0.62272200  0.53542800  1
  H  187  1  0.08542100  0.56351600  0.51632600  1
  H  188  1  0.03664000  0.53972200  0.55791500  1
  H  190  1  0.80534000  0.33859300  0.45311400  1
  H  191  1  0.79147500  0.41600700  0.42514600  1
  H  192  1  0.74612900  0.40879400  0.46906900  1
  H  194  1  0.79464300  0.61965700  0.45650300  1
  H  195  1  0.74106600  0.54288900  0.46934000  1
  H  196  1  0.78894100  0.54499700  0.42595500  1
  N  125  1  0.98524300  0.01323500  0.16388300  1
  N  126  1  0.00479400  0.98827100  0.31814200  1
  N  149  1  0.01483800  0.98093400  0.66371600  1
  N  150  1  0.98517400  0.00469000  0.81795800  1
  N  173  1  0.32692300  0.90561500  0.99315400  1
  N  174  1  0.63711800  0.91664700  0.98969900  1
  N  197  1  0.90517100  0.63658500  0.49322400  1
  N  198  1  0.91705800  0.32640600  0.48956400  1
