# generated using pymatgen
data_Cr3H18C36O13
_symmetry_space_group_name_H-M   'P 1'
_cell_length_a   11.00615006
_cell_length_b   11.00618000
_cell_length_c   18.87420000
_cell_angle_alpha   89.99993000
_cell_angle_beta   89.99995000
_cell_angle_gamma   60.00009000
_symmetry_Int_Tables_number   1
_chemical_formula_structural   Cr3H18C36O13
_chemical_formula_sum   'Cr6 H36 C72 O26'
_cell_volume   1980.02930986
_cell_formula_units_Z   2
loop_
 _symmetry_equiv_pos_site_id
 _symmetry_equiv_pos_as_xyz
  1  'x, y, z'
loop_
 _atom_site_type_symbol
 _atom_site_label
 _atom_site_symmetry_multiplicity
 _atom_site_fract_x
 _atom_site_fract_y
 _atom_site_fract_z
 _atom_site_occupancy
  Cr  Cr0  1  0.45868000  0.77277000  0.74934000  1
  Cr  Cr1  1  0.77277000  0.76855000  0.74934000  1
  Cr  Cr2  1  0.76855000  0.45868000  0.74934000  1
  Cr  Cr3  1  0.23145000  0.22723000  0.25066000  1
  Cr  Cr4  1  0.54132000  0.23145000  0.25066000  1
  Cr  Cr5  1  0.22723000  0.54132000  0.25066000  1
  H  H6  1  0.87925000  0.37677000  0.94986000  1
  H  H7  1  0.37677000  0.74398000  0.94986000  1
  H  H8  1  0.74397000  0.87926000  0.94986000  1
  H  H9  1  0.36389000  0.72075000  0.07575000  1
  H  H10  1  0.91536000  0.36389000  0.07575000  1
  H  H11  1  0.72075000  0.91536000  0.07575000  1
  H  H12  1  0.01798000  0.73858000  0.12078000  1
  H  H13  1  0.73858000  0.24344000  0.12078000  1
  H  H14  1  0.24343000  0.01799000  0.12078000  1
  H  H15  1  0.64936000  0.26270000  0.86374000  1
  H  H16  1  0.08795000  0.64935000  0.86374000  1
  H  H17  1  0.26270000  0.08794000  0.86374000  1
  H  H18  1  0.85184000  0.39725000  0.35850000  1
  H  H19  1  0.39725000  0.75091000  0.35850000  1
  H  H20  1  0.75091000  0.85184000  0.35850000  1
  H  H21  1  0.23470000  0.77954000  0.60411000  1
  H  H22  1  0.98577000  0.23470000  0.60411000  1
  H  H23  1  0.77954000  0.98576000  0.60411000  1
  H  H24  1  0.82727000  0.20393000  0.40485000  1
  H  H25  1  0.20393000  0.96880000  0.40485000  1
  H  H26  1  0.96880000  0.82726000  0.40484000  1
  H  H27  1  0.13208000  0.98220000  0.52995000  1
  H  H28  1  0.88573000  0.13207000  0.52995000  1
  H  H29  1  0.98221000  0.88571000  0.52995000  1
  H  H30  1  0.10334000  0.86020000  0.04912000  1
  H  H31  1  0.86020000  0.03645000  0.04912000  1
  H  H32  1  0.03646000  0.10334000  0.04912000  1
  H  H33  1  0.82094000  0.04523000  0.91982000  1
  H  H34  1  0.13383000  0.82094000  0.91982000  1
  H  H35  1  0.04523000  0.13383000  0.91982000  1
  H  H36  1  0.07623000  0.62467000  0.57438000  1
  H  H37  1  0.62468000  0.29910000  0.57438000  1
  H  H38  1  0.29910000  0.07623000  0.57438000  1
  H  H39  1  0.60231000  0.27300000  0.44728000  1
  H  H40  1  0.12470000  0.60230000  0.44728000  1
  H  H41  1  0.27300000  0.12470000  0.44728000  1
  C  C42  1  0.54581000  0.93322000  0.85440000  1
  C  C43  1  0.93323000  0.52096000  0.85440000  1
  C  C44  1  0.52097000  0.54580000  0.85440000  1
  C  C45  1  0.48013000  0.06001000  0.14751000  1
  C  C46  1  0.45986000  0.48014000  0.14751000  1
  C  C47  1  0.06000000  0.45987000  0.14751000  1
  C  C48  1  0.04489000  0.56383000  0.54192000  1
  C  C49  1  0.56384000  0.39128000  0.54192000  1
  C  C50  1  0.39128000  0.04489000  0.54192000  1
  C  C51  1  0.55827000  0.37760000  0.46913000  1
  C  C52  1  0.06414000  0.55825000  0.46913000  1
  C  C53  1  0.37761000  0.06413000  0.46913000  1
  C  C54  1  0.87998000  0.36632000  0.41323000  1
  C  C55  1  0.36632000  0.75371000  0.41323000  1
  C  C56  1  0.75370000  0.87997000  0.41323000  1
  C  C57  1  0.28256000  0.76900000  0.55290000  1
  C  C58  1  0.94845000  0.28255000  0.55291000  1
  C  C59  1  0.76900000  0.94844000  0.55290000  1
  C  C60  1  0.86440000  0.25723000  0.43919000  1
  C  C61  1  0.25723000  0.87838000  0.43918000  1
  C  C62  1  0.87837000  0.86439000  0.43918000  1
  C  C63  1  0.21584000  0.88573000  0.50906000  1
  C  C64  1  0.89844000  0.21583000  0.50906000  1
  C  C65  1  0.88573000  0.89843000  0.50906000  1
  C  C66  1  0.54575000  0.93803000  0.64561000  1
  C  C67  1  0.93803000  0.51622000  0.64561000  1
  C  C68  1  0.51622000  0.54575000  0.64561000  1
  C  C69  1  0.48052000  0.06190000  0.35368000  1
  C  C70  1  0.45758000  0.48052000  0.35368000  1
  C  C71  1  0.06190000  0.45758000  0.35368000  1
  C  C72  1  0.99487000  0.50773000  0.07730000  1
  C  C73  1  0.50773000  0.49740000  0.07730000  1
  C  C74  1  0.49740000  0.99487000  0.07730000  1
  C  C75  1  0.50767000  0.52029000  0.92928000  1
  C  C76  1  0.97204000  0.50768000  0.92928000  1
  C  C77  1  0.52028000  0.97205000  0.92928000  1
  C  C78  1  0.01802000  0.60290000  0.03574000  1
  C  C79  1  0.60290000  0.37908000  0.03574000  1
  C  C80  1  0.37908000  0.01802000  0.03574000  1
  C  C81  1  0.59130000  0.38774000  0.96093000  1
  C  C82  1  0.02095000  0.59130000  0.96093000  1
  C  C83  1  0.38775000  0.02095000  0.96093000  1
  C  C84  1  0.92669000  0.43372000  0.97232000  1
  C  C85  1  0.43372000  0.63959000  0.97232000  1
  C  C86  1  0.63959000  0.92669000  0.97232000  1
  C  C87  1  0.43087000  0.62785000  0.04494000  1
  C  C88  1  0.94128000  0.43087000  0.04494000  1
  C  C89  1  0.62785000  0.94128000  0.04494000  1
  C  C90  1  0.03949000  0.70840000  0.06581000  1
  C  C91  1  0.70840000  0.25211000  0.06581000  1
  C  C92  1  0.25211000  0.03949000  0.06581000  1
  C  C93  1  0.66561000  0.26412000  0.92013000  1
  C  C94  1  0.07027000  0.66561000  0.92013000  1
  C  C95  1  0.26412000  0.07027000  0.92013000  1
  C  C96  1  0.08259000  0.78427000  0.02434000  1
  C  C97  1  0.78427000  0.13314000  0.02434000  1
  C  C98  1  0.13314000  0.08259000  0.02434000  1
  C  C99  1  0.76206000  0.13837000  0.95180000  1
  C  C100  1  0.09957000  0.76205000  0.95180000  1
  C  C101  1  0.13838000  0.09956000  0.95180000  1
  C  C102  1  0.00747000  0.49538000  0.42528000  1
  C  C103  1  0.49538000  0.49715000  0.42528000  1
  C  C104  1  0.49715000  0.00747000  0.42528000  1
  C  C105  1  0.48615000  0.52316000  0.57257000  1
  C  C106  1  0.99069000  0.48615000  0.57257000  1
  C  C107  1  0.52316000  0.99069000  0.57257000  1
  C  C108  1  0.94271000  0.42607000  0.45552000  1
  C  C109  1  0.42607000  0.63122000  0.45552000  1
  C  C110  1  0.63122000  0.94271000  0.45552000  1
  C  C111  1  0.39841000  0.64162000  0.52839000  1
  C  C112  1  0.95997000  0.39841000  0.52839000  1
  C  C113  1  0.64163000  0.95996000  0.52839000  1
  O  O114  1  0.42759000  0.66145000  0.82899000  1
  O  O115  1  0.66145000  0.91096000  0.82899000  1
  O  O116  1  0.91096000  0.42759000  0.82899000  1
  O  O117  1  0.08904000  0.33855000  0.17101000  1
  O  O118  1  0.57241000  0.08904000  0.17101000  1
  O  O119  1  0.33855000  0.57241000  0.17101000  1
  O  O120  1  0.47147000  0.88878000  0.82440000  1
  O  O121  1  0.88878000  0.63975000  0.82440000  1
  O  O122  1  0.63975000  0.47147000  0.82440000  1
  O  O123  1  0.36025000  0.11122000  0.17560000  1
  O  O124  1  0.52853000  0.36025000  0.17560000  1
  O  O125  1  0.11122000  0.52853000  0.17560000  1
  O  O126  1  0.42760000  0.66307000  0.66846000  1
  O  O127  1  0.66307000  0.90933000  0.66846000  1
  O  O128  1  0.90933000  0.42760000  0.66846000  1
  O  O129  1  0.09067000  0.33693000  0.33154000  1
  O  O130  1  0.57240000  0.09067000  0.33154000  1
  O  O131  1  0.33693000  0.57240000  0.33154000  1
  O  O132  1  0.47148000  0.89028000  0.67559000  1
  O  O133  1  0.89028000  0.63824000  0.67559000  1
  O  O134  1  0.63824000  0.47148000  0.67559000  1
  O  O135  1  0.36176000  0.10972000  0.32441000  1
  O  O136  1  0.52852000  0.36176000  0.32441000  1
  O  O137  1  0.10972000  0.52852000  0.32441000  1
  O  O138  1  0.66666667  0.66666667  0.74937000  1
  O  O139  1  0.33333333  0.33333333  0.25063000  1
