# generated using pymatgen
data_H24C39N8
_symmetry_space_group_name_H-M   'P 1'
_cell_length_a   16.94520000
_cell_length_b   16.94520000
_cell_length_c   50.83590000
_cell_angle_alpha   89.99540000
_cell_angle_beta   89.99770000
_cell_angle_gamma   60.00000000
_symmetry_Int_Tables_number   1
_chemical_formula_structural   H24C39N8
_chemical_formula_sum   'H72 C117 N24'
_cell_volume   12641.38170993
_cell_formula_units_Z   3
loop_
 _symmetry_equiv_pos_site_id
 _symmetry_equiv_pos_as_xyz
  1  'x, y, z'
loop_
 _atom_site_type_symbol
 _atom_site_label
 _atom_site_symmetry_multiplicity
 _atom_site_fract_x
 _atom_site_fract_y
 _atom_site_fract_z
 _atom_site_occupancy
  C  1  1  0.80670400  0.14039350  0.98655500  1
  C  2  1  0.71652900  0.15883450  0.98672700  1
  C  3  1  0.71569300  0.07707900  0.98681600  1
  C  4  1  0.80554700  0.00463800  0.98674200  1
  C  5  1  0.82320800  0.91358400  0.98679800  1
  C  6  1  0.74961400  0.89593000  0.98692300  1
  C  7  1  0.65947300  0.97065350  0.98700700  1
  C  8  1  0.64190500  0.06110700  0.98696300  1
  C  9  1  0.64364400  0.24882650  0.98691000  1
  C  10  1  0.66233000  0.32088800  0.98694800  1
  C  11  1  0.75309700  0.30518300  0.98671300  1
  C  12  1  0.82530000  0.21323100  0.98654800  1
  C  13  1  0.93394800  0.00781850  0.00922900  1
  C  14  1  0.02392700  0.96106250  0.00017300  1
  C  15  1  0.02369200  0.96063200  0.97277500  1
  C  16  1  0.93356500  0.00715000  0.96384000  1
  C  17  1  0.09680900  0.92311650  0.95494700  1
  C  18  1  0.07832900  0.93239450  0.92778000  1
  C  19  1  0.98760300  0.97759150  0.91803700  1
  C  20  1  0.91508600  0.01617800  0.93648200  1
  C  21  1  0.91587600  0.01720650  0.03660900  1
  C  22  1  0.98875500  0.98043950  0.05494100  1
  C  23  1  0.07924200  0.93166300  0.04509000  1
  C  24  1  0.09730700  0.92226650  0.01790000  1
  C  37  1  0.86992100  0.04019150  0.98657900  1
  C  42  1  0.12751800  0.00134450  0.31989200  1
  C  43  1  0.14596100  0.07307850  0.32006300  1
  C  44  1  0.06420300  0.15566850  0.32014900  1
  C  45  1  0.99176000  0.13825700  0.32007500  1
  C  46  1  0.90070800  0.21164950  0.32013000  1
  C  47  1  0.88305300  0.30289600  0.32025400  1
  C  48  1  0.95777800  0.31831550  0.32034000  1
  C  49  1  0.04823000  0.24543000  0.32029700  1
  C  50  1  0.23595100  0.05597200  0.32025200  1
  C  51  1  0.30801200  0.96522200  0.32029100  1
  C  52  1  0.29230500  0.89016350  0.32005100  1
  C  53  1  0.20035700  0.90990700  0.31988600  1
  C  54  1  0.99494200  0.00667200  0.34256300  1
  C  55  1  0.94820200  0.96343500  0.33350600  1
  C  56  1  0.94777600  0.96409850  0.30611000  1
  C  57  1  0.99427400  0.00773050  0.29717300  1
  C  58  1  0.91028700  0.92847500  0.28828400  1
  C  59  1  0.91955400  0.93769350  0.26111600  1
  C  60  1  0.96473600  0.98323350  0.25137100  1
  C  61  1  0.00331700  0.01717050  0.26981700  1
  C  62  1  0.00431900  0.01536400  0.36994500  1
  C  63  1  0.96754900  0.97924850  0.38827600  1
  C  64  1  0.91879300  0.93752000  0.37842500  1
  C  65  1  0.90939500  0.92885750  0.35123600  1
  C  78  1  0.02731700  0.03832700  0.31991300  1
  C  83  1  0.98851300  0.81956150  0.65323100  1
  C  84  1  0.06024400  0.72938500  0.65340600  1
  C  85  1  0.14283700  0.72854950  0.65349700  1
  C  86  1  0.12542600  0.81840400  0.65341600  1
  C  87  1  0.19882000  0.83606100  0.65347100  1
  C  88  1  0.29006300  0.76247250  0.65359900  1
  C  89  1  0.30548400  0.67232600  0.65368900  1
  C  90  1  0.23259800  0.65475900  0.65364800  1
  C  91  1  0.04313300  0.65650400  0.65361300  1
  C  92  1  0.95238700  0.67519150  0.65365800  1
  C  93  1  0.87732700  0.76595800  0.65340200  1
  C  94  1  0.89707600  0.83816000  0.65323100  1
  C  95  1  0.99385200  0.94681050  0.67589800  1
  C  96  1  0.95058300  0.03678750  0.66683600  1
  C  97  1  0.95125800  0.03654400  0.63944000  1
  C  98  1  0.99490800  0.94641200  0.63050900  1
  C  99  1  0.91562900  0.10965350  0.62160800  1
  C  100  1  0.92487700  0.09115600  0.59444200  1
  C  101  1  0.97047400  0.00042950  0.58470300  1
  C  102  1  0.00436900  0.92792550  0.60315200  1
  C  103  1  0.00250600  0.92875050  0.70328000  1
  C  104  1  0.96638300  0.00163350  0.72160800  1
  C  105  1  0.92464500  0.09211750  0.71175100  1
  C  106  1  0.91599200  0.11017650  0.68456100  1
  C  119  1  0.02549700  0.88278100  0.65325100  1
  C  124  1  0.99010400  0.96037750  0.84635400  1
  C  126  1  0.88499500  0.06383500  0.81405900  1
  C  127  1  0.94207000  0.00827200  0.79320900  1
  C  129  1  0.04617200  0.90574550  0.82555500  1
  C  131  1  0.79796700  0.14995600  0.81014900  1
  C  135  1  0.01477900  0.93828900  0.87256200  1
  C  137  1  0.92286800  0.02985950  0.76662000  1
  C  139  1  0.94751700  0.99795500  0.17968800  1
  C  141  1  0.05093500  0.99967400  0.14739300  1
  C  142  1  0.99538500  0.99814150  0.12654400  1
  C  144  1  0.89289700  0.99649200  0.15888900  1
  C  146  1  0.13703400  0.00063000  0.14348100  1
  C  150  1  0.92544900  0.99533800  0.20589500  1
  C  152  1  0.01698900  0.99571300  0.09995200  1
  C  154  1  0.98518400  0.00291300  0.51302100  1
  C  156  1  0.98666300  0.89789100  0.48072900  1
  C  157  1  0.98523500  0.95492600  0.45987700  1
  C  159  1  0.98382500  0.05895000  0.49221900  1
  C  161  1  0.98743300  0.81092950  0.47682200  1
  C  165  1  0.98258800  0.02759350  0.53922700  1
  C  167  1  0.98283300  0.93573800  0.43328800  1
  C  169  1  0.74975100  0.52445700  0.98652250  1
  C  171  1  0.86831300  0.56414500  0.98687450  1
  C  172  1  0.80210400  0.65878550  0.98685500  1
  C  174  1  0.68478800  0.61852100  0.98655500  1
  C  176  1  0.96768000  0.52894750  0.98701950  1
  C  180  1  0.72146400  0.46016750  0.98613350  1
  C  182  1  0.82149600  0.72989800  0.98692300  1
  C  184  1  0.51158100  0.67423550  0.31985400  1
  C  186  1  0.55127000  0.51598100  0.32020800  1
  C  187  1  0.64590700  0.48755300  0.32018900  1
  C  189  1  0.60564700  0.64513150  0.31989000  1
  C  191  1  0.51607300  0.45181200  0.32035000  1
  C  195  1  0.44729100  0.76681050  0.31945700  1
  C  197  1  0.71702200  0.39704750  0.32025800  1
  C  199  1  0.66140300  0.76261300  0.65318400  1
  C  201  1  0.50315300  0.88116950  0.65355400  1
  C  202  1  0.47472400  0.81495850  0.65353600  1
  C  204  1  0.63230500  0.69764700  0.65322300  1
  C  206  1  0.43898100  0.98053850  0.65369900  1
  C  210  1  0.75397500  0.73433250  0.65275500  1
  C  212  1  0.38421700  0.83434850  0.65360500  1
  H  25  1  0.13325200  0.90137350  0.05770100  1
  H  26  1  0.16290800  0.88686450  0.01129500  1
  H  27  1  0.16258100  0.89033950  0.96146800  1
  H  28  1  0.13232500  0.90661800  0.91513300  1
  H  29  1  0.84900100  0.05037350  0.93012800  1
  H  30  1  0.84991300  0.05122850  0.04306400  1
  H  31  1  0.88901400  0.86111800  0.98671800  1
  H  32  1  0.60528600  0.95978950  0.98708800  1
  H  33  1  0.57634800  0.11399100  0.98701200  1
  H  34  1  0.89150300  0.19889500  0.98648300  1
  H  35  1  0.57781800  0.26228200  0.98713100  1
  H  36  1  0.60768500  0.38521650  0.98727200  1
  H  66  1  0.88851100  0.91378600  0.39103600  1
  H  67  1  0.87403500  0.89861800  0.34462800  1
  H  68  1  0.87749800  0.89549200  0.29480500  1
  H  69  1  0.89377800  0.90947100  0.24847000  1
  H  70  1  0.03750400  0.04906700  0.26346100  1
  H  71  1  0.03833300  0.04731100  0.37639700  1
  H  72  1  0.84824400  0.19830750  0.32004700  1
  H  73  1  0.94691400  0.38336350  0.32042300  1
  H  74  1  0.10111600  0.25810050  0.32035000  1
  H  75  1  0.18602200  0.85804250  0.31982100  1
  H  76  1  0.24940900  0.10834050  0.32047200  1
  H  77  1  0.37233900  0.95553950  0.32062000  1
  H  107  1  0.90087900  0.14614000  0.72436000  1
  H  108  1  0.88572200  0.17577550  0.67795200  1
  H  109  1  0.88262100  0.17542650  0.62812500  1
  H  110  1  0.89664800  0.14514900  0.58179100  1
  H  111  1  0.03627100  0.86183950  0.59680200  1
  H  112  1  0.03447200  0.86278700  0.70973600  1
  H  113  1  0.18547700  0.90186900  0.65338600  1
  H  114  1  0.37053400  0.61814150  0.65377600  1
  H  115  1  0.24526600  0.58920650  0.65370100  1
  H  116  1  0.84521100  0.90436250  0.65316400  1
  H  117  1  0.09550500  0.59067650  0.65384700  1
  H  118  1  0.94269700  0.62055050  0.65401200  1
  H  130  1  0.10643100  0.84738500  0.82907300  1
  H  132  1  0.76600800  0.18092000  0.82887900  1
  H  133  1  0.75063000  0.13680500  0.79904300  1
  H  134  1  0.81013700  0.19855550  0.79936600  1
  H  136  1  0.07216900  0.88049450  0.87623900  1
  H  138  1  0.86456500  0.08531300  0.76207000  1
  H  145  1  0.83458200  0.99450750  0.16240600  1
  H  147  1  0.16798500  0.00164600  0.16221200  1
  H  148  1  0.12385500  0.06112050  0.13237300  1
  H  149  1  0.18565400  0.93986600  0.13270300  1
  H  151  1  0.86765700  0.99573450  0.20957400  1
  H  153  1  0.07243500  0.99857600  0.09540300  1
  H  160  1  0.98197500  0.11918300  0.49573600  1
  H  162  1  0.98836600  0.77900200  0.49555300  1
  H  163  1  0.04789600  0.76353400  0.46572000  1
  H  164  1  0.92664100  0.82318650  0.46604000  1
  H  166  1  0.98303700  0.08496300  0.54290300  1
  H  168  1  0.98567500  0.87743950  0.42874000  1
  H  175  1  0.61636800  0.64164400  0.98641950  1
  H  177  1  0.00593400  0.45460900  0.98701750  1
  H  178  1  0.98652600  0.55279150  0.00457500  1
  H  179  1  0.98708500  0.55282300  0.96957900  1
  H  181  1  0.65480700  0.48488400  0.98516250  1
  H  183  1  0.88560000  0.71622200  0.98695000  1
  H  190  1  0.62876700  0.69043100  0.31975400  1
  H  192  1  0.44173100  0.48790000  0.32034600  1
  H  193  1  0.53991600  0.40911500  0.33790700  1
  H  194  1  0.53994600  0.40854600  0.30291000  1
  H  196  1  0.47200500  0.80874750  0.31845800  1
  H  198  1  0.70334500  0.34661950  0.32028500  1
  H  205  1  0.67760600  0.62922650  0.65308000  1
  H  207  1  0.47506400  0.01879100  0.65369500  1
  H  208  1  0.39629800  0.99937350  0.67125800  1
  H  209  1  0.39569300  0.99994500  0.63626100  1
  H  211  1  0.79591100  0.66769650  0.65167500  1
  H  213  1  0.33379000  0.89845300  0.65363400  1
  N  38  1  0.96895300  0.98906100  0.89217600  1
  N  39  1  0.77366700  0.37263700  0.98688250  1
  N  40  1  0.75721300  0.81372900  0.98691000  1
  N  41  1  0.97097500  0.98795550  0.08086200  1
  N  79  1  0.97620600  0.99041550  0.22550900  1
  N  80  1  0.35976200  0.80213750  0.32022600  1
  N  81  1  0.80085100  0.37749950  0.32024200  1
  N  82  1  0.97507100  0.98951400  0.41419500  1
  N  120  1  0.97763100  0.98177650  0.55884300  1
  N  121  1  0.78930500  0.78652700  0.65359100  1
  N  122  1  0.36467100  0.77006600  0.65358700  1
  N  123  1  0.97664600  0.98385400  0.74752700  1
  N  125  1  0.91211500  0.03712950  0.83934400  1
  N  128  1  0.02044800  0.93165000  0.80026100  1
  N  140  1  0.02424400  0.99923900  0.17267900  1
  N  143  1  0.91880000  0.99631400  0.13359600  1
  N  155  1  0.98628800  0.92499200  0.50601400  1
  N  158  1  0.98358900  0.03325100  0.46692600  1
  N  170  1  0.83885500  0.50224700  0.98669200  1
  N  173  1  0.71320500  0.68032600  0.98670300  1
  N  185  1  0.48936900  0.60734050  0.32002300  1
  N  188  1  0.66744800  0.55491100  0.32003900  1
  N  200  1  0.59450700  0.85171600  0.65335900  1
  N  203  1  0.54208400  0.72606200  0.65337900  1
