# generated using pymatgen
data_Cd3H16(C2O)16
_symmetry_space_group_name_H-M   'P 1'
_cell_length_a   11.30884000
_cell_length_b   11.32374000
_cell_length_c   15.25136000
_cell_angle_alpha   96.89881000
_cell_angle_beta   96.83572000
_cell_angle_gamma   104.62604000
_symmetry_Int_Tables_number   1
_chemical_formula_structural   Cd3H16(C2O)16
_chemical_formula_sum   'Cd6 H32 C64 O32'
_cell_volume   1853.27652558
_cell_formula_units_Z   2
loop_
 _symmetry_equiv_pos_site_id
 _symmetry_equiv_pos_as_xyz
  1  'x, y, z'
loop_
 _atom_site_type_symbol
 _atom_site_label
 _atom_site_symmetry_multiplicity
 _atom_site_fract_x
 _atom_site_fract_y
 _atom_site_fract_z
 _atom_site_occupancy
  Cd  Cd0  1  0.55041000  0.13191000  0.42484000  1
  Cd  Cd1  1  0.86826000  0.44936000  0.07470000  1
  Cd  Cd2  1  0.44959000  0.86809000  0.57517000  1
  Cd  Cd3  1  0.13174000  0.55064000  0.92530000  1
  Cd  Cd4  1  0.32220000  0.67758000  0.75077000  1
  Cd  Cd5  1  0.67780000  0.32242000  0.24924000  1
  H  H6  1  0.17282000  0.94394000  0.55958000  1
  H  H7  1  0.37361000  0.32168000  0.65884000  1
  H  H8  1  0.01143000  0.96294000  0.65582000  1
  H  H9  1  0.03441000  0.16398000  0.75459000  1
  H  H10  1  0.58096000  0.81876000  0.91786000  1
  H  H11  1  0.77152000  0.97718000  0.99819000  1
  H  H12  1  0.39680000  0.86518000  0.14519000  1
  H  H13  1  0.77292000  0.07882000  0.15443000  1
  H  H14  1  0.05677000  0.82760000  0.94071000  1
  H  H15  1  0.67887000  0.62615000  0.84148000  1
  H  H16  1  0.03727000  0.98843000  0.84433000  1
  H  H17  1  0.83593000  0.96494000  0.74575000  1
  H  H18  1  0.18115000  0.41859000  0.58223000  1
  H  H19  1  0.02275000  0.22841000  0.50163000  1
  H  H20  1  0.13438000  0.60292000  0.35521000  1
  H  H21  1  0.92102000  0.22711000  0.34547000  1
  H  H22  1  0.82718000  0.05606000  0.44042000  1
  H  H23  1  0.62639000  0.67832000  0.34117000  1
  H  H24  1  0.98857000  0.03706000  0.34418000  1
  H  H25  1  0.96559000  0.83602000  0.24542000  1
  H  H26  1  0.41903000  0.18124000  0.08215000  1
  H  H27  1  0.22848000  0.02282000  0.00181000  1
  H  H28  1  0.60319000  0.13483000  0.85481000  1
  H  H29  1  0.22707000  0.92118000  0.84557000  1
  H  H30  1  0.94323000  0.17240000  0.05929000  1
  H  H31  1  0.32113000  0.37385000  0.15853000  1
  H  H32  1  0.96272000  0.01157000  0.15567000  1
  H  H33  1  0.16407000  0.03507000  0.25426000  1
  H  H34  1  0.81885000  0.58141000  0.41777000  1
  H  H35  1  0.97725000  0.77159000  0.49837000  1
  H  H36  1  0.86562000  0.39708000  0.64479000  1
  H  H37  1  0.07898000  0.77289000  0.65454000  1
  C  C38  1  0.37602000  0.12254000  0.54444000  1
  C  C39  1  0.28267000  0.13131000  0.60399000  1
  C  C40  1  0.18046000  0.03006000  0.60302000  1
  C  C41  1  0.29536000  0.24290000  0.65924000  1
  C  C42  1  0.09107000  0.04114000  0.65724000  1
  C  C43  1  0.10341000  0.15254000  0.71258000  1
  C  C44  1  0.20555000  0.25394000  0.71326000  1
  C  C45  1  0.21580000  0.37746000  0.76601000  1
  C  C46  1  0.36299000  0.74242000  0.97728000  1
  C  C47  1  0.58360000  0.86494000  0.98517000  1
  C  C48  1  0.47726000  0.83481000  0.02597000  1
  C  C49  1  0.69022000  0.95299000  0.03091000  1
  C  C50  1  0.47877000  0.88972000  0.11328000  1
  C  C51  1  0.69169000  0.00922000  0.11768000  1
  C  C52  1  0.58657000  0.97607000  0.15954000  1
  C  C53  1  0.58914000  0.03067000  0.25337000  1
  C  C54  1  0.87752000  0.62350000  0.95548000  1
  C  C55  1  0.86925000  0.71727000  0.89627000  1
  C  C56  1  0.97049000  0.81954000  0.89726000  1
  C  C57  1  0.75749000  0.70455000  0.84111000  1
  C  C58  1  0.95920000  0.90872000  0.84303000  1
  C  C59  1  0.84763000  0.89622000  0.78779000  1
  C  C60  1  0.74623000  0.79420000  0.78718000  1
  C  C61  1  0.62237000  0.78442000  0.73494000  1
  C  C62  1  0.25736000  0.63667000  0.52429000  1
  C  C63  1  0.13503000  0.41614000  0.51496000  1
  C  C64  1  0.16529000  0.52267000  0.47462000  1
  C  C65  1  0.04695000  0.30969000  0.46899000  1
  C  C66  1  0.11023000  0.52123000  0.38730000  1
  C  C67  1  0.99059000  0.30837000  0.38222000  1
  C  C68  1  0.02362000  0.41364000  0.34066000  1
  C  C69  1  0.96939000  0.41245000  0.24675000  1
  C  C70  1  0.62398000  0.87746000  0.45557000  1
  C  C71  1  0.71733000  0.86869000  0.39601000  1
  C  C72  1  0.81954000  0.96994000  0.39698000  1
  C  C73  1  0.70464000  0.75710000  0.34076000  1
  C  C74  1  0.90893000  0.95886000  0.34277000  1
  C  C75  1  0.89659000  0.84746000  0.28742000  1
  C  C76  1  0.79445000  0.74606000  0.28674000  1
  C  C77  1  0.78420000  0.62254000  0.23399000  1
  C  C78  1  0.63701000  0.25758000  0.02272000  1
  C  C79  1  0.41640000  0.13506000  0.01483000  1
  C  C80  1  0.52274000  0.16520000  0.97404000  1
  C  C81  1  0.30978000  0.04701000  0.96909000  1
  C  C82  1  0.52123000  0.11028000  0.88672000  1
  C  C83  1  0.30831000  0.99078000  0.88232000  1
  C  C84  1  0.41343000  0.02393000  0.84046000  1
  C  C85  1  0.41085000  0.96933000  0.74663000  1
  C  C86  1  0.12248000  0.37650000  0.04453000  1
  C  C87  1  0.13075000  0.28273000  0.10374000  1
  C  C88  1  0.02951000  0.18046000  0.10274000  1
  C  C89  1  0.24251000  0.29546000  0.15890000  1
  C  C90  1  0.04080000  0.09128000  0.15697000  1
  C  C91  1  0.15237000  0.10378000  0.21221000  1
  C  C92  1  0.25376000  0.20580000  0.21282000  1
  C  C93  1  0.37763000  0.21558000  0.26507000  1
  C  C94  1  0.74264000  0.36333000  0.47572000  1
  C  C95  1  0.86497000  0.58386000  0.48504000  1
  C  C96  1  0.83471000  0.47733000  0.52539000  1
  C  C97  1  0.95305000  0.69031000  0.53102000  1
  C  C98  1  0.88977000  0.47877000  0.61270000  1
  C  C99  1  0.00941000  0.69163000  0.61779000  1
  C  C100  1  0.97638000  0.58637000  0.65935000  1
  C  C101  1  0.03061000  0.58755000  0.75325000  1
  O  O102  1  0.37494000  0.01697000  0.50199000  1
  O  O103  1  0.45402000  0.22018000  0.53385000  1
  O  O104  1  0.26195000  0.73214000  0.00865000  1
  O  O105  1  0.36875000  0.67259000  0.90627000  1
  O  O106  1  0.27207000  0.47006000  0.73263000  1
  O  O107  1  0.16684000  0.38077000  0.83626000  1
  O  O108  1  0.67244000  0.13146000  0.28896000  1
  O  O109  1  0.51026000  0.97631000  0.29796000  1
  O  O110  1  0.98267000  0.62530000  0.99931000  1
  O  O111  1  0.77978000  0.54401000  0.96427000  1
  O  O112  1  0.26783000  0.73791000  0.49335000  1
  O  O113  1  0.32656000  0.63055000  0.59551000  1
  O  O114  1  0.52999000  0.72922000  0.76909000  1
  O  O115  1  0.61890000  0.83304000  0.66458000  1
  O  O116  1  0.86944000  0.32850000  0.20943000  1
  O  O117  1  0.02357000  0.49367000  0.20391000  1
  O  O118  1  0.62506000  0.98303000  0.49801000  1
  O  O119  1  0.54598000  0.77982000  0.46615000  1
  O  O120  1  0.73805000  0.26786000  0.99136000  1
  O  O121  1  0.63125000  0.32741000  0.09373000  1
  O  O122  1  0.72793000  0.52994000  0.26738000  1
  O  O123  1  0.83316000  0.61923000  0.16374000  1
  O  O124  1  0.32756000  0.86854000  0.71104000  1
  O  O125  1  0.48974000  0.02369000  0.70204000  1
  O  O126  1  0.01732000  0.37470000  0.00070000  1
  O  O127  1  0.22022000  0.45599000  0.03574000  1
  O  O128  1  0.73217000  0.26209000  0.50665000  1
  O  O129  1  0.67344000  0.36945000  0.40450000  1
  O  O130  1  0.47001000  0.27078000  0.23091000  1
  O  O131  1  0.38110000  0.16696000  0.33542000  1
  O  O132  1  0.13056000  0.67150000  0.79057000  1
  O  O133  1  0.97643000  0.50633000  0.79610000  1
