# generated using pymatgen
data_H9C13N4O3
_symmetry_space_group_name_H-M   'P 1'
_cell_length_a   15.13862500
_cell_length_b   15.13860000
_cell_length_c   90.83190000
_cell_angle_alpha   90.00000000
_cell_angle_beta   90.00000000
_cell_angle_gamma   119.99983612
_symmetry_Int_Tables_number   1
_chemical_formula_structural   H9C13N4O3
_chemical_formula_sum   'H108 C156 N48 O36'
_cell_volume   18027.76519008
_cell_formula_units_Z   12
loop_
 _symmetry_equiv_pos_site_id
 _symmetry_equiv_pos_as_xyz
  1  'x, y, z'
loop_
 _atom_site_type_symbol
 _atom_site_label
 _atom_site_symmetry_multiplicity
 _atom_site_fract_x
 _atom_site_fract_y
 _atom_site_fract_z
 _atom_site_occupancy
  C  1  1  0.02547600  0.99665200  0.92302400  1
  C  2  1  0.92343300  0.91445600  0.92181800  1
  C  3  1  0.86264450  0.85963150  0.93407200  1
  C  4  1  0.90748100  0.89083800  0.94815300  1
  C  5  1  0.00889000  0.97051600  0.95004100  1
  C  6  1  0.06575200  0.02329000  0.93750100  1
  C  10  1  0.08513800  0.04812200  0.91031600  1
  C  11  1  0.06392500  0.99942300  0.89635600  1
  C  12  1  0.12388850  0.04733950  0.88385500  1
  C  13  1  0.20484350  0.14839650  0.88512700  1
  C  14  1  0.22957150  0.20304650  0.89857600  1
  C  15  1  0.16923000  0.14960100  0.91097800  1
  C  19  1  0.31347700  0.30505600  0.89901400  1
  C  20  1  0.10330000  0.99715600  0.87004600  1
  C  21  1  0.05371650  0.99230750  0.96427100  1
  C  22  1  0.76165550  0.77560150  0.93265500  1
  C  27  1  0.96811950  0.98351650  0.25751900  1
  C  28  1  0.98866300  0.08584300  0.25629300  1
  C  29  1  0.99598950  0.14738550  0.26851600  1
  C  30  1  0.98393800  0.10326100  0.28262300  1
  C  31  1  0.96225600  0.00184800  0.28455400  1
  C  32  1  0.95583850  0.94400450  0.27201200  1
  C  36  1  0.95914550  0.92340650  0.24482550  1
  C  37  1  0.93316600  0.94616600  0.23087600  1
  C  38  1  0.92646000  0.88998500  0.21822300  1
  C  39  1  0.94715950  0.80943350  0.21924500  1
  C  40  1  0.97197950  0.78074650  0.23280600  1
  C  41  1  0.97593600  0.83878900  0.24536900  1
  C  45  1  0.98948900  0.69635900  0.23316800  1
  C  46  1  0.90955500  0.92065000  0.20435100  1
  C  47  1  0.94180550  0.95780650  0.29883600  1
  C  48  1  0.01304350  0.24841950  0.26701000  1
  C  53  1  0.00709850  0.02863650  0.58994300  1
  C  54  1  0.08911600  0.00851300  0.58873800  1
  C  55  1  0.14382550  0.00237350  0.60099400  1
  C  56  1  0.11273550  0.01609850  0.61507600  1
  C  57  1  0.03327600  0.03813300  0.61696600  1
  C  58  1  0.98073400  0.04259100  0.60442300  1
  C  62  1  0.95571050  0.03696250  0.57722900  1
  C  63  1  0.00413200  0.06368700  0.56324300  1
  C  64  1  0.95626300  0.07579200  0.55074400  1
  C  65  1  0.85564750  0.05685950  0.55203400  1
  C  66  1  0.80120850  0.02759150  0.56550100  1
  C  67  1  0.85453800  0.02044300  0.57790200  1
  C  71  1  0.69940600  0.01004300  0.56594700  1
  C  72  1  0.00593450  0.10392850  0.53690400  1
  C  73  1  0.01165950  0.06131350  0.63119600  1
  C  74  1  0.22777150  0.98531050  0.59956300  1
  C  79  1  0.02933150  0.00851650  0.40945200  1
  C  80  1  0.00859250  0.09002250  0.41084500  1
  C  81  1  0.99452250  0.14046250  0.39868800  1
  C  82  1  0.99916500  0.10446900  0.38450900  1
  C  83  1  0.02133600  0.02524400  0.38237500  1
  C  84  1  0.03530300  0.97817300  0.39486400  1
  C  88  1  0.04564850  0.96120450  0.42201900  1
  C  89  1  0.07773500  0.01272200  0.43573500  1
  C  90  1  0.09660900  0.96827200  0.44803800  1
  C  91  1  0.07927450  0.86819450  0.44698000  1
  C  92  1  0.04488100  0.81071600  0.43380000  1
  C  93  1  0.03092050  0.86060150  0.42150600  1
  C  97  1  0.02819250  0.70916650  0.43351100  1
  C  98  1  0.12374500  0.01892800  0.46176800  1
  C  99  1  0.03542500  0.99862600  0.36790800  1
  C  100  1  0.97852350  0.22498950  0.40030800  1
  C  105  1  0.99316450  0.01964550  0.07552500  1
  C  106  1  0.91208500  0.91712300  0.07689800  1
  C  107  1  0.86130600  0.85269900  0.06475400  1
  C  108  1  0.89713900  0.89337500  0.05057300  1
  C  109  1  0.97622850  0.99485950  0.04843900  1
  C  110  1  0.02324800  0.05599000  0.06092900  1
  C  114  1  0.04044550  0.08314250  0.08811700  1
  C  115  1  0.98977950  0.06185750  0.10191750  1
  C  116  1  0.03424650  0.12350650  0.11437800  1
  C  117  1  0.13353350  0.20773750  0.11327000  1
  C  118  1  0.19028850  0.23312150  0.09999500  1
  C  119  1  0.14032500  0.17016800  0.08762000  1
  C  123  1  0.29149750  0.31872650  0.09970600  1
  C  124  1  0.98538500  0.09486800  0.12828000  1
  C  125  1  0.00284350  0.03554650  0.03396900  1
  C  126  1  0.77667050  0.75223950  0.06641300  1
  C  131  1  0.98294400  0.97410400  0.74258400  1
  C  132  1  0.08512650  0.99468350  0.74400100  1
  C  133  1  0.14987550  0.00910650  0.73186000  1
  C  134  1  0.10942600  0.00467700  0.71767200  1
  C  135  1  0.00806050  0.98254350  0.71551000  1
  C  136  1  0.94689950  0.96863350  0.72798700  1
  C  140  1  0.91919500  0.95756700  0.75514700  1
  C  141  1  0.93837750  0.92504050  0.76884600  1
  C  142  1  0.87496750  0.90599350  0.78114500  1
  C  143  1  0.79263100  0.92398300  0.78011600  1
  C  144  1  0.76980600  0.95881900  0.76695700  1
  C  145  1  0.83354150  0.97265850  0.75465200  1
  C  149  1  0.68526800  0.97601700  0.76670000  1
  C  150  1  0.89835900  0.87845600  0.79486400  1
  C  151  1  0.96756100  0.96838000  0.70102400  1
  C  152  1  0.25044350  0.02519950  0.73349800  1
  C  157  1  0.16203050  0.05916550  0.00757200  1
  C  158  1  0.12422800  0.11536900  0.01503600  1
  C  159  1  0.09232800  0.17155200  0.00632700  1
  C  161  1  0.12521600  0.10758100  0.98440400  1
  C  165  1  0.12147150  0.89432850  0.01503200  1
  C  173  1  0.89863400  0.84145100  0.34160700  1
  C  174  1  0.99279800  0.87743200  0.34895700  1
  C  175  1  0.08040200  0.90919900  0.34014200  1
  C  177  1  0.98296550  0.87994050  0.31837500  1
  C  181  1  0.77535200  0.88285100  0.34931200  1
  C  189  1  0.94492700  0.10381400  0.67447300  1
  C  190  1  0.88853150  0.01000250  0.68197600  1
  C  191  1  0.83228550  0.92176050  0.67330000  1
  C  193  1  0.89647750  0.01811950  0.65133700  1
  C  197  1  0.10979650  0.22791950  0.68193900  1
  C  205  1  0.46184000  0.51460200  0.92594200  1
  C  206  1  0.44219250  0.45558950  0.91289800  1
  C  207  1  0.52381650  0.49516750  0.90264400  1
  C  209  1  0.63012850  0.63625850  0.91802100  1
  C  213  1  0.32953950  0.53312850  0.93596000  1
  C  221  1  0.05218800  0.54841500  0.26002700  1
  C  222  1  0.01196550  0.56755850  0.24702300  1
  C  223  1  0.96932450  0.48543750  0.23685400  1
  C  225  1  0.00457850  0.37949650  0.25228000  1
  C  229  1  0.20412350  0.68047350  0.26980800  1
  C  237  1  0.48940850  0.94767350  0.59283300  1
  C  238  1  0.54871650  0.98777450  0.57982900  1
  C  239  1  0.50926950  0.03018250  0.56961600  1
  C  241  1  0.36762850  0.99419750  0.58494200  1
  C  245  1  0.47116850  0.79654650  0.60268800  1
  C  253  1  0.94819700  0.49086800  0.40747800  1
  C  254  1  0.99670500  0.55402800  0.41990700  1
  C  255  1  0.04502150  0.51716750  0.42948900  1
  C  257  1  0.99825250  0.37047050  0.41469200  1
  C  261  1  0.79184450  0.47056950  0.39959800  1
  C  269  1  0.51058650  0.45633950  0.07374300  1
  C  270  1  0.44717400  0.44218900  0.08612500  1
  C  271  1  0.48408250  0.52770950  0.09564300  1
  C  273  1  0.63107800  0.62702400  0.08085200  1
  C  277  1  0.53120150  0.32011750  0.06605500  1
  C  285  1  0.54681950  0.05594550  0.74067900  1
  C  286  1  0.56157250  0.00757850  0.75311600  1
  C  287  1  0.47647800  0.95941900  0.76271700  1
  C  289  1  0.37636300  0.00587500  0.74790400  1
  C  293  1  0.68285150  0.21220450  0.73276700  1
  C  301  1  0.03987000  0.04550300  0.84049500  1
  C  302  1  0.99968900  0.95445400  0.84880400  1
  C  303  1  0.94734750  0.86168650  0.84105600  1
  C  305  1  0.98091550  0.95032950  0.81822500  1
  C  309  1  0.02865650  0.18402750  0.84967300  1
  C  317  1  0.03437350  0.94561250  0.17009300  1
  C  318  1  0.97985350  0.97312650  0.17994600  1
  C  319  1  0.92160600  0.01298000  0.17370200  1
  C  321  1  0.97068800  0.99445100  0.14956800  1
  C  325  1  0.19894150  0.97443350  0.17479700  1
  C  333  1  0.95489000  0.98950700  0.50724300  1
  C  334  1  0.04563100  0.04103600  0.51559500  1
  C  335  1  0.13872100  0.08468000  0.50788500  1
  C  337  1  0.05087500  0.02970100  0.48500100  1
  C  341  1  0.81589550  0.83701350  0.51562500  1
  H  7  1  0.88918800  0.89948200  0.91175800  1
  H  8  1  0.14091750  0.07624850  0.93902500  1
  H  9  1  0.86693050  0.85246150  0.95730100  1
  H  16  1  0.00891300  0.92447700  0.89533200  1
  H  17  1  0.24664950  0.18246450  0.87586600  1
  H  18  1  0.18208850  0.18792950  0.92063100  1
  H  33  1  0.00801900  0.12004900  0.24623700  1
  H  34  1  0.93343850  0.86884550  0.27357400  1
  H  35  1  0.98763300  0.14451300  0.29176700  1
  H  42  1  0.91511500  0.00249100  0.22977700  1
  H  43  1  0.94294400  0.77093300  0.20976000  1
  H  44  1  0.99863850  0.82367150  0.25509200  1
  H  59  1  0.10381000  0.98879900  0.57869300  1
  H  60  1  0.92783400  0.06486700  0.60595000  1
  H  61  1  0.15100350  0.01369350  0.62422200  1
  H  68  1  0.07875050  0.08254750  0.56217400  1
  H  69  1  0.82168500  0.06465600  0.54276300  1
  H  70  1  0.81633000  0.99547500  0.58757000  1
  H  85  1  0.99466950  0.10775350  0.42107600  1
  H  86  1  0.05830600  0.92607600  0.39310900  1
  H  87  1  0.99009600  0.13916600  0.37542300  1
  H  94  1  0.09405050  0.08658750  0.43677200  1
  H  95  1  0.09144200  0.83695800  0.45621600  1
  H  96  1  0.00225400  0.82004100  0.41210100  1
  H  111  1  0.89464950  0.88505050  0.08710100  1
  H  112  1  0.07498650  0.13114550  0.05915700  1
  H  113  1  0.86225200  0.84965900  0.04149200  1
  H  120  1  0.91635650  0.00348050  0.10297500  1
  H  121  1  0.16547550  0.24956650  0.12260700  1
  H  122  1  0.18031850  0.18397750  0.07812200  1
  H  137  1  0.11665100  0.00845500  0.75423900  1
  H  138  1  0.87182200  0.94563300  0.72621000  1
  H  139  1  0.15324200  0.01367000  0.70859600  1
  H  146  1  0.99561300  0.90824400  0.76985400  1
  H  147  1  0.74927600  0.91186100  0.78935700  1
  H  148  1  0.82188050  0.00163650  0.74525800  1
  H  164  1  0.06127350  0.21086150  0.01111100  1
  H  166  1  0.04887550  0.87778650  0.01996000  1
  H  167  1  0.15283550  0.85604550  0.02155800  1
  H  168  1  0.10818750  0.86327250  0.00388000  1
  H  170  1  0.15570800  0.10897900  0.03626500  1
  H  172  1  0.10793450  0.14360650  0.96380400  1
  H  180  1  0.15090200  0.93928900  0.34485600  1
  H  182  1  0.83204750  0.95543350  0.35417400  1
  H  183  1  0.70626750  0.85186850  0.35595900  1
  H  184  1  0.75678450  0.89607650  0.33820700  1
  H  186  1  0.95597300  0.84576000  0.37020500  1
  H  188  1  0.03373350  0.89760550  0.29763700  1
  H  196  1  0.79279550  0.85150950  0.67811300  1
  H  198  1  0.12605650  0.17183550  0.68692700  1
  H  199  1  0.14818050  0.29772250  0.68842800  1
  H  200  1  0.14098750  0.24532050  0.67079100  1
  H  202  1  0.89514150  0.04855850  0.70322400  1
  H  204  1  0.85996250  0.96460150  0.63079400  1
  H  212  1  0.52209050  0.45684550  0.89336700  1
  H  214  1  0.37540400  0.61627100  0.93662200  1
  H  215  1  0.27619950  0.50643350  0.94516350  1
  H  216  1  0.28538050  0.51139450  0.92575400  1
  H  218  1  0.31223800  0.33915300  0.92017000  1
  H  220  1  0.77014400  0.73706000  0.91174800  1
  H  228  1  0.93246900  0.48692400  0.22759200  1
  H  230  1  0.24079300  0.63406600  0.27050000  1
  H  231  1  0.23169950  0.73444950  0.27893400  1
  H  232  1  0.22629750  0.72392750  0.25953700  1
  H  234  1  0.02714200  0.69836700  0.25421100  1
  H  236  1  0.96451800  0.23901200  0.24616700  1
  H  244  1  0.54781550  0.06732150  0.56038000  1
  H  246  1  0.38798600  0.75894900  0.60329700  1
  H  247  1  0.49773950  0.76957350  0.61186700  1
  H  248  1  0.49337950  0.77481750  0.59246200  1
  H  250  1  0.66499550  0.97390650  0.58707500  1
  H  252  1  0.26668900  0.03328400  0.57869800  1
  H  260  1  0.08801400  0.55830000  0.43820100  1
  H  262  1  0.75382800  0.38727700  0.39940600  1
  H  263  1  0.75958650  0.49484750  0.39082500  1
  H  264  1  0.77645000  0.49566100  0.41008600  1
  H  266  1  0.97815000  0.66810300  0.41297900  1
  H  268  1  0.04025850  0.27082950  0.42040100  1
  H  276  1  0.44293200  0.52988900  0.10432800  1
  H  278  1  0.61449050  0.36548650  0.06586900  1
  H  279  1  0.50705600  0.26320100  0.05733800  1
  H  280  1  0.50609550  0.28008850  0.07657800  1
  H  282  1  0.33360350  0.30897050  0.07928600  1
  H  284  1  0.73092850  0.76880950  0.08647900  1
  H  292  1  0.47468400  0.91654900  0.77144000  1
  H  294  1  0.63759800  0.25025100  0.73257700  1
  H  295  1  0.73931300  0.24437900  0.72398400  1
  H  296  1  0.72342250  0.22766550  0.74324900  1
  H  298  1  0.69405150  0.02585350  0.74616100  1
  H  300  1  0.23467050  0.96367350  0.75360500  1
  H  308  1  0.91579400  0.79354800  0.84649200  1
  H  310  1  0.99890850  0.19659650  0.83940800  1
  H  311  1  0.07551450  0.25776450  0.85495700  1
  H  312  1  0.96524900  0.13661900  0.85705000  1
  H  314  1  0.95416300  0.95589900  0.86923500  1
  H  316  1  0.01502600  0.01974400  0.79863400  1
  H  324  1  0.88321850  0.03749250  0.18023300  1
  H  326  1  0.22649600  0.99928800  0.16358500  1
  H  327  1  0.23744450  0.93554250  0.17917600  1
  H  328  1  0.21917200  0.04107300  0.18168600  1
  H  330  1  0.05672250  0.98408550  0.19843100  1
  H  332  1  0.99129250  0.96506550  0.12886700  1
  H  340  1  0.20663550  0.12226450  0.51336200  1
  H  342  1  0.80297450  0.79818150  0.50503700  1
  H  343  1  0.74229100  0.80862400  0.52102300  1
  H  344  1  0.86323900  0.81832800  0.52259200  1
  H  346  1  0.04052700  0.99127200  0.53594000  1
  H  348  1  0.98254000  0.99538800  0.46534100  1
  N  160  1  0.09195200  0.16470900  0.99144500  1
  N  162  1  0.16028450  0.05645550  0.99263100  1
  N  169  1  0.10103600  0.09995700  0.02966700  1
  N  171  1  0.10653700  0.08916200  0.96972600  1
  N  176  1  0.07348400  0.91143400  0.32528200  1
  N  178  1  0.89716600  0.84492500  0.32668200  1
  N  185  1  0.00152350  0.90042050  0.36359800  1
  N  187  1  0.98274150  0.90092850  0.30380900  1
  N  192  1  0.83918900  0.92790200  0.65841500  1
  N  194  1  0.94770700  0.10445700  0.65953300  1
  N  201  1  0.90364550  0.00257850  0.69662800  1
  N  203  1  0.91487550  0.01765150  0.63665400  1
  N  208  1  0.61274150  0.58169450  0.90543900  1
  N  210  1  0.55343200  0.60040700  0.92806900  1
  N  217  1  0.35244300  0.36476600  0.91129500  1
  N  219  1  0.72356300  0.72038600  0.92000400  1
  N  224  1  0.96684900  0.39649000  0.23971700  1
  N  226  1  0.04627450  0.45680750  0.26222400  1
  N  233  1  0.01084300  0.65733300  0.24539700  1
  N  235  1  0.99514400  0.28602500  0.25435900  1
  N  240  1  0.42251700  0.03215000  0.57240500  1
  N  242  1  0.40339200  0.95305900  0.59495600  1
  N  249  1  0.63959550  0.98899250  0.57822200  1
  N  251  1  0.28328250  0.00310250  0.58692800  1
  N  256  1  0.04441400  0.42914900  0.42667100  1
  N  258  1  0.95142150  0.40373850  0.40527400  1
  N  265  1  0.99936900  0.64560600  0.42154600  1
  N  267  1  0.00502350  0.28498750  0.41261100  1
  N  272  1  0.57225450  0.61495650  0.09279900  1
  N  274  1  0.59781900  0.54655500  0.07150500  1
  N  281  1  0.35550850  0.35332350  0.08778300  1
  N  283  1  0.71669150  0.71914350  0.07872600  1
  N  288  1  0.38901250  0.95992250  0.75989700  1
  N  290  1  0.45642150  0.05263250  0.73847500  1
  N  297  1  0.65045900  0.00482500  0.75474000  1
  N  299  1  0.28403050  0.99894050  0.74581400  1
  N  304  1  0.93962650  0.86229550  0.82617500  1
  N  306  1  0.03047700  0.04023600  0.82563600  1
  N  313  1  0.00941300  0.95597100  0.86371700  1
  N  315  1  0.97186500  0.95354000  0.80330700  1
  N  320  1  0.91959050  0.02354150  0.15889500  1
  N  322  1  0.02642000  0.95526700  0.15539000  1
  N  329  1  0.98896450  0.96574650  0.19477100  1
  N  331  1  0.97411350  0.00852050  0.13473200  1
  N  336  1  0.13864550  0.07766750  0.49299300  1
  N  338  1  0.96066550  0.98693250  0.49236900  1
  N  345  1  0.04346600  0.04823100  0.53050200  1
  N  347  1  0.04853000  0.01829100  0.47007800  1
  O  23  1  0.35275900  0.34956300  0.88583000  1
  O  24  1  0.02889350  0.91090350  0.97310100  1
  O  25  1  0.70358150  0.74197650  0.94501000  1
  O  26  1  0.18449350  0.01191050  0.86185300  1
  O  49  1  0.99283450  0.65610550  0.21997600  1
  O  50  1  0.88928450  0.98516050  0.30809400  1
  O  51  1  0.03858500  0.30721700  0.27929800  1
  O  52  1  0.81166700  0.87343900  0.19962650  1
  O  75  1  0.65507800  0.00543700  0.55276800  1
  O  76  1  0.09309400  0.11759600  0.64003500  1
  O  77  1  0.26135950  0.96073250  0.61191100  1
  O  78  1  0.99381400  0.17217400  0.52874500  1
  O  101  1  0.03258150  0.66902450  0.44666000  1
  O  102  1  0.07842750  0.07544150  0.35791900  1
  O  103  1  0.94634750  0.25477150  0.38832900  1
  O  104  1  0.20957400  0.02971000  0.46810000  1
  O  127  1  0.33106200  0.36408600  0.11283300  1
  O  128  1  0.92604350  0.00192750  0.02398300  1
  O  129  1  0.74672850  0.69012150  0.05445300  1
  O  130  1  0.98659350  0.17019250  0.13649100  1
  O  153  1  0.64085650  0.97170350  0.77985700  1
  O  154  1  0.00101050  0.92466750  0.69109900  1
  O  155  1  0.31251100  0.05765400  0.72153200  1
  O  156  1  0.82286900  0.79211900  0.80102600  1
  O  163  1  0.19390600  0.00189500  0.01512400  1
  O  179  1  0.81002600  0.81005200  0.34928200  1
  O  195  1  0.00229550  0.19310350  0.68198700  1
  O  211  1  0.39206100  0.48661800  0.93708800  1
  O  227  1  0.09508050  0.61882050  0.27107400  1
  O  243  1  0.51725900  0.90547400  0.60393800  1
  O  259  1  0.89958150  0.51589650  0.39698200  1
  O  275  1  0.48574250  0.38228350  0.06332100  1
  O  291  1  0.62038250  0.10445050  0.73017000  1
  O  307  1  0.09163000  0.13945800  0.84699100  1
  O  323  1  0.09092800  0.90387900  0.17500450  1
  O  339  1  0.86087600  0.94538500  0.51375200  1
