# generated using pymatgen
data_VH3C11NO7
_symmetry_space_group_name_H-M   'P 1'
_cell_length_a   7.25422000
_cell_length_b   15.22888000
_cell_length_c   16.54678000
_cell_angle_alpha   85.23067000
_cell_angle_beta   89.99982000
_cell_angle_gamma   89.99040000
_symmetry_Int_Tables_number   1
_chemical_formula_structural   VH3C11NO7
_chemical_formula_sum   'V4 H12 C44 N4 O28'
_cell_volume   1821.65371258
_cell_formula_units_Z   4
loop_
 _symmetry_equiv_pos_site_id
 _symmetry_equiv_pos_as_xyz
  1  'x, y, z'
loop_
 _atom_site_type_symbol
 _atom_site_label
 _atom_site_symmetry_multiplicity
 _atom_site_fract_x
 _atom_site_fract_y
 _atom_site_fract_z
 _atom_site_occupancy
  V  V0  1  0.19699000  0.23964000  0.25054000  1
  V  V1  1  0.80301000  0.76036000  0.74946000  1
  V  V2  1  0.69699000  0.26036000  0.24946000  1
  V  V3  1  0.30301000  0.73964000  0.75054000  1
  H  H4  1  0.93608000  0.50041000  0.78865000  1
  H  H5  1  0.06392000  0.49959000  0.21135000  1
  H  H6  1  0.44125000  0.00019000  0.71159000  1
  H  H7  1  0.55875000  0.99981000  0.28841000  1
  H  H8  1  0.14592000  0.64886000  0.23389000  1
  H  H9  1  0.85408000  0.35114000  0.76611000  1
  H  H10  1  0.63670000  0.85006000  0.26567000  1
  H  H11  1  0.36330000  0.14994000  0.73433000  1
  H  H12  1  0.89281000  0.27407000  0.02066000  1
  H  H13  1  0.10719000  0.72593000  0.97934000  1
  H  H14  1  0.39737000  0.22644000  0.47952000  1
  H  H15  1  0.60263000  0.77356000  0.52048000  1
  C  C16  1  0.47707000  0.14356000  0.14674000  1
  C  C17  1  0.52293000  0.85644000  0.85326000  1
  C  C18  1  0.97706000  0.35644000  0.35326000  1
  C  C19  1  0.02294000  0.64356000  0.64674000  1
  C  C20  1  0.47713000  0.13386000  0.36390000  1
  C  C21  1  0.52287000  0.86614000  0.63610000  1
  C  C22  1  0.97712000  0.36612000  0.13609000  1
  C  C23  1  0.02288000  0.63388000  0.86392000  1
  C  C24  1  0.00530000  0.53006000  0.53122000  1
  C  C25  1  0.99470000  0.46994000  0.46878000  1
  C  C26  1  0.50529000  0.96994000  0.96878000  1
  C  C27  1  0.49470000  0.03006000  0.03122000  1
  C  C28  1  0.90257000  0.32507000  0.97131000  1
  C  C29  1  0.09743000  0.67493000  0.02869000  1
  C  C30  1  0.40725000  0.17547000  0.52890000  1
  C  C31  1  0.59275000  0.82453000  0.47110000  1
  C  C32  1  0.86748000  0.30203000  0.89234000  1
  C  C33  1  0.13252000  0.69797000  0.10766000  1
  C  C34  1  0.37461000  0.19881000  0.60798000  1
  C  C35  1  0.62539000  0.80119000  0.39202000  1
  C  C36  1  0.87985000  0.36704000  0.82767000  1
  C  C37  1  0.12015000  0.63296000  0.17233000  1
  C  C38  1  0.38724000  0.13383000  0.67268000  1
  C  C39  1  0.61276000  0.86617000  0.32732000  1
  C  C40  1  0.92704000  0.45325000  0.84114000  1
  C  C41  1  0.07296000  0.54675000  0.15886000  1
  C  C42  1  0.43208000  0.04735000  0.65911000  1
  C  C43  1  0.56792000  0.95265000  0.34089000  1
  C  C44  1  0.96292000  0.47762000  0.92016000  1
  C  C45  1  0.03708000  0.52238000  0.07985000  1
  C  C46  1  0.46545000  0.02268000  0.57998000  1
  C  C47  1  0.53455000  0.97732000  0.42002000  1
  C  C48  1  0.95009000  0.41231000  0.98663000  1
  C  C49  1  0.04991000  0.58769000  0.01337000  1
  C  C50  1  0.45255000  0.08798000  0.51349000  1
  C  C51  1  0.54745000  0.91202000  0.48651000  1
  C  C52  1  0.01301000  0.56530000  0.93337000  1
  C  C53  1  0.98699000  0.43469000  0.06663000  1
  C  C54  1  0.51301000  0.93470000  0.56664000  1
  C  C55  1  0.48699000  0.06530000  0.43336000  1
  C  C56  1  0.01385000  0.58140000  0.58406000  1
  C  C57  1  0.98615000  0.41860000  0.41594000  1
  C  C58  1  0.51383000  0.91861000  0.91593000  1
  C  C59  1  0.48617000  0.08139000  0.08407000  1
  N  N60  1  0.82037000  0.21277000  0.87789000  1
  N  N61  1  0.17963000  0.78723000  0.12211000  1
  N  N62  1  0.32962000  0.28831000  0.62251000  1
  N  N63  1  0.67038000  0.71169000  0.37749000  1
  O  O64  1  0.63824000  0.16597000  0.33654000  1
  O  O65  1  0.36176000  0.83403000  0.66346000  1
  O  O66  1  0.13824000  0.33403000  0.16346000  1
  O  O67  1  0.86176000  0.66597000  0.83654000  1
  O  O68  1  0.31013000  0.16373000  0.17290000  1
  O  O69  1  0.68987000  0.83627000  0.82710000  1
  O  O70  1  0.81013000  0.33627000  0.32710000  1
  O  O71  1  0.18987000  0.66373000  0.67290000  1
  O  O72  1  0.30863000  0.15550000  0.33651000  1
  O  O73  1  0.69137000  0.84450000  0.66349000  1
  O  O74  1  0.80863000  0.34450000  0.16349000  1
  O  O75  1  0.19137000  0.65550000  0.83651000  1
  O  O76  1  0.13668000  0.32574000  0.32823000  1
  O  O77  1  0.86332000  0.67426000  0.67177000  1
  O  O78  1  0.63668000  0.17426000  0.17177000  1
  O  O79  1  0.36332000  0.82574000  0.82823000  1
  O  O80  1  0.47120000  0.30586000  0.24709000  1
  O  O81  1  0.52880000  0.69414000  0.75291000  1
  O  O82  1  0.97120000  0.19414000  0.25291000  1
  O  O83  1  0.02880000  0.80586000  0.74709000  1
  O  O84  1  0.77879000  0.19235000  0.80525000  1
  O  O85  1  0.82032000  0.15086000  0.93706000  1
  O  O86  1  0.22121000  0.80765000  0.19475000  1
  O  O87  1  0.17968000  0.84914000  0.06294000  1
  O  O88  1  0.29296000  0.30930000  0.69550000  1
  O  O89  1  0.32636000  0.34986000  0.56304000  1
  O  O90  1  0.70704000  0.69070000  0.30450000  1
  O  O91  1  0.67364000  0.65013000  0.43696000  1
