# generated using pymatgen
data_CuH3C22(Br2O)4
_symmetry_space_group_name_H-M   'P 1'
_cell_length_a   28.50870000
_cell_length_b   33.49150000
_cell_length_c   33.77530000
_cell_angle_alpha   97.22750000
_cell_angle_beta   90.34480000
_cell_angle_gamma   90.38890000
_symmetry_Int_Tables_number   1
_chemical_formula_structural   CuH3C22(Br2O)4
_chemical_formula_sum   'Cu16 H48 C352 Br128 O64'
_cell_volume   31990.88874143
_cell_formula_units_Z   16
loop_
 _symmetry_equiv_pos_site_id
 _symmetry_equiv_pos_as_xyz
  1  'x, y, z'
loop_
 _atom_site_type_symbol
 _atom_site_label
 _atom_site_symmetry_multiplicity
 _atom_site_fract_x
 _atom_site_fract_y
 _atom_site_fract_z
 _atom_site_occupancy
  Cu  Cu1  1  0.01679000  0.00140000  0.31454000  1.0
  Cu  Cu2  1  0.99374000  0.98439000  0.23851000  1.0
  Cu  Cu3  1  0.48650000  0.52009000  0.81280000  1.0
  Cu  Cu4  1  0.49112000  0.50248000  0.73469000  1.0
  Cu  Cu5  1  0.98533000  0.00202000  0.68699000  1.0
  Cu  Cu6  1  0.99119000  0.01182000  0.76568000  1.0
  Cu  Cu7  1  0.50898000  0.48113000  0.18506000  1.0
  Cu  Cu8  1  0.50690000  0.49431000  0.26393000  1.0
  Cu  Cu9  1  0.98431000  0.70111000  0.98714000  1.0
  Cu  Cu10  1  0.99471000  0.77951000  0.00571000  1.0
  Cu  Cu11  1  0.51158000  0.19890000  0.49590000  1.0
  Cu  Cu12  1  0.50192000  0.27779000  0.50395000  1.0
  Cu  Cu13  1  0.00890000  0.30070000  0.01265000  1.0
  Cu  Cu14  1  0.00113000  0.22205000  0.99498000  1.0
  Cu  Cu15  1  0.49006000  0.80524000  0.50430000  1.0
  Cu  Cu16  1  0.48875000  0.72567000  0.49646000  1.0
  H  H1  1  0.26203000  0.26251000  0.13958000  1.0
  H  H2  1  0.32683000  0.29532000  0.17718000  1.0
  H  H3  1  0.22559000  0.14537000  0.28629000  1.0
  H  H4  1  0.28660000  0.18130000  0.32607000  1.0
  H  H5  1  0.14813000  0.16243000  0.16325000  1.0
  H  H6  1  0.38780000  0.29302000  0.31006000  1.0
  H  H7  1  0.24165000  0.78982000  0.64466000  1.0
  H  H8  1  0.17113000  0.81644000  0.67643000  1.0
  H  H9  1  0.27787000  0.67842000  0.79622000  1.0
  H  H10  1  0.21041000  0.70848000  0.83022000  1.0
  H  H11  1  0.36170000  0.70009000  0.67766000  1.0
  H  H12  1  0.09808000  0.80771000  0.80271000  1.0
  H  H13  1  0.21737000  0.82476000  0.30042000  1.0
  H  H14  1  0.28286000  0.79447000  0.33004000  1.0
  H  H15  1  0.21692000  0.67392000  0.14642000  1.0
  H  H16  1  0.27455000  0.63856000  0.18095000  1.0
  H  H17  1  0.14027000  0.80081000  0.17209000  1.0
  H  H18  1  0.36801000  0.67130000  0.29924000  1.0
  H  H19  1  0.26261000  0.34813000  0.80384000  1.0
  H  H20  1  0.19779000  0.31328000  0.82989000  1.0
  H  H21  1  0.30569000  0.18426000  0.66978000  1.0
  H  H22  1  0.24085000  0.14912000  0.69618000  1.0
  H  H23  1  0.37270000  0.31696000  0.69842000  1.0
  H  H24  1  0.12782000  0.18266000  0.79955000  1.0
  H  H25  1  0.70445000  0.67452000  0.18665000  1.0
  H  H26  1  0.77163000  0.70596000  0.15979000  1.0
  H  H27  1  0.74188000  0.78608000  0.36601000  1.0
  H  H28  1  0.80956000  0.81681000  0.33954000  1.0
  H  H29  1  0.63100000  0.68462000  0.31512000  1.0
  H  H30  1  0.88756000  0.80349000  0.21375000  1.0
  H  H31  1  0.69786000  0.34194000  0.82674000  1.0
  H  H32  1  0.76237000  0.31220000  0.85906000  1.0
  H  H33  1  0.75251000  0.23056000  0.65140000  1.0
  H  H34  1  0.81593000  0.19975000  0.68412000  1.0
  H  H35  1  0.63450000  0.32736000  0.69372000  1.0
  H  H36  1  0.87496000  0.21017000  0.81826000  1.0
  H  H37  1  0.81862000  0.30261000  0.18173000  1.0
  H  H38  1  0.75259000  0.34017000  0.20945000  1.0
  H  H39  1  0.78910000  0.16889000  0.31472000  1.0
  H  H40  1  0.71969000  0.20384000  0.33928000  1.0
  H  H41  1  0.90193000  0.18620000  0.21346000  1.0
  H  H42  1  0.64291000  0.32547000  0.31367000  1.0
  H  H43  1  0.67434000  0.82169000  0.68508000  1.0
  H  H44  1  0.73769000  0.86222000  0.71635000  1.0
  H  H45  1  0.72212000  0.67619000  0.80175000  1.0
  H  H46  1  0.78445000  0.71730000  0.83396000  1.0
  H  H47  1  0.61410000  0.68912000  0.69500000  1.0
  H  H48  1  0.85428000  0.84430000  0.81557000  1.0
  C  C1  1  0.94496000  0.04637000  0.28164000  1.0
  C  C2  1  0.06262000  0.93752000  0.26703000  1.0
  C  C3  1  0.06498000  0.04192000  0.26033000  1.0
  C  C4  1  0.94761000  0.94374000  0.29594000  1.0
  C  C5  1  0.54361000  0.45540000  0.77933000  1.0
  C  C6  1  0.43430000  0.56626000  0.76225000  1.0
  C  C7  1  0.42212000  0.46425000  0.77812000  1.0
  C  C8  1  0.55549000  0.55931000  0.77412000  1.0
  C  C9  1  0.06193000  0.04667000  0.72497000  1.0
  C  C10  1  0.91487000  0.96766000  0.73055000  1.0
  C  C11  1  0.94306000  0.06968000  0.72732000  1.0
  C  C12  1  0.03387000  0.94420000  0.72348000  1.0
  C  C13  1  0.55775000  0.54819000  0.22327000  1.0
  C  C14  1  0.45921000  0.42660000  0.22608000  1.0
  C  C15  1  0.43750000  0.53001000  0.22136000  1.0
  C  C16  1  0.57909000  0.44637000  0.22824000  1.0
  C  C17  1  0.92950000  0.74138000  0.04979000  1.0
  C  C18  1  0.05082000  0.74301000  0.94461000  1.0
  C  C19  1  0.05246000  0.72748000  0.04360000  1.0
  C  C20  1  0.93005000  0.75032000  0.94515000  1.0
  C  C21  1  0.45212000  0.23453000  0.55608000  1.0
  C  C22  1  0.56222000  0.24258000  0.44455000  1.0
  C  C23  1  0.57385000  0.24604000  0.54760000  1.0
  C  C24  1  0.44144000  0.23107000  0.45042000  1.0
  C  C25  1  0.93429000  0.26980000  0.96213000  1.0
  C  C26  1  0.07561000  0.25166000  0.04488000  1.0
  C  C27  1  0.05503000  0.26498000  0.94491000  1.0
  C  C28  1  0.95576000  0.25796000  0.06392000  1.0
  C  C29  1  0.53946000  0.76716000  0.56026000  1.0
  C  C30  1  0.43827000  0.76480000  0.44124000  1.0
  C  C31  1  0.41951000  0.76603000  0.54351000  1.0
  C  C32  1  0.55996000  0.76290000  0.45773000  1.0
  C  C33  1  0.20284000  0.20690000  0.16380000  1.0
  C  C34  1  0.17916000  0.17544000  0.17876000  1.0
  C  C35  1  0.19299000  0.16171000  0.21434000  1.0
  C  C36  1  0.23088000  0.18061000  0.23668000  1.0
  C  C37  1  0.25583000  0.21211000  0.22158000  1.0
  C  C38  1  0.24296000  0.22421000  0.18422000  1.0
  C  C39  1  0.26988000  0.25375000  0.16868000  1.0
  C  C40  1  0.30711000  0.27280000  0.19052000  1.0
  C  C41  1  0.31743000  0.26416000  0.22934000  1.0
  C  C42  1  0.29255000  0.23260000  0.24455000  1.0
  C  C43  1  0.24362000  0.16955000  0.27407000  1.0
  C  C44  1  0.27897000  0.19021000  0.29701000  1.0
  C  C45  1  0.30373000  0.22191000  0.28290000  1.0
  C  C46  1  0.33913000  0.24357000  0.30622000  1.0
  C  C47  1  0.36147000  0.27594000  0.29160000  1.0
  C  C48  1  0.35169000  0.28637000  0.25357000  1.0
  C  C49  1  0.30352000  0.73983000  0.67405000  1.0
  C  C50  1  0.32975000  0.71180000  0.69193000  1.0
  C  C51  1  0.31479000  0.69716000  0.72679000  1.0
  C  C52  1  0.27378000  0.71295000  0.74601000  1.0
  C  C53  1  0.24707000  0.74178000  0.72839000  1.0
  C  C54  1  0.26120000  0.75430000  0.69164000  1.0
  C  C55  1  0.23261000  0.78070000  0.67331000  1.0
  C  C56  1  0.19197000  0.79615000  0.69172000  1.0
  C  C57  1  0.17923000  0.78662000  0.72959000  1.0
  C  C58  1  0.20606000  0.75808000  0.74749000  1.0
  C  C59  1  0.25876000  0.70073000  0.78220000  1.0
  C  C60  1  0.21952000  0.71790000  0.80173000  1.0
  C  C61  1  0.19249000  0.74640000  0.78477000  1.0
  C  C62  1  0.15239000  0.76390000  0.80415000  1.0
  C  C63  1  0.12768000  0.79326000  0.78687000  1.0
  C  C64  1  0.14066000  0.80525000  0.75030000  1.0
  C  C65  1  0.17978000  0.80168000  0.22655000  1.0
  C  C66  1  0.16642000  0.78537000  0.18792000  1.0
  C  C67  1  0.18144000  0.74755000  0.17096000  1.0
  C  C68  1  0.21487000  0.72663000  0.19096000  1.0
  C  C69  1  0.23276000  0.74441000  0.22835000  1.0
  C  C70  1  0.21459000  0.78170000  0.24673000  1.0
  C  C71  1  0.23169000  0.79757000  0.28455000  1.0
  C  C72  1  0.26912000  0.77961000  0.30204000  1.0
  C  C73  1  0.28748000  0.74279000  0.28438000  1.0
  C  C74  1  0.26802000  0.72431000  0.24783000  1.0
  C  C75  1  0.23048000  0.68840000  0.17468000  1.0
  C  C76  1  0.26390000  0.66809000  0.19450000  1.0
  C  C77  1  0.28408000  0.68598000  0.23049000  1.0
  C  C78  1  0.31999000  0.66666667  0.24973000  1.0
  C  C79  1  0.33967000  0.68587000  0.28507000  1.0
  C  C80  1  0.32462000  0.72366000  0.30229000  1.0
  C  C81  1  0.31991000  0.31910000  0.74352000  1.0
  C  C82  1  0.34429000  0.30062000  0.71057000  1.0
  C  C83  1  0.33337000  0.26154000  0.69311000  1.0
  C  C84  1  0.29663000  0.24003000  0.70920000  1.0
  C  C85  1  0.27030000  0.25918000  0.74173000  1.0
  C  C86  1  0.28187000  0.29893000  0.75884000  1.0
  C  C87  1  0.25500000  0.31765000  0.79052000  1.0
  C  C88  1  0.21761000  0.29751000  0.80559000  1.0
  C  C89  1  0.20612000  0.25784000  0.78976000  1.0
  C  C90  1  0.23232000  0.23857000  0.75722000  1.0
  C  C91  1  0.28561000  0.20006000  0.69388000  1.0
  C  C92  1  0.24822000  0.17978000  0.70911000  1.0
  C  C93  1  0.22063000  0.19877000  0.74022000  1.0
  C  C94  1  0.18174000  0.17909000  0.75517000  1.0
  C  C95  1  0.15699000  0.19830000  0.78765000  1.0
  C  C96  1  0.16900000  0.23683000  0.80558000  1.0
  C  C97  1  0.67422000  0.68604000  0.26340000  1.0
  C  C98  1  0.66103000  0.69873000  0.30277000  1.0
  C  C99  1  0.68441000  0.72990000  0.32634000  1.0
  C  C100  1  0.72482000  0.74719000  0.31139000  1.0
  C  C101  1  0.73881000  0.73492000  0.27142000  1.0
  C  C102  1  0.71250000  0.70522000  0.24685000  1.0
  C  C103  1  0.72482000  0.69597000  0.20652000  1.0
  C  C104  1  0.76369000  0.71409000  0.19104000  1.0
  C  C105  1  0.79191000  0.74183000  0.21544000  1.0
  C  C106  1  0.77872000  0.75292000  0.25584000  1.0
  C  C107  1  0.75129000  0.77653000  0.33528000  1.0
  C  C108  1  0.79034000  0.79422000  0.32000000  1.0
  C  C109  1  0.80439000  0.78300000  0.28038000  1.0
  C  C110  1  0.84300000  0.80183000  0.26444000  1.0
  C  C111  1  0.85763000  0.78878000  0.22557000  1.0
  C  C112  1  0.83241000  0.75958000  0.20049000  1.0
  C  C113  1  0.67321000  0.32748000  0.74840000  1.0
  C  C114  1  0.66388000  0.31446000  0.70814000  1.0
  C  C115  1  0.68992000  0.28426000  0.68630000  1.0
  C  C116  1  0.72888000  0.26793000  0.70459000  1.0
  C  C117  1  0.73853000  0.28021000  0.74569000  1.0
  C  C118  1  0.71026000  0.30973000  0.76787000  1.0
  C  C119  1  0.71938000  0.32022000  0.80883000  1.0
  C  C120  1  0.75656000  0.30303000  0.82751000  1.0
  C  C121  1  0.78532000  0.27422000  0.80603000  1.0
  C  C122  1  0.77584000  0.26221000  0.76487000  1.0
  C  C123  1  0.75813000  0.23957000  0.68301000  1.0
  C  C124  1  0.79467000  0.22181000  0.70188000  1.0
  C  C125  1  0.80313000  0.23176000  0.74298000  1.0
  C  C126  1  0.83797000  0.21193000  0.76302000  1.0
  C  C127  1  0.84760000  0.22500000  0.80317000  1.0
  C  C128  1  0.82290000  0.25634000  0.82466000  1.0
  C  C129  1  0.85669000  0.23629000  0.20785000  1.0
  C  C130  1  0.87185000  0.20305000  0.22572000  1.0
  C  C131  1  0.84725000  0.18941000  0.25723000  1.0
  C  C132  1  0.80677000  0.21006000  0.27218000  1.0
  C  C133  1  0.79235000  0.24505000  0.25583000  1.0
  C  C134  1  0.81716000  0.25811000  0.22341000  1.0
  C  C135  1  0.80122000  0.29209000  0.20688000  1.0
  C  C136  1  0.76276000  0.31372000  0.22273000  1.0
  C  C137  1  0.73749000  0.30115000  0.25455000  1.0
  C  C138  1  0.75209000  0.26630000  0.27107000  1.0
  C  C139  1  0.77968000  0.19597000  0.30220000  1.0
  C  C140  1  0.73961000  0.21631000  0.31653000  1.0
  C  C141  1  0.72593000  0.25215000  0.30220000  1.0
  C  C142  1  0.68641000  0.27403000  0.31776000  1.0
  C  C143  1  0.67343000  0.30895000  0.30185000  1.0
  C  C144  1  0.69749000  0.32219000  0.26997000  1.0
  C  C145  1  0.65130000  0.74536000  0.69758000  1.0
  C  C146  1  0.64164000  0.70793000  0.71000000  1.0
  C  C147  1  0.66527000  0.69480000  0.74222000  1.0
  C  C148  1  0.70210000  0.71856000  0.76115000  1.0
  C  C149  1  0.71238000  0.75666000  0.74886000  1.0
  C  C150  1  0.68601000  0.77064000  0.71773000  1.0
  C  C151  1  0.69499000  0.80942000  0.70762000  1.0
  C  C152  1  0.73151000  0.83289000  0.72572000  1.0
  C  C153  1  0.75987000  0.81861000  0.75495000  1.0
  C  C154  1  0.74910000  0.78084000  0.76771000  1.0
  C  C155  1  0.72878000  0.70525000  0.79194000  1.0
  C  C156  1  0.76479000  0.72903000  0.81051000  1.0
  C  C157  1  0.77553000  0.76687000  0.79877000  1.0
  C  C158  1  0.81252000  0.79091000  0.81691000  1.0
  C  C159  1  0.82433000  0.82707000  0.80268000  1.0
  C  C160  1  0.79912000  0.84091000  0.77150000  1.0
  C  C161  1  0.12371000  0.27115000  0.10782000  1.0
  C  C162  1  0.11619000  0.24531000  0.07163000  1.0
  C  C163  1  0.14492000  0.21082000  0.06335000  1.0
  C  C164  1  0.17685000  0.20042000  0.09231000  1.0
  C  C165  1  0.18005000  0.22376000  0.12988000  1.0
  C  C166  1  0.15453000  0.25978000  0.13713000  1.0
  C  C167  1  0.61769000  0.76616000  0.59322000  1.0
  C  C168  1  0.56852000  0.76717000  0.59630000  1.0
  C  C169  1  0.54707000  0.76452000  0.63330000  1.0
  C  C170  1  0.57466000  0.76098000  0.66718000  1.0
  C  C171  1  0.62364000  0.75667000  0.66347000  1.0
  C  C172  1  0.64518000  0.75915000  0.62631000  1.0
  C  C173  1  0.11001000  0.78120000  0.91040000  1.0
  C  C174  1  0.08447000  0.74479000  0.91377000  1.0
  C  C175  1  0.09116000  0.71154000  0.88339000  1.0
  C  C176  1  0.11356000  0.71756000  0.84744000  1.0
  C  C177  1  0.13567000  0.75450000  0.84360000  1.0
  C  C178  1  0.13674000  0.78498000  0.87616000  1.0
  C  C179  1  0.57803000  0.24506000  0.37224000  1.0
  C  C180  1  0.59510000  0.24577000  0.41152000  1.0
  C  C181  1  0.64318000  0.25278000  0.41958000  1.0
  C  C182  1  0.67327000  0.26246000  0.38922000  1.0
  C  C183  1  0.65628000  0.26112000  0.34972000  1.0
  C  C184  1  0.60886000  0.25090000  0.34116000  1.0
  C  C185  1  0.14134000  0.90822000  0.26841000  1.0
  C  C186  1  0.09230000  0.90409000  0.26226000  1.0
  C  C187  1  0.07327000  0.86570000  0.24860000  1.0
  C  C188  1  0.10220000  0.83186000  0.24505000  1.0
  C  C189  1  0.15146000  0.83653000  0.24504000  1.0
  C  C190  1  0.17099000  0.87536000  0.25585000  1.0
  C  C191  1  0.62490000  0.43024000  0.78683000  1.0
  C  C192  1  0.57649000  0.42210000  0.78220000  1.0
  C  C193  1  0.56068000  0.38203000  0.77313000  1.0
  C  C194  1  0.59299000  0.35040000  0.76865000  1.0
  C  C195  1  0.64150000  0.35888000  0.76821000  1.0
  C  C196  1  0.65750000  0.39892000  0.77817000  1.0
  C  C197  1  0.13388000  0.07556000  0.75807000  1.0
  C  C198  1  0.10204000  0.07197000  0.72506000  1.0
  C  C199  1  0.10813000  0.09842000  0.69548000  1.0
  C  C200  1  0.13765000  0.13257000  0.70361000  1.0
  C  C201  1  0.16463000  0.13827000  0.73894000  1.0
  C  C202  1  0.16580000  0.10791000  0.76401000  1.0
  C  C203  1  0.63694000  0.57998000  0.22203000  1.0
  C  C204  1  0.58786000  0.58417000  0.22368000  1.0
  C  C205  1  0.56815000  0.62277000  0.23124000  1.0
  C  C206  1  0.59738000  0.65689000  0.23806000  1.0
  C  C207  1  0.64634000  0.65232000  0.24177000  1.0
  C  C208  1  0.66620000  0.61369000  0.23291000  1.0
  C  C209  1  0.87208000  0.77891000  0.09769000  1.0
  C  C210  1  0.89530000  0.74247000  0.08360000  1.0
  C  C211  1  0.88919000  0.70895000  0.10508000  1.0
  C  C212  1  0.86854000  0.71418000  0.14331000  1.0
  C  C213  1  0.84829000  0.75129000  0.15818000  1.0
  C  C214  1  0.84745000  0.78258000  0.13396000  1.0
  C  C215  1  0.43991000  0.23541000  0.62942000  1.0
  C  C216  1  0.42079000  0.23337000  0.59066000  1.0
  C  C217  1  0.37178000  0.23477000  0.58556000  1.0
  C  C218  1  0.34237000  0.24199000  0.61908000  1.0
  C  C219  1  0.36176000  0.24532000  0.65794000  1.0
  C  C220  1  0.41040000  0.24009000  0.66287000  1.0
  C  C221  1  0.89351000  0.30651000  0.91261000  1.0
  C  C222  1  0.89616000  0.27371000  0.93566000  1.0
  C  C223  1  0.86284000  0.24190000  0.92758000  1.0
  C  C224  1  0.83370000  0.23951000  0.89368000  1.0
  C  C225  1  0.83819000  0.26794000  0.86675000  1.0
  C  C226  1  0.86608000  0.30257000  0.87726000  1.0
  C  C227  1  0.42744000  0.76082000  0.36769000  1.0
  C  C228  1  0.40763000  0.76295000  0.40591000  1.0
  C  C229  1  0.35896000  0.75766000  0.40998000  1.0
  C  C230  1  0.33106000  0.74524000  0.37617000  1.0
  C  C231  1  0.35105000  0.74238000  0.33784000  1.0
  C  C232  1  0.39884000  0.75221000  0.33367000  1.0
  C  C233  1  0.87540000  0.07931000  0.25267000  1.0
  C  C234  1  0.91003000  0.07975000  0.28325000  1.0
  C  C235  1  0.91416000  0.11470000  0.31164000  1.0
  C  C236  1  0.89263000  0.15082000  0.30396000  1.0
  C  C237  1  0.86283000  0.15102000  0.27066000  1.0
  C  C238  1  0.85083000  0.11454000  0.24764000  1.0
  C  C239  1  0.37208000  0.59560000  0.72074000  1.0
  C  C240  1  0.40156000  0.59947000  0.75520000  1.0
  C  C241  1  0.40036000  0.63604000  0.78159000  1.0
  C  C242  1  0.37209000  0.66823000  0.77257000  1.0
  C  C243  1  0.34128000  0.66289000  0.73961000  1.0
  C  C244  1  0.33966000  0.62575000  0.71520000  1.0
  C  C245  1  0.86590000  0.90599000  0.70639000  1.0
  C  C246  1  0.87326000  0.94106000  0.73399000  1.0
  C  C247  1  0.84564000  0.94650000  0.76897000  1.0
  C  C248  1  0.81780000  0.91466000  0.77946000  1.0
  C  C249  1  0.81763000  0.87719000  0.75538000  1.0
  C  C250  1  0.84007000  0.87341000  0.71799000  1.0
  C  C251  1  0.45423000  0.35391000  0.23527000  1.0
  C  C252  1  0.43157000  0.38947000  0.22782000  1.0
  C  C253  1  0.38229000  0.39027000  0.22562000  1.0
  C  C254  1  0.35572000  0.35699000  0.23463000  1.0
  C  C255  1  0.37849000  0.32090000  0.24091000  1.0
  C  C256  1  0.42790000  0.31910000  0.23938000  1.0
  C  C257  1  0.91386000  0.75064000  0.87248000  1.0
  C  C258  1  0.89810000  0.75741000  0.91227000  1.0
  C  C259  1  0.85302000  0.77316000  0.92041000  1.0
  C  C260  1  0.82478000  0.78397000  0.88920000  1.0
  C  C261  1  0.84128000  0.77828000  0.84969000  1.0
  C  C262  1  0.88550000  0.76104000  0.84126000  1.0
  C  C263  1  0.40811000  0.19655000  0.38488000  1.0
  C  C264  1  0.40544000  0.22763000  0.41760000  1.0
  C  C265  1  0.37232000  0.25881000  0.41565000  1.0
  C  C266  1  0.34689000  0.26139000  0.38019000  1.0
  C  C267  1  0.35504000  0.23380000  0.34599000  1.0
  C  C268  1  0.38442000  0.20061000  0.34879000  1.0
  C  C269  1  0.93115000  0.28468000  0.13289000  1.0
  C  C270  1  0.92865000  0.25476000  0.09872000  1.0
  C  C271  1  0.89914000  0.22042000  0.10099000  1.0
  C  C272  1  0.87310000  0.21690000  0.13559000  1.0
  C  C273  1  0.87995000  0.24421000  0.17020000  1.0
  C  C274  1  0.90932000  0.27788000  0.16894000  1.0
  C  C275  1  0.34947000  0.73135000  0.56929000  1.0
  C  C276  1  0.37952000  0.76557000  0.57171000  1.0
  C  C277  1  0.37505000  0.79609000  0.60469000  1.0
  C  C278  1  0.34771000  0.78877000  0.63770000  1.0
  C  C279  1  0.32214000  0.75260000  0.63667000  1.0
  C  C280  1  0.32000000  0.72571000  0.60132000  1.0
  C  C281  1  0.94032000  0.14269000  0.73874000  1.0
  C  C282  1  0.91753000  0.10522000  0.72900000  1.0
  C  C283  1  0.86830000  0.10363000  0.72452000  1.0
  C  C284  1  0.84169000  0.13878000  0.73425000  1.0
  C  C285  1  0.86454000  0.17629000  0.74453000  1.0
  C  C286  1  0.91397000  0.17823000  0.74430000  1.0
  C  C287  1  0.39791000  0.58773000  0.19361000  1.0
  C  C288  1  0.39778000  0.55852000  0.22059000  1.0
  C  C289  1  0.36387000  0.56128000  0.25127000  1.0
  C  C290  1  0.33397000  0.59466000  0.25718000  1.0
  C  C291  1  0.33958000  0.62671000  0.23435000  1.0
  C  C292  1  0.37058000  0.62270000  0.20175000  1.0
  C  C293  1  0.86852000  0.91235000  0.29104000  1.0
  C  C294  1  0.91533000  0.91118000  0.30406000  1.0
  C  C295  1  0.93363000  0.87484000  0.31444000  1.0
  C  C296  1  0.90865000  0.83859000  0.30376000  1.0
  C  C297  1  0.86461000  0.83930000  0.28479000  1.0
  C  C298  1  0.84313000  0.87643000  0.28111000  1.0
  C  C299  1  0.34945000  0.42927000  0.74955000  1.0
  C  C300  1  0.38528000  0.43280000  0.77875000  1.0
  C  C301  1  0.39031000  0.40201000  0.80351000  1.0
  C  C302  1  0.36641000  0.36509000  0.79360000  1.0
  C  C303  1  0.33575000  0.35991000  0.76045000  1.0
  C  C304  1  0.32498000  0.39279000  0.74015000  1.0
  C  C305  1  0.06494000  0.26501000  0.87157000  1.0
  C  C306  1  0.08519000  0.26583000  0.90978000  1.0
  C  C307  1  0.13420000  0.26312000  0.91391000  1.0
  C  C308  1  0.16239000  0.25519000  0.87979000  1.0
  C  C309  1  0.14188000  0.25295000  0.84143000  1.0
  C  C310  1  0.09348000  0.25996000  0.83754000  1.0
  C  C311  1  0.60823000  0.78944000  0.40379000  1.0
  C  C312  1  0.60120000  0.76050000  0.43053000  1.0
  C  C313  1  0.63056000  0.72618000  0.42745000  1.0
  C  C314  1  0.66176000  0.71856000  0.39534000  1.0
  C  C315  1  0.66315000  0.74430000  0.36556000  1.0
  C  C316  1  0.63771000  0.78049000  0.37055000  1.0
  C  C317  1  0.08317000  0.70276000  0.10574000  1.0
  C  C318  1  0.09120000  0.72177000  0.07145000  1.0
  C  C319  1  0.13514000  0.73998000  0.06639000  1.0
  C  C320  1  0.16773000  0.74484000  0.09796000  1.0
  C  C321  1  0.15703000  0.73021000  0.13403000  1.0
  C  C322  1  0.11649000  0.70651000  0.13685000  1.0
  C  C323  1  0.62214000  0.22164000  0.60319000  1.0
  C  C324  1  0.61310000  0.25131000  0.57754000  1.0
  C  C325  1  0.63895000  0.28802000  0.58361000  1.0
  C  C326  1  0.66920000  0.29626000  0.61679000  1.0
  C  C327  1  0.67197000  0.26936000  0.64553000  1.0
  C  C328  1  0.64938000  0.23154000  0.63811000  1.0
  C  C329  1  0.11072000  0.90963000  0.72478000  1.0
  C  C330  1  0.06149000  0.90715000  0.72309000  1.0
  C  C331  1  0.03892000  0.87014000  0.72598000  1.0
  C  C332  1  0.06545000  0.83579000  0.73048000  1.0
  C  C333  1  0.11441000  0.83924000  0.73649000  1.0
  C  C334  1  0.13698000  0.87659000  0.73403000  1.0
  C  C335  1  0.65003000  0.42633000  0.26535000  1.0
  C  C336  1  0.61977000  0.41931000  0.23171000  1.0
  C  C337  1  0.62410000  0.38293000  0.20557000  1.0
  C  C338  1  0.65157000  0.35146000  0.21708000  1.0
  C  C339  1  0.67766000  0.35727000  0.25294000  1.0
  C  C340  1  0.67914000  0.39546000  0.27560000  1.0
  C  C341  1  0.13500000  0.06082000  0.22177000  1.0
  C  C342  1  0.09959000  0.07197000  0.25002000  1.0
  C  C343  1  0.09651000  0.11241000  0.26766000  1.0
  C  C344  1  0.12807000  0.14148000  0.25687000  1.0
  C  C345  1  0.16336000  0.13024000  0.22886000  1.0
  C  C346  1  0.16705000  0.08991000  0.21152000  1.0
  C  C347  1  0.59437000  0.62596000  0.80002000  1.0
  C  C348  1  0.59329000  0.59023000  0.77243000  1.0
  C  C349  1  0.62522000  0.58674000  0.74013000  1.0
  C  C350  1  0.65219000  0.62023000  0.73236000  1.0
  C  C351  1  0.64741000  0.65738000  0.75644000  1.0
  C  C352  1  0.61981000  0.65984000  0.79107000  1.0
  Br  Br1  1  0.15800000  0.29158000  0.18905000  1.0
  Br  Br2  1  0.09030000  0.32113000  0.11975000  1.0
  Br  Br3  1  0.21519000  0.15303000  0.08152000  1.0
  Br  Br4  1  0.14143000  0.17713000  0.01252000  1.0
  Br  Br5  1  0.71164000  0.74995000  0.61975000  1.0
  Br  Br6  1  0.64715000  0.77372000  0.54348000  1.0
  Br  Br7  1  0.54522000  0.76139000  0.71865000  1.0
  Br  Br8  1  0.47986000  0.76309000  0.63736000  1.0
  Br  Br9  1  0.17430000  0.83286000  0.87275000  1.0
  Br  Br10  1  0.11092000  0.82720000  0.95163000  1.0
  Br  Br11  1  0.11019000  0.67634000  0.80192000  1.0
  Br  Br12  1  0.06903000  0.65746000  0.88806000  1.0
  Br  Br13  1  0.58591000  0.24524000  0.28675000  1.0
  Br  Br14  1  0.51203000  0.23849000  0.36112000  1.0
  Br  Br15  1  0.73662000  0.28024000  0.40251000  1.0
  Br  Br16  1  0.66781000  0.24889000  0.47214000  1.0
  Br  Br17  1  0.23705000  0.88497000  0.24875000  1.0
  Br  Br18  1  0.16862000  0.95988000  0.28810000  1.0
  Br  Br19  1  0.07380000  0.77885000  0.23965000  1.0
  Br  Br20  1  0.00764000  0.85810000  0.23434000  1.0
  Br  Br21  1  0.72338000  0.41176000  0.77530000  1.0
  Br  Br22  1  0.64645000  0.48492000  0.80093000  1.0
  Br  Br23  1  0.57080000  0.29528000  0.75980000  1.0
  Br  Br24  1  0.49539000  0.37042000  0.76183000  1.0
  Br  Br25  1  0.20904000  0.11310000  0.80876000  1.0
  Br  Br26  1  0.13550000  0.03660000  0.79592000  1.0
  Br  Br27  1  0.13661000  0.17428000  0.66894000  1.0
  Br  Br28  1  0.07211000  0.09295000  0.64627000  1.0
  Br  Br29  1  0.73254000  0.60582000  0.24032000  1.0
  Br  Br30  1  0.66386000  0.52755000  0.20756000  1.0
  Br  Br31  1  0.57015000  0.71001000  0.24510000  1.0
  Br  Br32  1  0.50128000  0.62895000  0.23604000  1.0
  Br  Br33  1  0.81296000  0.83115000  0.15122000  1.0
  Br  Br34  1  0.87264000  0.82470000  0.06800000  1.0
  Br  Br35  1  0.87146000  0.67140000  0.17662000  1.0
  Br  Br36  1  0.90787000  0.65542000  0.08322000  1.0
  Br  Br37  1  0.43686000  0.24141000  0.71585000  1.0
  Br  Br38  1  0.50676000  0.23547000  0.63719000  1.0
  Br  Br39  1  0.27631000  0.25102000  0.61154000  1.0
  Br  Br40  1  0.34524000  0.22774000  0.53256000  1.0
  Br  Br41  1  0.87091000  0.34230000  0.84067000  1.0
  Br  Br42  1  0.93119000  0.35484000  0.92485000  1.0
  Br  Br43  1  0.78944000  0.19553000  0.88204000  1.0
  Br  Br44  1  0.85425000  0.20219000  0.96366000  1.0
  Br  Br45  1  0.42570000  0.75181000  0.28120000  1.0
  Br  Br46  1  0.49414000  0.76656000  0.36176000  1.0
  Br  Br47  1  0.26694000  0.72857000  0.38283000  1.0
  Br  Br48  1  0.33074000  0.76746000  0.46188000  1.0
  Br  Br49  1  0.80030000  0.11319000  0.20923000  1.0
  Br  Br50  1  0.86041000  0.03121000  0.21672000  1.0
  Br  Br51  1  0.90503000  0.20047000  0.33800000  1.0
  Br  Br52  1  0.94763000  0.11412000  0.36141000  1.0
  Br  Br53  1  0.29212000  0.61608000  0.67401000  1.0
  Br  Br54  1  0.37692000  0.55158000  0.67805000  1.0
  Br  Br55  1  0.37702000  0.72037000  0.80411000  1.0
  Br  Br56  1  0.43981000  0.64455000  0.82847000  1.0
  Br  Br57  1  0.84028000  0.82213000  0.68453000  1.0
  Br  Br58  1  0.89286000  0.90047000  0.65358000  1.0
  Br  Br59  1  0.78143000  0.92147000  0.82784000  1.0
  Br  Br60  1  0.84516000  0.99762000  0.80266000  1.0
  Br  Br61  1  0.45979000  0.26898000  0.24341000  1.0
  Br  Br62  1  0.52110000  0.35326000  0.24267000  1.0
  Br  Br63  1  0.28883000  0.36250000  0.24183000  1.0
  Br  Br64  1  0.35129000  0.43711000  0.21071000  1.0
  Br  Br65  1  0.90717000  0.75199000  0.78679000  1.0
  Br  Br66  1  0.97481000  0.72825000  0.86042000  1.0
  Br  Br67  1  0.76388000  0.80734000  0.90045000  1.0
  Br  Br68  1  0.82927000  0.77834000  0.97398000  1.0
  Br  Br69  1  0.39621000  0.16296000  0.30175000  1.0
  Br  Br70  1  0.44700000  0.14972000  0.38688000  1.0
  Br  Br71  1  0.30216000  0.30406000  0.37744000  1.0
  Br  Br72  1  0.36129000  0.29881000  0.46101000  1.0
  Br  Br73  1  0.92051000  0.31404000  0.21742000  1.0
  Br  Br74  1  0.96589000  0.33455000  0.13329000  1.0
  Br  Br75  1  0.82569000  0.17530000  0.13516000  1.0
  Br  Br76  1  0.89046000  0.17764000  0.05719000  1.0
  Br  Br77  1  0.27718000  0.68054000  0.59750000  1.0
  Br  Br78  1  0.34875000  0.69079000  0.52312000  1.0
  Br  Br79  1  0.34812000  0.82667000  0.68578000  1.0
  Br  Br80  1  0.40912000  0.84651000  0.60758000  1.0
  Br  Br81  1  0.94541000  0.22986000  0.75276000  1.0
  Br  Br82  1  0.00771000  0.14565000  0.74422000  1.0
  Br  Br83  1  0.77431000  0.13441000  0.73787000  1.0
  Br  Br84  1  0.83693000  0.05265000  0.70932000  1.0
  Br  Br85  1  0.38001000  0.66714000  0.17126000  1.0
  Br  Br86  1  0.43858000  0.58275000  0.14766000  1.0
  Br  Br87  1  0.28716000  0.59816000  0.29861000  1.0
  Br  Br88  1  0.35902000  0.52055000  0.28683000  1.0
  Br  Br89  1  0.78054000  0.87795000  0.25925000  1.0
  Br  Br90  1  0.83976000  0.96339000  0.28667000  1.0
  Br  Br91  1  0.93579000  0.78782000  0.31228000  1.0
  Br  Br92  1  0.99408000  0.87427000  0.34033000  1.0
  Br  Br93  1  0.27852000  0.38684000  0.69796000  1.0
  Br  Br94  1  0.33252000  0.47477000  0.72351000  1.0
  Br  Br95  1  0.37878000  0.32041000  0.82293000  1.0
  Br  Br96  1  0.43201000  0.40872000  0.84920000  1.0
  Br  Br97  1  0.06633000  0.26130000  0.78527000  1.0
  Br  Br98  1  0.99794000  0.26866000  0.86562000  1.0
  Br  Br99  1  0.22814000  0.24378000  0.88582000  1.0
  Br  Br100  1  0.16237000  0.26876000  0.96635000  1.0
  Br  Br101  1  0.63933000  0.81586000  0.32954000  1.0
  Br  Br102  1  0.57605000  0.84048000  0.41018000  1.0
  Br  Br103  1  0.70124000  0.67155000  0.39062000  1.0
  Br  Br104  1  0.62874000  0.68883000  0.46669000  1.0
  Br  Br105  1  0.10504000  0.68192000  0.18462000  1.0
  Br  Br106  1  0.02500000  0.67508000  0.11224000  1.0
  Br  Br107  1  0.22570000  0.77380000  0.09317000  1.0
  Br  Br108  1  0.15069000  0.75833000  0.01636000  1.0
  Br  Br109  1  0.65094000  0.19494000  0.67803000  1.0
  Br  Br110  1  0.59555000  0.16797000  0.59314000  1.0
  Br  Br111  1  0.70536000  0.34569000  0.62446000  1.0
  Br  Br112  1  0.63352000  0.32809000  0.54730000  1.0
  Br  Br113  1  0.20267000  0.88432000  0.74743000  1.0
  Br  Br114  1  0.14206000  0.95847000  0.71483000  1.0
  Br  Br115  1  0.03444000  0.78415000  0.72949000  1.0
  Br  Br116  1  0.97168000  0.86682000  0.72664000  1.0
  Br  Br117  1  0.71940000  0.40445000  0.32211000  1.0
  Br  Br118  1  0.65174000  0.47797000  0.29817000  1.0
  Br  Br119  1  0.64927000  0.29892000  0.18601000  1.0
  Br  Br120  1  0.58953000  0.37367000  0.15578000  1.0
  Br  Br121  1  0.21589000  0.07491000  0.17331000  1.0
  Br  Br122  1  0.14007000  0.00583000  0.19708000  1.0
  Br  Br123  1  0.12147000  0.19732000  0.27877000  1.0
  Br  Br124  1  0.04681000  0.12925000  0.30413000  1.0
  Br  Br125  1  0.61308000  0.71090000  0.82424000  1.0
  Br  Br126  1  0.56116000  0.63030000  0.85005000  1.0
  Br  Br127  1  0.69448000  0.61607000  0.68761000  1.0
  Br  Br128  1  0.63362000  0.53610000  0.70665000  1.0
  O  O1  1  0.96768000  0.03867000  0.31237000  1.0
  O  O2  1  0.06068000  0.96036000  0.30014000  1.0
  O  O3  1  0.05799000  0.03790000  0.29668000  1.0
  O  O4  1  0.97316000  0.96216000  0.32332000  1.0
  O  O5  1  0.95081000  0.95141000  0.26012000  1.0
  O  O6  1  0.04197000  0.02090000  0.23275000  1.0
  O  O7  1  0.03636000  0.94375000  0.23810000  1.0
  O  O8  1  0.95341000  0.02657000  0.24807000  1.0
  O  O9  1  0.52851000  0.47671000  0.81048000  1.0
  O  O10  1  0.44519000  0.55934000  0.79742000  1.0
  O  O11  1  0.43702000  0.48391000  0.81030000  1.0
  O  O12  1  0.53668000  0.55408000  0.80701000  1.0
  O  O13  1  0.54036000  0.53959000  0.74190000  1.0
  O  O14  1  0.44041000  0.46960000  0.74486000  1.0
  O  O15  1  0.45133000  0.54463000  0.73251000  1.0
  O  O16  1  0.53103000  0.46232000  0.74486000  1.0
  O  O17  1  0.04010000  0.03369000  0.69288000  1.0
  O  O18  1  0.93131000  0.97312000  0.69676000  1.0
  O  O19  1  0.94994000  0.04858000  0.69398000  1.0
  O  O20  1  0.02094000  0.95627000  0.69098000  1.0
  O  O21  1  0.02372000  0.96384000  0.75691000  1.0
  O  O22  1  0.95884000  0.05874000  0.75952000  1.0
  O  O23  1  0.93576000  0.98286000  0.76223000  1.0
  O  O24  1  0.04596000  0.03871000  0.75803000  1.0
  O  O25  1  0.54539000  0.52801000  0.19043000  1.0
  O  O26  1  0.47283000  0.43607000  0.19270000  1.0
  O  O27  1  0.45505000  0.51263000  0.18928000  1.0
  O  O28  1  0.56291000  0.45244000  0.19439000  1.0
  O  O29  1  0.55903000  0.46175000  0.25992000  1.0
  O  O30  1  0.45539000  0.52498000  0.25484000  1.0
  O  O31  1  0.46965000  0.44839000  0.25847000  1.0
  O  O32  1  0.54484000  0.53775000  0.25639000  1.0
  O  O33  1  0.93900000  0.70883000  0.02768000  1.0
  O  O34  1  0.03161000  0.70994000  0.95076000  1.0
  O  O35  1  0.03072000  0.69745000  0.02524000  1.0
  O  O36  1  0.94086000  0.71462000  0.95017000  1.0
  O  O37  1  0.94790000  0.78029000  0.96706000  1.0
  O  O38  1  0.04129000  0.76316000  0.03856000  1.0
  O  O39  1  0.03795000  0.77514000  0.96536000  1.0
  O  O40  1  0.95071000  0.77355000  0.04424000  1.0
  O  O41  1  0.47128000  0.20255000  0.53964000  1.0
  O  O42  1  0.55078000  0.20826000  0.45392000  1.0
  O  O43  1  0.56223000  0.21136000  0.53058000  1.0
  O  O44  1  0.46007000  0.19997000  0.46163000  1.0
  O  O45  1  0.45548000  0.26575000  0.46554000  1.0
  O  O46  1  0.55081000  0.27660000  0.54023000  1.0
  O  O47  1  0.54555000  0.27460000  0.46317000  1.0
  O  O48  1  0.46018000  0.26815000  0.54369000  1.0
  O  O49  1  0.95565000  0.30042000  0.97996000  1.0
  O  O50  1  0.06152000  0.28690000  0.04102000  1.0
  O  O51  1  0.04569000  0.29734000  0.96713000  1.0
  O  O52  1  0.97144000  0.29166000  0.05598000  1.0
  O  O53  1  0.96529000  0.22650000  0.04052000  1.0
  O  O54  1  0.03902000  0.23134000  0.95256000  1.0
  O  O55  1  0.05386000  0.22132000  0.02711000  1.0
  O  O56  1  0.94899000  0.23486000  0.96635000  1.0
  O  O57  1  0.52614000  0.80020000  0.54934000  1.0
  O  O58  1  0.45334000  0.79842000  0.45826000  1.0
  O  O59  1  0.43616000  0.79886000  0.53417000  1.0
  O  O60  1  0.54399000  0.79657000  0.47328000  1.0
  O  O61  1  0.53962000  0.73054000  0.46403000  1.0
  O  O62  1  0.43845000  0.73291000  0.53034000  1.0
  O  O63  1  0.44931000  0.73207000  0.45405000  1.0
  O  O64  1  0.52784000  0.73366000  0.54073000  1.0
