# generated using pymatgen
data_H13C20(N3O2)2
_symmetry_space_group_name_H-M   'P 1'
_cell_length_a   9.98450000
_cell_length_b   40.82130000
_cell_length_c   51.79540000
_cell_angle_alpha   90.23870000
_cell_angle_beta   90.56040000
_cell_angle_gamma   90.44480000
_symmetry_Int_Tables_number   1
_chemical_formula_structural   H13C20(N3O2)2
_chemical_formula_sum   'H130 C200 N60 O40'
_cell_volume   21108.94726837
_cell_formula_units_Z   10
loop_
 _symmetry_equiv_pos_site_id
 _symmetry_equiv_pos_as_xyz
  1  'x, y, z'
loop_
 _atom_site_type_symbol
 _atom_site_label
 _atom_site_symmetry_multiplicity
 _atom_site_fract_x
 _atom_site_fract_y
 _atom_site_fract_z
 _atom_site_occupancy
  C  1  1  0.96641700  0.01660400  0.01460133  1
  C  2  1  0.92195500  0.99599833  0.99408667  1
  C  3  1  0.91888100  0.96158533  0.99666833  1
  C  4  1  0.95902600  0.94745633  0.02026967  1
  C  5  1  0.00377300  0.96718133  0.04120000  1
  C  6  1  0.00806400  0.00156400  0.03790000  1
  C  10  1  0.96650500  0.05157933  0.01215133  1
  C  11  1  0.00803800  0.06676833  0.98899733  1
  C  12  1  0.00385600  0.10113667  0.98568333  1
  C  13  1  0.95947200  0.12070600  0.00646633  1
  C  14  1  0.91945800  0.10643033  0.02992567  1
  C  15  1  0.92234000  0.07202800  0.03251267  1
  C  19  1  0.87257500  0.12610033  0.04946033  1
  C  20  1  0.03673900  0.95389000  0.06504500  1
  C  21  1  0.87178700  0.94172967  0.97697467  1
  C  22  1  0.03672500  0.11453833  0.96195267  1
  C  27  1  0.97964700  0.79157900  0.32786067  1
  C  28  1  0.02475000  0.79225267  0.30198000  1
  C  29  1  0.02643700  0.82136667  0.28738633  1
  C  30  1  0.98826300  0.85087500  0.29949600  1
  C  31  1  0.94596200  0.85169400  0.32544600  1
  C  32  1  0.93910100  0.82175100  0.33905600  1
  C  36  1  0.97944500  0.76144667  0.34224200  1
  C  37  1  0.95023400  0.73072333  0.33032600  1
  C  38  1  0.95835800  0.70071167  0.34387867  1
  C  39  1  0.99169400  0.70198533  0.37048567  1
  C  40  1  0.01826700  0.73199433  0.38316500  1
  C  41  1  0.01373000  0.76131133  0.36886133  1
  C  45  1  0.04943200  0.73209100  0.40916433  1
  C  46  1  0.91099800  0.88122900  0.33700133  1
  C  47  1  0.06289800  0.82082600  0.26163433  1
  C  48  1  0.93377000  0.67091567  0.33128933  1
  C  53  1  0.97951500  0.27661133  0.69886667  1
  C  54  1  0.02443400  0.27610167  0.72493067  1
  C  55  1  0.02597100  0.24699033  0.73953000  1
  C  56  1  0.98790500  0.21734033  0.72725767  1
  C  57  1  0.94576300  0.21637167  0.70113867  1
  C  58  1  0.93898300  0.24629167  0.68750700  1
  C  62  1  0.97943000  0.30674333  0.68448800  1
  C  63  1  0.95018800  0.33735733  0.69628767  1
  C  64  1  0.95835100  0.36739633  0.68276333  1
  C  65  1  0.99176700  0.36624733  0.65628800  1
  C  66  1  0.01842600  0.33633933  0.64371433  1
  C  67  1  0.01382800  0.30700700  0.65800233  1
  C  71  1  0.04965900  0.33636300  0.61783533  1
  C  72  1  0.91082200  0.18671500  0.68943900  1
  C  73  1  0.06218200  0.24767600  0.76543467  1
  C  74  1  0.93369000  0.39710167  0.69524600  1
  C  79  1  0.95684000  0.26168433  0.31911233  1
  C  80  1  0.95802800  0.25949367  0.29166567  1
  C  81  1  0.96774800  0.22916467  0.27857933  1
  C  82  1  0.96869000  0.20006000  0.29310233  1
  C  83  1  0.96497800  0.20046367  0.32033700  1
  C  84  1  0.96336600  0.23141200  0.33274733  1
  C  88  1  0.94994900  0.29298467  0.33260767  1
  C  89  1  0.99217400  0.32310100  0.32129067  1
  C  90  1  0.98454500  0.35345767  0.33450567  1
  C  91  1  0.94341800  0.35347933  0.36049500  1
  C  92  1  0.90384500  0.32437200  0.37285167  1
  C  93  1  0.90240700  0.29495033  0.35839133  1
  C  97  1  0.87757100  0.32515400  0.39908967  1
  C  98  1  0.95955400  0.17139067  0.33452500  1
  C  99  1  0.98060400  0.22631867  0.25210800  1
  C  100  1  0.02612700  0.38275400  0.32356067  1
  C  105  1  0.95713700  0.80645167  0.70751733  1
  C  106  1  0.95880300  0.80862767  0.73496800  1
  C  107  1  0.96891500  0.83897733  0.74809967  1
  C  108  1  0.96982000  0.86810233  0.73360367  1
  C  109  1  0.96560000  0.86770700  0.70635567  1
  C  110  1  0.96354600  0.83676200  0.69392267  1
  C  114  1  0.94994000  0.77513200  0.69398833  1
  C  115  1  0.99204100  0.74515500  0.70544633  1
  C  116  1  0.98420000  0.71477467  0.69219533  1
  C  117  1  0.94288400  0.71462167  0.66606033  1
  C  118  1  0.90353900  0.74360433  0.65356533  1
  C  119  1  0.90232300  0.77301300  0.66802900  1
  C  123  1  0.87742700  0.74276233  0.62722033  1
  C  124  1  0.96017000  0.89676700  0.69215800  1
  C  125  1  0.98252200  0.84180700  0.77460867  1
  C  126  1  0.02568100  0.68562300  0.70329000  1
  C  131  1  0.99475200  0.91307000  0.09565067  1
  C  132  1  0.93905100  0.92768133  0.11785333  1
  C  133  1  0.94695300  0.91086967  0.14155500  1
  C  134  1  0.00679600  0.87967067  0.14345300  1
  C  135  1  0.06136700  0.86476367  0.12103667  1
  C  136  1  0.05341500  0.88185033  0.09733433  1
  C  138  1  0.00845300  0.86474300  0.16814633  1
  C  139  1  0.88706600  0.85636933  0.18023433  1
  C  140  1  0.88371900  0.84606000  0.20622333  1
  C  141  1  0.00650100  0.84371333  0.22023400  1
  C  142  1  0.12987200  0.85172200  0.20826667  1
  C  143  1  0.12929900  0.86195133  0.18220833  1
  C  161  1  0.99475400  0.15517500  0.93116967  1
  C  162  1  0.93881400  0.14035967  0.90877400  1
  C  163  1  0.94662500  0.15718767  0.88509533  1
  C  164  1  0.00660600  0.18859767  0.88339900  1
  C  165  1  0.06141700  0.20370633  0.90600267  1
  C  166  1  0.05348000  0.18661167  0.92968500  1
  C  168  1  0.00822300  0.20351133  0.85870467  1
  C  169  1  0.88682100  0.21147233  0.84618167  1
  C  170  1  0.88340200  0.22178100  0.82018233  1
  C  171  1  0.00610700  0.22449867  0.80659733  1
  C  172  1  0.12948500  0.21688667  0.81899833  1
  C  173  1  0.12897400  0.20663667  0.84505133  1
  C  191  1  0.93145300  0.15022067  0.09053800  1
  C  192  1  0.01926500  0.14478600  0.11165100  1
  C  193  1  0.00790000  0.16427533  0.13413900  1
  C  194  1  0.91124100  0.18927767  0.13605200  1
  C  195  1  0.82373900  0.19520400  0.11476000  1
  C  196  1  0.83594900  0.17555000  0.09232300  1
  C  198  1  0.90105400  0.20606300  0.16005800  1
  C  199  1  0.00618500  0.22635200  0.16930700  1
  C  200  1  0.00413600  0.24016733  0.19441167  1
  C  201  1  0.89417300  0.23271733  0.21077267  1
  C  202  1  0.78559600  0.21332533  0.20137533  1
  C  203  1  0.79007400  0.20030500  0.17606800  1
  C  221  1  0.93014700  0.91811400  0.93596800  1
  C  222  1  0.01817900  0.92389933  0.91522300  1
  C  223  1  0.00721100  0.90434700  0.89269633  1
  C  224  1  0.91070500  0.87894733  0.89038433  1
  C  225  1  0.82292200  0.87268333  0.91129900  1
  C  226  1  0.83477100  0.89239500  0.93378167  1
  C  228  1  0.90078900  0.86214900  0.86632900  1
  C  229  1  0.00585900  0.84219267  0.85755067  1
  C  230  1  0.00413000  0.82837800  0.83243567  1
  C  231  1  0.89465500  0.83553400  0.81556767  1
  C  232  1  0.78601700  0.85452900  0.82450067  1
  C  233  1  0.79014400  0.86754600  0.84983200  1
  C  251  1  0.97867000  0.75186800  0.45057300  1
  C  252  1  0.90787200  0.77830767  0.46150767  1
  C  253  1  0.90002400  0.78110467  0.48867100  1
  C  254  1  0.95976000  0.75783900  0.50522467  1
  C  255  1  0.02905100  0.73080200  0.49433167  1
  C  256  1  0.03779500  0.72850600  0.46713867  1
  C  258  1  0.94690000  0.76223300  0.53233633  1
  C  259  1  0.82018900  0.76075533  0.54412667  1
  C  260  1  0.80614500  0.76318200  0.57123400  1
  C  261  1  0.92386100  0.76649900  0.58683267  1
  C  262  1  0.05126800  0.76955800  0.57516100  1
  C  263  1  0.06115400  0.76766600  0.54800267  1
  C  281  1  0.97879800  0.31636667  0.57614467  1
  C  282  1  0.90797800  0.28967433  0.56492467  1
  C  283  1  0.90018500  0.28686433  0.53772967  1
  C  284  1  0.96008100  0.31034933  0.52141467  1
  C  285  1  0.02955100  0.33761500  0.53258633  1
  C  286  1  0.03810900  0.33994333  0.55981467  1
  C  288  1  0.94715000  0.30594100  0.49425167  1
  C  289  1  0.82042900  0.30702367  0.48199233  1
  C  290  1  0.80628100  0.30454467  0.45483333  1
  C  291  1  0.92392100  0.30159900  0.43966567  1
  C  292  1  0.05133200  0.29895300  0.45180800  1
  C  293  1  0.06131800  0.30090400  0.47900133  1
  C  311  1  0.98294900  0.11214767  0.33033233  1
  C  312  1  0.05427800  0.09036167  0.31437467  1
  C  313  1  0.04779200  0.05639633  0.31932467  1
  C  314  1  0.97003000  0.04342733  0.33961133  1
  C  315  1  0.89691700  0.06530200  0.35558333  1
  C  316  1  0.90498700  0.09942233  0.35064267  1
  C  318  1  0.96451600  0.00863733  0.34191900  1
  C  319  1  0.08246300  0.99074433  0.34674033  1
  C  320  1  0.08534200  0.95618567  0.34468233  1
  C  321  1  0.96537000  0.93901567  0.33795833  1
  C  322  1  0.84527700  0.95657033  0.33333333  1
  C  323  1  0.84619300  0.99116767  0.33556133  1
  C  341  1  0.98367900  0.95608667  0.69640133  1
  C  342  1  0.05496000  0.97816567  0.71262233  1
  C  343  1  0.04840600  0.01210267  0.70763333  1
  C  344  1  0.97052000  0.02475400  0.68706067  1
  C  345  1  0.89726300  0.00258467  0.67085033  1
  C  346  1  0.90543000  0.96850067  0.67583367  1
  C  348  1  0.96481900  0.05952233  0.68474167  1
  C  349  1  0.08265000  0.07789767  0.68034600  1
  C  350  1  0.08534600  0.11246933  0.68240900  1
  C  351  1  0.96525200  0.12915600  0.68865333  1
  C  352  1  0.84533400  0.11109300  0.69286933  1
  C  353  1  0.84642800  0.07650100  0.69066500  1
  C  371  1  0.97165400  0.43961167  0.32085267  1
  C  372  1  0.87356100  0.45767033  0.30732400  1
  C  373  1  0.88162700  0.49230567  0.30730967  1
  C  374  1  0.98188700  0.50950967  0.32147700  1
  C  375  1  0.07941800  0.49127400  0.33557567  1
  C  376  1  0.07352900  0.45658933  0.33458567  1
  C  378  1  0.97362200  0.54439800  0.32301600  1
  C  379  1  0.86186100  0.55929200  0.33461533  1
  C  380  1  0.85758800  0.59342900  0.33946500  1
  C  381  1  0.96820800  0.61325033  0.33193467  1
  C  382  1  0.07989400  0.59886933  0.31971367  1
  C  383  1  0.07997400  0.56471067  0.31487200  1
  C  401  1  0.97153500  0.62854133  0.70575867  1
  C  402  1  0.87397000  0.61009767  0.71903700  1
  C  403  1  0.88218000  0.57549500  0.71909533  1
  C  404  1  0.98213100  0.55868800  0.70521200  1
  C  405  1  0.07917300  0.57730133  0.69136100  1
  C  406  1  0.07291200  0.61196000  0.69225833  1
  C  408  1  0.97394900  0.52376967  0.70365933  1
  C  409  1  0.86213700  0.50843000  0.69167400  1
  C  410  1  0.85782100  0.47426900  0.68684300  1
  C  411  1  0.96857900  0.45488833  0.69475267  1
  C  412  1  0.08039900  0.46971967  0.70733500  1
  C  413  1  0.08053500  0.50388933  0.71213000  1
  H  7  1  0.88761300  0.00614567  0.97724167  1
  H  8  1  0.04131900  0.01600500  0.05291200  1
  H  9  1  0.95500000  0.92247867  0.02224400  1
  H  16  1  0.04107200  0.05244433  0.97409900  1
  H  17  1  0.95553900  0.14567000  0.00447833  1
  H  18  1  0.88800500  0.06175833  0.04923267  1
  H  23  1  0.78412400  0.13670967  0.04716600  1
  H  24  1  0.09391200  0.96686167  0.07729167  1
  H  25  1  0.78451100  0.93030700  0.97917133  1
  H  26  1  0.09387700  0.10178667  0.94991733  1
  H  33  1  0.05741700  0.77114267  0.29344167  1
  H  34  1  0.90438800  0.82209467  0.35758600  1
  H  35  1  0.99093700  0.87221833  0.28913267  1
  H  42  1  0.92268500  0.73006367  0.31124033  1
  H  43  1  0.99534600  0.68073600  0.38095533  1
  H  44  1  0.03947500  0.78277667  0.37800167  1
  H  49  1  0.12121800  0.71737400  0.41552833  1
  H  50  1  0.83725900  0.88187267  0.34975433  1
  H  51  1  0.13279000  0.80545467  0.25556133  1
  H  52  1  0.88047300  0.67047067  0.31494600  1
  H  59  1  0.05705300  0.29733400  0.73360233  1
  H  60  1  0.90434300  0.24582333  0.66884067  1
  H  61  1  0.99050700  0.19600267  0.73762600  1
  H  68  1  0.92255800  0.33791400  0.71526433  1
  H  69  1  0.99545300  0.38751067  0.64583033  1
  H  70  1  0.03959800  0.28563933  0.64896267  1
  H  75  1  0.12149300  0.35134533  0.61175367  1
  H  76  1  0.83695300  0.18578567  0.67643433  1
  H  77  1  0.13191800  0.26334033  0.77179433  1
  H  78  1  0.87991600  0.39735967  0.71132933  1
  H  85  1  0.95217300  0.28017600  0.28069800  1
  H  86  1  0.96912500  0.23146100  0.35243600  1
  H  87  1  0.97154000  0.17803600  0.28351100  1
  H  94  1  0.03112000  0.32327700  0.30312833  1
  H  95  1  0.94592800  0.37499100  0.37084300  1
  H  96  1  0.86595700  0.27454667  0.36732467  1
  H  101  1  0.84037100  0.34547667  0.40686967  1
  H  102  1  0.93352700  0.17200700  0.35299433  1
  H  103  1  0.04760600  0.21031867  0.24558200  1
  H  104  1  0.11963900  0.38495067  0.31733800  1
  H  111  1  0.95304900  0.78791900  0.74591133  1
  H  112  1  0.96904000  0.83675433  0.67425300  1
  H  113  1  0.97304300  0.89012533  0.74321900  1
  H  120  1  0.03115400  0.74510367  0.72374167  1
  H  121  1  0.94542200  0.69313700  0.65570267  1
  H  122  1  0.86601800  0.79329600  0.65896200  1
  H  127  1  0.83977500  0.72232667  0.61932533  1
  H  128  1  0.93378800  0.89606400  0.67360833  1
  H  129  1  0.05011500  0.85792133  0.78136500  1
  H  130  1  0.11871800  0.68382700  0.71012800  1
  H  137  1  0.09029000  0.87130867  0.08091133  1
  H  144  1  0.79889500  0.85896833  0.17017600  1
  H  145  1  0.21751200  0.86910733  0.17393667  1
  H  146  1  0.90714300  0.92170100  0.15760433  1
  H  148  1  0.67970200  0.84107800  0.20703067  1
  H  149  1  0.75480900  0.83180133  0.23467033  1
  H  153  1  0.15253100  0.82460900  0.10564367  1
  H  154  1  0.12138600  0.82135067  0.13687300  1
  H  167  1  0.09052900  0.19729067  0.94623500  1
  H  174  1  0.79870900  0.20865133  0.85594667  1
  H  175  1  0.21722200  0.19984133  0.85365600  1
  H  176  1  0.90665400  0.14620767  0.86890900  1
  H  178  1  0.67945000  0.22617100  0.81866467  1
  H  179  1  0.75447900  0.23566700  0.79128633  1
  H  183  1  0.15302800  0.24417767  0.92169733  1
  H  184  1  0.12175000  0.24730233  0.89035400  1
  H  197  1  0.77459400  0.18010433  0.07685500  1
  H  204  1  0.08702600  0.23057933  0.15771800  1
  H  205  1  0.71416100  0.18513533  0.16981100  1
  H  206  1  0.07018800  0.15957133  0.14950200  1
  H  208  1  0.18256100  0.26451400  0.19089400  1
  H  209  1  0.10832500  0.27053333  0.21897800  1
  H  213  1  0.67276300  0.22327567  0.10000800  1
  H  214  1  0.72161300  0.23429267  0.12943700  1
  H  227  1  0.77315100  0.88760900  0.94897600  1
  H  234  1  0.08642900  0.83821500  0.86950233  1
  H  235  1  0.71423600  0.88245400  0.85575967  1
  H  236  1  0.06962300  0.90930967  0.87759267  1
  H  238  1  0.18180000  0.80443500  0.83681767  1
  H  239  1  0.10804000  0.79818700  0.80840233  1
  H  243  1  0.67176700  0.84402667  0.92539867  1
  H  244  1  0.72105700  0.83319800  0.89618133  1
  H  257  1  0.08441100  0.70866900  0.45927167  1
  H  264  1  0.73665800  0.75724533  0.53277067  1
  H  265  1  0.15369700  0.76917000  0.53970933  1
  H  266  1  0.84954300  0.80054100  0.49636267  1
  H  268  1  0.60167700  0.76067800  0.57029133  1
  H  269  1  0.66576100  0.76607100  0.59960167  1
  H  273  1  0.12808200  0.68786533  0.50077133  1
  H  274  1  0.07378900  0.70558000  0.52739667  1
  H  287  1  0.08494700  0.35992000  0.56786867  1
  H  294  1  0.73694800  0.31023067  0.49304333  1
  H  295  1  0.15384900  0.29964800  0.48764000  1
  H  296  1  0.84961100  0.26725633  0.52983467  1
  H  298  1  0.60184800  0.30648000  0.45502333  1
  H  299  1  0.66570100  0.30128933  0.42594267  1
  H  303  1  0.12906800  0.38086833  0.52654867  1
  H  304  1  0.07485600  0.36297833  0.49970000  1
  H  317  1  0.85075800  0.11526267  0.36168767  1
  H  324  1  0.16951200  0.00328933  0.35079267  1
  H  325  1  0.76108400  0.00378967  0.33093467  1
  H  326  1  0.09855500  0.04090833  0.30733000  1
  H  328  1  0.28524000  0.95273967  0.35318733  1
  H  329  1  0.21087800  0.91691800  0.34773767  1
  H  333  1  0.77238600  0.07010067  0.38643233  1
  H  334  1  0.81529700  0.03177633  0.38027133  1
  H  347  1  0.85111100  0.95244333  0.66460767  1
  H  354  1  0.16978700  0.06571400  0.67664100  1
  H  355  1  0.76141500  0.06353033  0.69499133  1
  H  356  1  0.09911100  0.02779700  0.71981900  1
  H  358  1  0.28520100  0.11672967  0.67462800  1
  H  359  1  0.21067000  0.15224833  0.67977133  1
  H  363  1  0.77243300  0.99728033  0.63957633  1
  H  364  1  0.81538800  0.03577533  0.64586500  1
  H  377  1  0.13851900  0.44335500  0.34578067  1
  H  384  1  0.78505700  0.54473033  0.34099267  1
  H  385  1  0.16243800  0.55437067  0.30664433  1
  H  386  1  0.80916000  0.50508967  0.29760200  1
  H  388  1  0.67506900  0.59201400  0.35698900  1
  H  389  1  0.74254200  0.62916000  0.35572767  1
  H  393  1  0.23653400  0.49230567  0.36123633  1
  H  394  1  0.17705100  0.52889700  0.35436833  1
  H  407  1  0.13771400  0.62545033  0.68127100  1
  H  414  1  0.78508100  0.52267800  0.68508800  1
  H  415  1  0.16295900  0.51455533  0.72067667  1
  H  416  1  0.81004100  0.56242667  0.72861233  1
  H  418  1  0.67512700  0.47496333  0.66869500  1
  H  419  1  0.74264300  0.43808200  0.67020067  1
  H  423  1  0.23567800  0.57688733  0.66615200  1
  H  424  1  0.17683100  0.54004967  0.67293133  1
  N  147  1  0.76262000  0.83931300  0.21696500  1
  N  150  1  0.25058800  0.85114767  0.22283367  1
  N  151  1  0.87483000  0.95837500  0.11576633  1
  N  152  1  0.11755100  0.83449467  0.12130400  1
  N  159  1  0.99918800  0.83878867  0.24545567  1
  N  160  1  0.98303600  0.92693967  0.07268100  1
  N  177  1  0.76232000  0.22818633  0.80902233  1
  N  180  1  0.25010900  0.21788633  0.80485733  1
  N  181  1  0.87447200  0.10943933  0.91064600  1
  N  182  1  0.11774300  0.23417500  0.90592267  1
  N  189  1  0.99868600  0.22938767  0.78134900  1
  N  190  1  0.98306100  0.14128700  0.95410800  1
  N  207  1  0.10838000  0.25950233  0.20231767  1
  N  210  1  0.67738100  0.20598567  0.21794833  1
  N  211  1  0.11558200  0.11956900  0.10998100  1
  N  212  1  0.73060200  0.21938800  0.11490500  1
  N  219  1  0.89668200  0.23902767  0.23610033  1
  N  220  1  0.94626900  0.13173300  0.06947400  1
  N  237  1  0.10822500  0.80933000  0.82501567  1
  N  240  1  0.67815700  0.86151200  0.80745000  1
  N  241  1  0.11436000  0.94951400  0.91728933  1
  N  242  1  0.72982000  0.84813667  0.91075200  1
  N  249  1  0.89741800  0.82917667  0.79026200  1
  N  250  1  0.94470100  0.93668167  0.95708133  1
  N  267  1  0.68090500  0.76235700  0.58134167  1
  N  270  1  0.16737100  0.77347700  0.59090100  1
  N  271  1  0.84604300  0.80140633  0.44499200  1
  N  272  1  0.08365600  0.70640200  0.50879167  1
  N  279  1  0.92311100  0.76547200  0.61251133  1
  N  280  1  0.97836300  0.74879867  0.42494567  1
  N  297  1  0.68101600  0.30495167  0.44426800  1
  N  300  1  0.16734100  0.29538333  0.43649533  1
  N  301  1  0.84601700  0.26634533  0.58119133  1
  N  302  1  0.08433100  0.36221433  0.51834933  1
  N  309  1  0.92309000  0.30260567  0.41398233  1
  N  310  1  0.97853100  0.31941867  0.60177333  1
  N  327  1  0.20391700  0.94063000  0.34864333  1
  N  330  1  0.72866500  0.93945033  0.32499500  1
  N  331  1  0.12984100  0.10299633  0.29358367  1
  N  332  1  0.82067000  0.05475367  0.37558200  1
  N  339  1  0.97488900  0.90763500  0.33125867  1
  N  340  1  0.98349000  0.14359433  0.32384267  1
  N  357  1  0.20386100  0.12850567  0.67889067  1
  N  360  1  0.72871300  0.12774200  0.70079333  1
  N  361  1  0.13063100  0.96584533  0.73369433  1
  N  362  1  0.82080400  0.01282267  0.65058733  1
  N  369  1  0.97482800  0.16056300  0.69540133  1
  N  370  1  0.98428000  0.92465067  0.70292600  1
  N  387  1  0.74981900  0.60593433  0.35189933  1
  N  390  1  0.19118900  0.61888867  0.31335967  1
  N  391  1  0.76833800  0.44054900  0.29451967  1
  N  392  1  0.17378100  0.50546267  0.35128067  1
  N  399  1  0.97988700  0.64393933  0.34038067  1
  N  400  1  0.95071500  0.40802367  0.32563467  1
  N  417  1  0.74989300  0.46133400  0.67406433  1
  N  420  1  0.19177100  0.45014167  0.71409100  1
  N  421  1  0.76906900  0.62681833  0.73153800  1
  N  422  1  0.17315100  0.56348467  0.67592067  1
  N  429  1  0.98024900  0.42423367  0.68637700  1
  N  430  1  0.95060000  0.66002267  0.70081133  1
  O  155  1  0.33322900  0.83158700  0.21325433  1
  O  156  1  0.75352000  0.95635800  0.12184433  1
  O  157  1  0.30421900  0.87905200  0.22437000  1
  O  158  1  0.93098800  0.97961933  0.12986600  1
  O  185  1  0.33295300  0.23771700  0.81474433  1
  O  186  1  0.75312300  0.11102067  0.90414167  1
  O  187  1  0.30354700  0.19016833  0.80348433  1
  O  188  1  0.93044500  0.08838267  0.89675567  1
  O  215  1  0.56837900  0.21609000  0.20876800  1
  O  216  1  0.09741100  0.09811667  0.12695200  1
  O  217  1  0.66708400  0.17572867  0.22195367  1
  O  218  1  0.23268200  0.13075400  0.11236900  1
  O  245  1  0.56893400  0.85101900  0.81613733  1
  O  246  1  0.09629600  0.97087800  0.90023033  1
  O  247  1  0.66810000  0.89173800  0.80342100  1
  O  248  1  0.23153700  0.93880700  0.91540400  1
  O  275  1  0.24732600  0.75014567  0.58799000  1
  O  276  1  0.89271700  0.82973667  0.44867533  1
  O  277  1  0.22775400  0.79983400  0.58605533  1
  O  278  1  0.72150900  0.80205267  0.44822767  1
  O  305  1  0.24756700  0.31896933  0.43968567  1
  O  306  1  0.89260100  0.23818500  0.57768167  1
  O  307  1  0.22745000  0.26922133  0.44157633  1
  O  308  1  0.72149300  0.26525133  0.57747167  1
  O  335  1  0.63338400  0.94369667  0.34029300  1
  O  336  1  0.08775600  0.09211667  0.27224667  1
  O  337  1  0.69202300  0.94815667  0.30279333  1
  O  338  1  0.25183900  0.09616767  0.29594767  1
  O  365  1  0.63334500  0.12310167  0.68516033  1
  O  366  1  0.08857300  0.97656833  0.75487333  1
  O  367  1  0.69225000  0.11890067  0.72286933  1
  O  368  1  0.25260000  0.97315733  0.73177667  1
  O  395  1  0.29533500  0.61007433  0.32516533  1
  O  396  1  0.65615100  0.44827033  0.30338533  1
  O  397  1  0.21326100  0.61825200  0.28952467  1
  O  398  1  0.76836900  0.44624100  0.27069800  1
  O  425  1  0.29578900  0.45932967  0.70262567  1
  O  426  1  0.65664700  0.61863400  0.72237533  1
  O  427  1  0.21409800  0.45091067  0.73800000  1
  O  428  1  0.76980600  0.62116200  0.75536533  1
