# generated using pymatgen
data_Cu3H26C46(NO6)2
_symmetry_space_group_name_H-M   'P 1'
_cell_length_a   19.54653000
_cell_length_b   19.55156000
_cell_length_c   33.62870000
_cell_angle_alpha   106.75038000
_cell_angle_beta   106.74389000
_cell_angle_gamma   90.01382000
_symmetry_Int_Tables_number   1
_chemical_formula_structural   Cu3H26C46(NO6)2
_chemical_formula_sum   'Cu12 H104 C184 N8 O48'
_cell_volume   11735.95363585
_cell_formula_units_Z   4
loop_
 _symmetry_equiv_pos_site_id
 _symmetry_equiv_pos_as_xyz
  1  'x, y, z'
loop_
 _atom_site_type_symbol
 _atom_site_label
 _atom_site_symmetry_multiplicity
 _atom_site_fract_x
 _atom_site_fract_y
 _atom_site_fract_z
 _atom_site_occupancy
  Cu  Cu1  1  0.93676000  0.00252000  0.00430000  1.0
  Cu  Cu2  1  0.56737000  0.00251000  0.00424000  1.0
  Cu  Cu3  1  0.00261000  0.56754000  0.50460000  1.0
  Cu  Cu4  1  0.00277000  0.93695000  0.50475000  1.0
  Cu  Cu5  1  0.43264000  0.99749000  0.99576000  1.0
  Cu  Cu6  1  0.06325000  0.99748000  0.99570000  1.0
  Cu  Cu7  1  0.99739000  0.43246000  0.49540000  1.0
  Cu  Cu8  1  0.99724000  0.06305000  0.49525000  1.0
  Cu  Cu9  1  0.64431000  0.39425000  0.78994000  1.0
  Cu  Cu10  1  0.39397000  0.64408000  0.28942000  1.0
  Cu  Cu11  1  0.35570000  0.60575000  0.21006000  1.0
  Cu  Cu12  1  0.60603000  0.35592000  0.71058000  1.0
  H  H1  1  0.78707000  0.58337000  0.81725000  1.0
  H  H2  1  0.78082000  0.70689000  0.84118000  1.0
  H  H3  1  0.82870000  0.81346000  0.90655000  1.0
  H  H4  1  0.03646000  0.80172000  0.88746000  1.0
  H  H5  1  0.98971000  0.69461000  0.82228000  1.0
  H  H6  1  0.81907000  0.89781000  0.00758000  1.0
  H  H7  1  0.52913000  0.23352000  0.81631000  1.0
  H  H8  1  0.55958000  0.13422000  0.84059000  1.0
  H  H9  1  0.57730000  0.09330000  0.90638000  1.0
  H  H10  1  0.35092000  0.08562000  0.88791000  1.0
  H  H11  1  0.33215000  0.12739000  0.82229000  1.0
  H  H12  1  0.68842000  0.10968000  0.00739000  1.0
  H  H13  1  0.58315000  0.52958000  0.31665000  1.0
  H  H14  1  0.70648000  0.55974000  0.34070000  1.0
  H  H15  1  0.81290000  0.57749000  0.40623000  1.0
  H  H16  1  0.80214000  0.35107000  0.38778000  1.0
  H  H17  1  0.69516000  0.33233000  0.32245000  1.0
  H  H18  1  0.89767000  0.68837000  0.50736000  1.0
  H  H19  1  0.23390000  0.78715000  0.31685000  1.0
  H  H20  1  0.13424000  0.78097000  0.34109000  1.0
  H  H21  1  0.09307000  0.82899000  0.40674000  1.0
  H  H22  1  0.08576000  0.03665000  0.38764000  1.0
  H  H23  1  0.12771000  0.98974000  0.32220000  1.0
  H  H24  1  0.10984000  0.81910000  0.50761000  1.0
  H  H25  1  0.47045000  0.41680000  0.18331000  1.0
  H  H26  1  0.44025000  0.29352000  0.15930000  1.0
  H  H27  1  0.42257000  0.18711000  0.09377000  1.0
  H  H28  1  0.64902000  0.19790000  0.11225000  1.0
  H  H29  1  0.66773000  0.30491000  0.17760000  1.0
  H  H30  1  0.31164000  0.10232000  0.99264000  1.0
  H  H31  1  0.21282000  0.76612000  0.18311000  1.0
  H  H32  1  0.21906000  0.86574000  0.15891000  1.0
  H  H33  1  0.17095000  0.90694000  0.09327000  1.0
  H  H34  1  0.96332000  0.91427000  0.11242000  1.0
  H  H35  1  0.01024000  0.87223000  0.17786000  1.0
  H  H36  1  0.18090000  0.89019000  0.99239000  1.0
  H  H37  1  0.76646000  0.47085000  0.68372000  1.0
  H  H38  1  0.86580000  0.44044000  0.65941000  1.0
  H  H39  1  0.90669000  0.42261000  0.59361000  1.0
  H  H40  1  0.91436000  0.64900000  0.61205000  1.0
  H  H41  1  0.87265000  0.66777000  0.67765000  1.0
  H  H42  1  0.89030000  0.31158000  0.49261000  1.0
  H  H43  1  0.41664000  0.21294000  0.68278000  1.0
  H  H44  1  0.29312000  0.21917000  0.65884000  1.0
  H  H45  1  0.18655000  0.17135000  0.59345000  1.0
  H  H46  1  0.19825000  0.96360000  0.61250000  1.0
  H  H47  1  0.30531000  0.01028000  0.67768000  1.0
  H  H48  1  0.10221000  0.18093000  0.49242000  1.0
  H  H49  1  0.21294000  0.41663000  0.18275000  1.0
  H  H50  1  0.21918000  0.29311000  0.15882000  1.0
  H  H51  1  0.17130000  0.18654000  0.09345000  1.0
  H  H52  1  0.96355000  0.19828000  0.11254000  1.0
  H  H53  1  0.01029000  0.30539000  0.17772000  1.0
  H  H54  1  0.18093000  0.10219000  0.99242000  1.0
  H  H55  1  0.47087000  0.76648000  0.18369000  1.0
  H  H56  1  0.44042000  0.86578000  0.15941000  1.0
  H  H57  1  0.42270000  0.90670000  0.09362000  1.0
  H  H58  1  0.64908000  0.91438000  0.11210000  1.0
  H  H59  1  0.66785000  0.87261000  0.17771000  1.0
  H  H60  1  0.31158000  0.89032000  0.99261000  1.0
  H  H61  1  0.41685000  0.47042000  0.68335000  1.0
  H  H62  1  0.29352000  0.44026000  0.65930000  1.0
  H  H63  1  0.18710000  0.42251000  0.59377000  1.0
  H  H64  1  0.19786000  0.64893000  0.61222000  1.0
  H  H65  1  0.30485000  0.66767000  0.67755000  1.0
  H  H66  1  0.10233000  0.31163000  0.49264000  1.0
  H  H67  1  0.76611000  0.21284000  0.68315000  1.0
  H  H68  1  0.86576000  0.21903000  0.65891000  1.0
  H  H69  1  0.90693000  0.17101000  0.59326000  1.0
  H  H70  1  0.91425000  0.96335000  0.61236000  1.0
  H  H71  1  0.87229000  0.01025000  0.67780000  1.0
  H  H72  1  0.89017000  0.18090000  0.49239000  1.0
  H  H73  1  0.52955000  0.58320000  0.81669000  1.0
  H  H74  1  0.55976000  0.70648000  0.84070000  1.0
  H  H75  1  0.57743000  0.81289000  0.90623000  1.0
  H  H76  1  0.35098000  0.80210000  0.88775000  1.0
  H  H77  1  0.33228000  0.69508000  0.82240000  1.0
  H  H78  1  0.68837000  0.89768000  0.00736000  1.0
  H  H79  1  0.78718000  0.23387000  0.81689000  1.0
  H  H80  1  0.78094000  0.13426000  0.84109000  1.0
  H  H81  1  0.82905000  0.09306000  0.90673000  1.0
  H  H82  1  0.03668000  0.08573000  0.88758000  1.0
  H  H83  1  0.98976000  0.12777000  0.82214000  1.0
  H  H84  1  0.81911000  0.10981000  0.00762000  1.0
  H  H85  1  0.23354000  0.52915000  0.31628000  1.0
  H  H86  1  0.13421000  0.55956000  0.34059000  1.0
  H  H87  1  0.09332000  0.57738000  0.40639000  1.0
  H  H88  1  0.08564000  0.35100000  0.38795000  1.0
  H  H89  1  0.12735000  0.33223000  0.32235000  1.0
  H  H90  1  0.10970000  0.68842000  0.50739000  1.0
  H  H91  1  0.58337000  0.78706000  0.31722000  1.0
  H  H92  1  0.70688000  0.78083000  0.34116000  1.0
  H  H93  1  0.81345000  0.82865000  0.40655000  1.0
  H  H94  1  0.80176000  0.03640000  0.38750000  1.0
  H  H95  1  0.69469000  0.98972000  0.32232000  1.0
  H  H96  1  0.89780000  0.81907000  0.50758000  1.0
  H  H97  1  0.91188000  0.66172000  0.75013000  1.0
  H  H98  1  0.33827000  0.08810000  0.74986000  1.0
  H  H99  1  0.66182000  0.33818000  0.25001000  1.0
  H  H100  1  0.08839000  0.91162000  0.25001000  1.0
  H  H101  1  0.08813000  0.33828000  0.24987000  1.0
  H  H102  1  0.66173000  0.91190000  0.25014000  1.0
  H  H103  1  0.33818000  0.66182000  0.74999000  1.0
  H  H104  1  0.91162000  0.08838000  0.74999000  1.0
  C  C1  1  0.85216000  0.63094000  0.78805000  1.0
  C  C2  1  0.93535000  0.81373000  0.90102000  1.0
  C  C3  1  0.88189000  0.69321000  0.82717000  1.0
  C  C4  1  0.96181000  0.87944000  0.93913000  1.0
  C  C5  1  0.80214000  0.57937000  0.78803000  1.0
  C  C6  1  0.83712000  0.72677000  0.85169000  1.0
  C  C7  1  0.86340000  0.78633000  0.88806000  1.0
  C  C8  1  0.98066000  0.78032000  0.87705000  1.0
  C  C9  1  0.95413000  0.72079000  0.84046000  1.0
  C  C10  1  0.78953000  0.94504000  0.00764000  1.0
  C  C11  1  0.43532000  0.15680000  0.78751000  1.0
  C  C12  1  0.46525000  0.08741000  0.90105000  1.0
  C  C13  1  0.44469000  0.13375000  0.82683000  1.0
  C  C14  1  0.47679000  0.05982000  0.93924000  1.0
  C  C15  1  0.48506000  0.20823000  0.78717000  1.0
  C  C16  1  0.51393000  0.12482000  0.85131000  1.0
  C  C17  1  0.52415000  0.10181000  0.88788000  1.0
  C  C18  1  0.39602000  0.09667000  0.87717000  1.0
  C  C19  1  0.38589000  0.11948000  0.84040000  1.0
  C  C20  1  0.71803000  0.06253000  0.00750000  1.0
  C  C21  1  0.63088000  0.43552000  0.28774000  1.0
  C  C22  1  0.81370000  0.46548000  0.40103000  1.0
  C  C23  1  0.69321000  0.44487000  0.32694000  1.0
  C  C24  1  0.87936000  0.47694000  0.43922000  1.0
  C  C25  1  0.57918000  0.48540000  0.28751000  1.0
  C  C26  1  0.72658000  0.51407000  0.35136000  1.0
  C  C27  1  0.78609000  0.52430000  0.38784000  1.0
  C  C28  1  0.78053000  0.39627000  0.37715000  1.0
  C  C29  1  0.72106000  0.38609000  0.34047000  1.0
  C  C30  1  0.94495000  0.71802000  0.50748000  1.0
  C  C31  1  0.15713000  0.85214000  0.28784000  1.0
  C  C32  1  0.08747000  0.93557000  0.40125000  1.0
  C  C33  1  0.13402000  0.88200000  0.32711000  1.0
  C  C34  1  0.06018000  0.96193000  0.43960000  1.0
  C  C35  1  0.20859000  0.80210000  0.28763000  1.0
  C  C36  1  0.12492000  0.83727000  0.35167000  1.0
  C  C37  1  0.10179000  0.86359000  0.38818000  1.0
  C  C38  1  0.09680000  0.98085000  0.37719000  1.0
  C  C39  1  0.11974000  0.95426000  0.34048000  1.0
  C  C40  1  0.06264000  0.78953000  0.50765000  1.0
  C  C41  1  0.56450000  0.36909000  0.21227000  1.0
  C  C42  1  0.53465000  0.18636000  0.09904000  1.0
  C  C43  1  0.55515000  0.30679000  0.17309000  1.0
  C  C44  1  0.52325000  0.12072000  0.06087000  1.0
  C  C45  1  0.51463000  0.42076000  0.21245000  1.0
  C  C46  1  0.48594000  0.27343000  0.14866000  1.0
  C  C47  1  0.47576000  0.21394000  0.11219000  1.0
  C  C48  1  0.60384000  0.21953000  0.12291000  1.0
  C  C49  1  0.61397000  0.27898000  0.15958000  1.0
  C  C50  1  0.28200000  0.05504000  0.99252000  1.0
  C  C51  1  0.14787000  0.84291000  0.21217000  1.0
  C  C52  1  0.06441000  0.91259000  0.09890000  1.0
  C  C53  1  0.11800000  0.86599000  0.17292000  1.0
  C  C54  1  0.03805000  0.94016000  0.06072000  1.0
  C  C55  1  0.19787000  0.79144000  0.21233000  1.0
  C  C56  1  0.16275000  0.87505000  0.14834000  1.0
  C  C57  1  0.13640000  0.89821000  0.11186000  1.0
  C  C58  1  0.01911000  0.90319000  0.12291000  1.0
  C  C59  1  0.04572000  0.88023000  0.15959000  1.0
  C  C60  1  0.21046000  0.93738000  0.99235000  1.0
  C  C61  1  0.84316000  0.56466000  0.71248000  1.0
  C  C62  1  0.91254000  0.53458000  0.59880000  1.0
  C  C63  1  0.86623000  0.55528000  0.67314000  1.0
  C  C64  1  0.93980000  0.52289000  0.56043000  1.0
  C  C65  1  0.79175000  0.51492000  0.71286000  1.0
  C  C66  1  0.87520000  0.48605000  0.64867000  1.0
  C  C67  1  0.89820000  0.47579000  0.61207000  1.0
  C  C68  1  0.90333000  0.60383000  0.62274000  1.0
  C  C69  1  0.88054000  0.61403000  0.65954000  1.0
  C  C70  1  0.93745000  0.28196000  0.49250000  1.0
  C  C71  1  0.36906000  0.14783000  0.71195000  1.0
  C  C72  1  0.18623000  0.06473000  0.59893000  1.0
  C  C73  1  0.30677000  0.11811000  0.67282000  1.0
  C  C74  1  0.12047000  0.03825000  0.56084000  1.0
  C  C75  1  0.42064000  0.19786000  0.71200000  1.0
  C  C76  1  0.27323000  0.16288000  0.64832000  1.0
  C  C77  1  0.21366000  0.13665000  0.61193000  1.0
  C  C78  1  0.21963000  0.01939000  0.62290000  1.0
  C  C79  1  0.27916000  0.04587000  0.65950000  1.0
  C  C80  1  0.05497000  0.21048000  0.49237000  1.0
  C  C81  1  0.14785000  0.36906000  0.21195000  1.0
  C  C82  1  0.06465000  0.18627000  0.09898000  1.0
  C  C83  1  0.11812000  0.30679000  0.17283000  1.0
  C  C84  1  0.03820000  0.12056000  0.06087000  1.0
  C  C85  1  0.19786000  0.42063000  0.21197000  1.0
  C  C86  1  0.16288000  0.27323000  0.14832000  1.0
  C  C87  1  0.13661000  0.21366000  0.11194000  1.0
  C  C88  1  0.01935000  0.21968000  0.12295000  1.0
  C  C89  1  0.04587000  0.27921000  0.15954000  1.0
  C  C90  1  0.21048000  0.05496000  0.99236000  1.0
  C  C91  1  0.56468000  0.84320000  0.21250000  1.0
  C  C92  1  0.53476000  0.91259000  0.09895000  1.0
  C  C93  1  0.55531000  0.86625000  0.17317000  1.0
  C  C94  1  0.52321000  0.94018000  0.06076000  1.0
  C  C95  1  0.51494000  0.79177000  0.21283000  1.0
  C  C96  1  0.48607000  0.87518000  0.14870000  1.0
  C  C97  1  0.47585000  0.89819000  0.11212000  1.0
  C  C98  1  0.60398000  0.90332000  0.12284000  1.0
  C  C99  1  0.61412000  0.88052000  0.15960000  1.0
  C  C100  1  0.28197000  0.93747000  0.99251000  1.0
  C  C101  1  0.36912000  0.56448000  0.71226000  1.0
  C  C102  1  0.18630000  0.53452000  0.59897000  1.0
  C  C103  1  0.30680000  0.55513000  0.67306000  1.0
  C  C104  1  0.12064000  0.52306000  0.56078000  1.0
  C  C105  1  0.42082000  0.51460000  0.71249000  1.0
  C  C106  1  0.27342000  0.48593000  0.64865000  1.0
  C  C107  1  0.21392000  0.47570000  0.61217000  1.0
  C  C108  1  0.21947000  0.60373000  0.62285000  1.0
  C  C109  1  0.27894000  0.61391000  0.65953000  1.0
  C  C110  1  0.05506000  0.28198000  0.49252000  1.0
  C  C111  1  0.84287000  0.14786000  0.71216000  1.0
  C  C112  1  0.91254000  0.06443000  0.59875000  1.0
  C  C113  1  0.86598000  0.11800000  0.67289000  1.0
  C  C114  1  0.93983000  0.03807000  0.56040000  1.0
  C  C115  1  0.79141000  0.19790000  0.71237000  1.0
  C  C116  1  0.87508000  0.16273000  0.64833000  1.0
  C  C117  1  0.89821000  0.13641000  0.61182000  1.0
  C  C118  1  0.90320000  0.01915000  0.62281000  1.0
  C  C119  1  0.88027000  0.04574000  0.65952000  1.0
  C  C120  1  0.93736000  0.21047000  0.49236000  1.0
  C  C121  1  0.43550000  0.63091000  0.78773000  1.0
  C  C122  1  0.46535000  0.81364000  0.90096000  1.0
  C  C123  1  0.44485000  0.69321000  0.82691000  1.0
  C  C124  1  0.47675000  0.87928000  0.93913000  1.0
  C  C125  1  0.48537000  0.57924000  0.78755000  1.0
  C  C126  1  0.51406000  0.72657000  0.85134000  1.0
  C  C127  1  0.52424000  0.78606000  0.88781000  1.0
  C  C128  1  0.39616000  0.78047000  0.87709000  1.0
  C  C129  1  0.38603000  0.72102000  0.84042000  1.0
  C  C130  1  0.71801000  0.94496000  0.00748000  1.0
  C  C131  1  0.85214000  0.15709000  0.78783000  1.0
  C  C132  1  0.93559000  0.08741000  0.90110000  1.0
  C  C133  1  0.88200000  0.13401000  0.82708000  1.0
  C  C134  1  0.96195000  0.05984000  0.93928000  1.0
  C  C135  1  0.80213000  0.20856000  0.78767000  1.0
  C  C136  1  0.83726000  0.12495000  0.85166000  1.0
  C  C137  1  0.86360000  0.10179000  0.88814000  1.0
  C  C138  1  0.98089000  0.09681000  0.87709000  1.0
  C  C139  1  0.95428000  0.11977000  0.84041000  1.0
  C  C140  1  0.78955000  0.06262000  0.00765000  1.0
  C  C141  1  0.15684000  0.43534000  0.28752000  1.0
  C  C142  1  0.08746000  0.46542000  0.40120000  1.0
  C  C143  1  0.13377000  0.44472000  0.32686000  1.0
  C  C144  1  0.06020000  0.47711000  0.43957000  1.0
  C  C145  1  0.20826000  0.48508000  0.28715000  1.0
  C  C146  1  0.12480000  0.51394000  0.35133000  1.0
  C  C147  1  0.10181000  0.52421000  0.38793000  1.0
  C  C148  1  0.09667000  0.39617000  0.37726000  1.0
  C  C149  1  0.11946000  0.38597000  0.34046000  1.0
  C  C150  1  0.06255000  0.71804000  0.50750000  1.0
  C  C151  1  0.63095000  0.85217000  0.28805000  1.0
  C  C152  1  0.81377000  0.93527000  0.40107000  1.0
  C  C153  1  0.69323000  0.88189000  0.32718000  1.0
  C  C154  1  0.87953000  0.96174000  0.43916000  1.0
  C  C155  1  0.57936000  0.80213000  0.28800000  1.0
  C  C156  1  0.72677000  0.83712000  0.35168000  1.0
  C  C157  1  0.78634000  0.86335000  0.38808000  1.0
  C  C158  1  0.78037000  0.98061000  0.37710000  1.0
  C  C159  1  0.72084000  0.95413000  0.34050000  1.0
  C  C160  1  0.94503000  0.78952000  0.50763000  1.0
  C  C161  1  0.87248000  0.62249000  0.75023000  1.0
  C  C162  1  0.77179000  0.52183000  0.75053000  1.0
  C  C163  1  0.71783000  0.46763000  0.75046000  1.0
  C  C164  1  0.37749000  0.12750000  0.74976000  1.0
  C  C165  1  0.47816000  0.22824000  0.74953000  1.0
  C  C166  1  0.53242000  0.28229000  0.74973000  1.0
  C  C167  1  0.62247000  0.37754000  0.25001000  1.0
  C  C168  1  0.52160000  0.47839000  0.24995000  1.0
  C  C169  1  0.46745000  0.53244000  0.24981000  1.0
  C  C170  1  0.12774000  0.87228000  0.25001000  1.0
  C  C171  1  0.22845000  0.77150000  0.24995000  1.0
  C  C172  1  0.28239000  0.71744000  0.24985000  1.0
  C  C173  1  0.12753000  0.37751000  0.24977000  1.0
  C  C174  1  0.22821000  0.47816000  0.24947000  1.0
  C  C175  1  0.28217000  0.53237000  0.24954000  1.0
  C  C176  1  0.62251000  0.87250000  0.25024000  1.0
  C  C177  1  0.52184000  0.77176000  0.25047000  1.0
  C  C178  1  0.46759000  0.71771000  0.25027000  1.0
  C  C179  1  0.37754000  0.62246000  0.74999000  1.0
  C  C180  1  0.47841000  0.52161000  0.75005000  1.0
  C  C181  1  0.53256000  0.46756000  0.75019000  1.0
  C  C182  1  0.87226000  0.12772000  0.74999000  1.0
  C  C183  1  0.77155000  0.22850000  0.75005000  1.0
  C  C184  1  0.71761000  0.28256000  0.75015000  1.0
  N  N1  1  0.82521000  0.00387000  0.00772000  1.0
  N  N2  1  0.68234000  0.00370000  0.00740000  1.0
  N  N3  1  0.00372000  0.68238000  0.50743000  1.0
  N  N4  1  0.00389000  0.82519000  0.50774000  1.0
  N  N5  1  0.31766000  0.99630000  0.99261000  1.0
  N  N6  1  0.17480000  0.99613000  0.99228000  1.0
  N  N7  1  0.99629000  0.31762000  0.49257000  1.0
  N  N8  1  0.99611000  0.17481000  0.49226000  1.0
  O  O1  1  0.02763000  0.90275000  0.94970000  1.0
  O  O2  1  0.91572000  0.90784000  0.95774000  1.0
  O  O3  1  0.71406000  0.46519000  0.78747000  1.0
  O  O4  1  0.42150000  0.04636000  0.94972000  1.0
  O  O5  1  0.54161000  0.05071000  0.95794000  1.0
  O  O6  1  0.57234000  0.32075000  0.78709000  1.0
  O  O7  1  0.90279000  0.42140000  0.44955000  1.0
  O  O8  1  0.90757000  0.54150000  0.45809000  1.0
  O  O9  1  0.46464000  0.57198000  0.28694000  1.0
  O  O10  1  0.04702000  0.02765000  0.45013000  1.0
  O  O11  1  0.05107000  0.91591000  0.45846000  1.0
  O  O12  1  0.32059000  0.71358000  0.28700000  1.0
  O  O13  1  0.57867000  0.09730000  0.05039000  1.0
  O  O14  1  0.45863000  0.09253000  0.04220000  1.0
  O  O15  1  0.42807000  0.53510000  0.21259000  1.0
  O  O16  1  0.97240000  0.95357000  0.05022000  1.0
  O  O17  1  0.08426000  0.94926000  0.04199000  1.0
  O  O18  1  0.28621000  0.67925000  0.21266000  1.0
  O  O19  1  0.95294000  0.57820000  0.54987000  1.0
  O  O20  1  0.94897000  0.45817000  0.54163000  1.0
  O  O21  1  0.67945000  0.42760000  0.71313000  1.0
  O  O22  1  0.09712000  0.97253000  0.55070000  1.0
  O  O23  1  0.09213000  0.08393000  0.54187000  1.0
  O  O24  1  0.53502000  0.28606000  0.71279000  1.0
  O  O25  1  0.97237000  0.09725000  0.05030000  1.0
  O  O26  1  0.08428000  0.09215000  0.04226000  1.0
  O  O27  1  0.28594000  0.53480000  0.21253000  1.0
  O  O28  1  0.57850000  0.95364000  0.05028000  1.0
  O  O29  1  0.45839000  0.94928000  0.04207000  1.0
  O  O30  1  0.42767000  0.67924000  0.21291000  1.0
  O  O31  1  0.09721000  0.57860000  0.55046000  1.0
  O  O32  1  0.09244000  0.45850000  0.54191000  1.0
  O  O33  1  0.53537000  0.42802000  0.71306000  1.0
  O  O34  1  0.95299000  0.97235000  0.54987000  1.0
  O  O35  1  0.94893000  0.08409000  0.54154000  1.0
  O  O36  1  0.67941000  0.28642000  0.71300000  1.0
  O  O37  1  0.42133000  0.90270000  0.94961000  1.0
  O  O38  1  0.54138000  0.90747000  0.95780000  1.0
  O  O39  1  0.57194000  0.46490000  0.78741000  1.0
  O  O40  1  0.02760000  0.04643000  0.94978000  1.0
  O  O41  1  0.91574000  0.05074000  0.95801000  1.0
  O  O42  1  0.71379000  0.32075000  0.78734000  1.0
  O  O43  1  0.04707000  0.42180000  0.45014000  1.0
  O  O44  1  0.05103000  0.54183000  0.45837000  1.0
  O  O45  1  0.32055000  0.57240000  0.28687000  1.0
  O  O46  1  0.90288000  0.02747000  0.44930000  1.0
  O  O47  1  0.90788000  0.91607000  0.45813000  1.0
  O  O48  1  0.46498000  0.71394000  0.28721000  1.0
