# generated using pymatgen
data_VH9C19O5
_symmetry_space_group_name_H-M   'P 1'
_cell_length_a   7.29439000
_cell_length_b   15.09938000
_cell_length_c   23.21522000
_cell_angle_alpha   71.87958000
_cell_angle_beta   89.99997000
_cell_angle_gamma   89.99990000
_symmetry_Int_Tables_number   1
_chemical_formula_structural   VH9C19O5
_chemical_formula_sum   'V4 H36 C76 O20'
_cell_volume   2430.13044547
_cell_formula_units_Z   4
loop_
 _symmetry_equiv_pos_site_id
 _symmetry_equiv_pos_as_xyz
  1  'x, y, z'
loop_
 _atom_site_type_symbol
 _atom_site_label
 _atom_site_symmetry_multiplicity
 _atom_site_fract_x
 _atom_site_fract_y
 _atom_site_fract_z
 _atom_site_occupancy
  V  V0  1  0.79383000  0.73918000  0.75250000  1
  V  V1  1  0.20617000  0.26082000  0.24750000  1
  V  V2  1  0.29383000  0.76082000  0.74750000  1
  V  V3  1  0.70617000  0.23918000  0.25250000  1
  H  H4  1  0.03509000  0.14778000  0.08696000  1
  H  H5  1  0.02558000  0.84932000  0.91442000  1
  H  H6  1  0.53517000  0.35222000  0.41304000  1
  H  H7  1  0.52558000  0.65069000  0.58558000  1
  H  H8  1  0.65965000  0.25935000  0.91265000  1
  H  H9  1  0.62076000  0.42739000  0.85916000  1
  H  H10  1  0.87489000  0.51826000  0.79777000  1
  H  H11  1  0.16971000  0.44161000  0.79042000  1
  H  H12  1  0.21236000  0.27342000  0.84407000  1
  H  H13  1  0.63973000  0.74460000  0.08375000  1
  H  H14  1  0.58486000  0.57806000  0.13799000  1
  H  H15  1  0.82525000  0.48328000  0.20451000  1
  H  H16  1  0.12276000  0.55460000  0.21628000  1
  H  H17  1  0.18144000  0.72118000  0.16186000  1
  H  H18  1  0.15965000  0.24065000  0.58734000  1
  H  H19  1  0.12076000  0.07261000  0.64083000  1
  H  H20  1  0.37489000  0.98175000  0.70223000  1
  H  H21  1  0.66970000  0.05839000  0.70959000  1
  H  H22  1  0.71235000  0.22659000  0.65593000  1
  H  H23  1  0.13982000  0.75546000  0.41628000  1
  H  H24  1  0.08501000  0.92198000  0.36203000  1
  H  H25  1  0.32538000  0.01673000  0.29548000  1
  H  H26  1  0.62280000  0.94536000  0.28368000  1
  H  H27  1  0.68142000  0.77878000  0.33811000  1
  H  H28  1  0.94864000  0.93847000  0.25602000  1
  H  H29  1  0.98445000  0.06186000  0.74455000  1
  H  H30  1  0.44855000  0.56153000  0.24398000  1
  H  H31  1  0.48445000  0.43814000  0.75545000  1
  H  H32  1  0.95977000  0.18112000  0.79387000  1
  H  H33  1  0.92793000  0.81878000  0.20697000  1
  H  H34  1  0.45977000  0.31888000  0.70613000  1
  H  H35  1  0.42784000  0.68122000  0.29303000  1
  H  H36  1  0.95257000  0.18408000  0.99779000  1
  H  H37  1  0.93968000  0.81454000  0.00320000  1
  H  H38  1  0.45255000  0.31593000  0.50220000  1
  H  H39  1  0.43969000  0.68547000  0.49679000  1
  C  C40  1  0.51421000  0.64313000  0.85427000  1
  C  C41  1  0.48583000  0.35687000  0.14573000  1
  C  C42  1  0.01421000  0.85687000  0.64573000  1
  C  C43  1  0.98583000  0.14313000  0.35427000  1
  C  C44  1  0.51248000  0.62382000  0.70188000  1
  C  C45  1  0.48737000  0.37653000  0.29783000  1
  C  C46  1  0.01248000  0.87618000  0.79812000  1
  C  C47  1  0.98737000  0.12347000  0.20217000  1
  C  C48  1  0.00337000  0.94823000  0.82775000  1
  C  C49  1  0.99252000  0.05048000  0.17324000  1
  C  C50  1  0.50338000  0.55177000  0.67225000  1
  C  C51  1  0.49252000  0.44952000  0.32676000  1
  C  C52  1  0.97320000  0.10952000  0.82227000  1
  C  C53  1  0.95100000  0.88972000  0.17867000  1
  C  C54  1  0.47320000  0.39048000  0.67773000  1
  C  C55  1  0.45094000  0.61028000  0.32133000  1
  C  C56  1  0.98682000  0.04157000  0.79354000  1
  C  C57  1  0.96322000  0.95789000  0.20727000  1
  C  C58  1  0.48682000  0.45843000  0.70646000  1
  C  C59  1  0.46316000  0.54211000  0.29273000  1
  C  C60  1  0.00549000  0.92235000  0.89084000  1
  C  C61  1  0.00718000  0.07540000  0.11038000  1
  C  C62  1  0.50549000  0.57765000  0.60916000  1
  C  C63  1  0.50721000  0.42460000  0.38961000  1
  C  C64  1  0.98624000  0.98938000  0.92157000  1
  C  C65  1  0.98449000  0.00864000  0.07960000  1
  C  C66  1  0.48624000  0.51063000  0.57843000  1
  C  C67  1  0.48449000  0.49136000  0.42040000  1
  C  C68  1  0.97534000  0.08508000  0.88616000  1
  C  C69  1  0.96291000  0.91344000  0.11493000  1
  C  C70  1  0.47534000  0.41492000  0.61384000  1
  C  C71  1  0.46289000  0.58656000  0.38506000  1
  C  C72  1  0.97730000  0.96380000  0.98619000  1
  C  C73  1  0.97981000  0.03424000  0.01496000  1
  C  C74  1  0.47731000  0.53620000  0.51381000  1
  C  C75  1  0.47981000  0.46576000  0.48504000  1
  C  C76  1  0.96729000  0.12823000  0.97842000  1
  C  C77  1  0.95701000  0.87013000  0.02267000  1
  C  C78  1  0.46729000  0.37178000  0.52158000  1
  C  C79  1  0.45702000  0.62988000  0.47732000  1
  C  C80  1  0.96225000  0.15392000  0.91531000  1
  C  C81  1  0.94704000  0.84470000  0.08575000  1
  C  C82  1  0.46225000  0.34608000  0.58469000  1
  C  C83  1  0.44703000  0.65530000  0.41424000  1
  C  C84  1  0.99315000  0.08118000  0.41676000  1
  C  C85  1  0.00706000  0.91881000  0.58324000  1
  C  C86  1  0.49315000  0.41882000  0.08324000  1
  C  C87  1  0.50706000  0.58119000  0.91676000  1
  C  C88  1  0.99782000  0.02999000  0.46914000  1
  C  C89  1  0.00260000  0.97000000  0.53086000  1
  C  C90  1  0.49782000  0.47001000  0.03087000  1
  C  C91  1  0.50260000  0.53000000  0.96914000  1
  C  C92  1  0.93808000  0.25411000  0.88159000  1
  C  C93  1  0.77165000  0.29844000  0.88590000  1
  C  C94  1  0.74919000  0.39350000  0.85571000  1
  C  C95  1  0.89252000  0.44481000  0.82112000  1
  C  C96  1  0.05892000  0.40136000  0.81693000  1
  C  C97  1  0.08236000  0.30629000  0.84723000  1
  C  C98  1  0.91384000  0.74511000  0.11941000  1
  C  C99  1  0.74602000  0.70377000  0.11263000  1
  C  C100  1  0.71451000  0.60956000  0.14326000  1
  C  C101  1  0.85014000  0.55605000  0.18075000  1
  C  C102  1  0.01797000  0.59646000  0.18741000  1
  C  C103  1  0.05048000  0.69067000  0.15666000  1
  C  C104  1  0.43808000  0.24589000  0.61840000  1
  C  C105  1  0.27165000  0.20156000  0.61409000  1
  C  C106  1  0.24920000  0.10650000  0.64429000  1
  C  C107  1  0.39252000  0.05520000  0.67888000  1
  C  C108  1  0.55892000  0.09864000  0.68307000  1
  C  C109  1  0.58236000  0.19371000  0.65277000  1
  C  C110  1  0.41387000  0.75489000  0.38059000  1
  C  C111  1  0.24610000  0.79627000  0.38738000  1
  C  C112  1  0.21462000  0.89048000  0.35675000  1
  C  C113  1  0.35024000  0.94395000  0.31925000  1
  C  C114  1  0.51802000  0.90352000  0.31257000  1
  C  C115  1  0.55050000  0.80931000  0.34331000  1
  O  O116  1  0.35139000  0.65883000  0.71100000  1
  O  O117  1  0.64861000  0.34117000  0.28900000  1
  O  O118  1  0.85139000  0.84117000  0.78900000  1
  O  O119  1  0.14861000  0.15883000  0.21100000  1
  O  O120  1  0.67797000  0.66335000  0.82965000  1
  O  O121  1  0.32203000  0.33665000  0.17035000  1
  O  O122  1  0.17797000  0.83665000  0.67035000  1
  O  O123  1  0.82203000  0.16335000  0.32965000  1
  O  O124  1  0.68072000  0.64793000  0.71395000  1
  O  O125  1  0.31928000  0.35207000  0.28605000  1
  O  O126  1  0.18072000  0.85207000  0.78605000  1
  O  O127  1  0.81928000  0.14793000  0.21395000  1
  O  O128  1  0.85713000  0.82564000  0.67247000  1
  O  O129  1  0.14287000  0.17436000  0.32753000  1
  O  O130  1  0.35713000  0.67436000  0.82753000  1
  O  O131  1  0.64287000  0.32564000  0.17247000  1
  O  O132  1  0.52135000  0.80832000  0.73653000  1
  O  O133  1  0.47865000  0.19168000  0.26347000  1
  O  O134  1  0.02135000  0.69168000  0.76347000  1
  O  O135  1  0.97865000  0.30832000  0.23653000  1
