# generated using pymatgen
data_Cr3H9C25O18F7
_symmetry_space_group_name_H-M   'P 1'
_cell_length_a   10.92471000
_cell_length_b   10.93083000
_cell_length_c   18.86833000
_cell_angle_alpha   90.24275000
_cell_angle_beta   90.05285000
_cell_angle_gamma   119.69329000
_symmetry_Int_Tables_number   1
_chemical_formula_structural   Cr3H9C25O18F7
_chemical_formula_sum   'Cr6 H18 C50 O36 F14'
_cell_volume   1957.28732934
_cell_formula_units_Z   2
loop_
 _symmetry_equiv_pos_site_id
 _symmetry_equiv_pos_as_xyz
  1  'x, y, z'
loop_
 _atom_site_type_symbol
 _atom_site_label
 _atom_site_symmetry_multiplicity
 _atom_site_fract_x
 _atom_site_fract_y
 _atom_site_fract_z
 _atom_site_occupancy
  Cr  Cr0  1  0.39790000  0.60707000  0.50223000  1
  Cr  Cr1  1  0.70860000  0.60176000  0.50126000  1
  Cr  Cr2  1  0.39347000  0.29120000  0.49646000  1
  Cr  Cr3  1  0.93854000  0.06238000  0.00764000  1
  Cr  Cr4  1  0.93745000  0.37485000  0.99452000  1
  Cr  Cr5  1  0.62508000  0.06201000  0.00119000  1
  H  H6  1  0.42719000  0.24101000  0.70849000  1
  H  H7  1  0.87422000  0.83022000  0.82339000  1
  H  H8  1  0.89727000  0.46182000  0.19103000  1
  H  H9  1  0.34043000  0.58292000  0.29975000  1
  H  H10  1  0.73766000  0.66725000  0.30035000  1
  H  H11  1  0.79679000  0.55242000  0.69734000  1
  H  H12  1  0.56581000  0.94298000  0.33617000  1
  H  H13  1  0.70577000  0.12325000  0.78482000  1
  H  H14  1  0.90921000  0.31498000  0.75773000  1
  H  H15  1  0.95130000  0.62315000  0.80276000  1
  H  H16  1  0.97083000  0.83382000  0.72058000  1
  H  H17  1  0.31405000  0.18152000  0.25884000  1
  H  H18  1  0.36411000  0.66955000  0.18967000  1
  H  H19  1  0.02099000  0.14231000  0.38683000  1
  H  H20  1  0.98681000  0.55014000  0.66714000  1
  H  H21  1  0.72987000  0.16506000  0.60724000  1
  H  H22  1  0.58127000  0.45897000  0.88384000  1
  H  H23  1  0.59401000  0.53965000  0.70934000  1
  C  C24  1  0.64792000  0.76567000  0.60938000  1
  C  C25  1  0.55326000  0.33938000  0.80158000  1
  C  C26  1  0.67350000  0.30324000  0.81243000  1
  C  C27  1  0.64701000  0.33079000  0.67634000  1
  C  C28  1  0.63380000  0.18401000  0.68985000  1
  C  C29  1  0.52794000  0.33875000  0.72050000  1
  C  C30  1  0.15691000  0.21467000  0.71033000  1
  C  C31  1  0.14158000  0.19953000  0.78402000  1
  C  C32  1  0.16816000  0.31622000  0.82665000  1
  C  C33  1  0.21939000  0.44826000  0.79510000  1
  C  C34  1  0.21713000  0.45892000  0.72278000  1
  C  C35  1  0.62148000  0.34671000  0.60109000  1
  C  C36  1  0.19101000  0.34426000  0.67894000  1
  C  C37  1  0.55976000  0.81570000  0.72125000  1
  C  C38  1  0.56178000  0.82004000  0.79507000  1
  C  C39  1  0.67691000  0.82899000  0.83238000  1
  C  C40  1  0.78516000  0.82453000  0.79524000  1
  C  C41  1  0.78670000  0.82385000  0.72162000  1
  C  C42  1  0.66942000  0.81327000  0.68378000  1
  C  C43  1  0.51892000  0.29446000  0.26794000  1
  C  C44  1  0.53803000  0.29646000  0.19468000  1
  C  C45  1  0.67345000  0.35166000  0.16698000  1
  C  C46  1  0.23139000  0.37382000  0.60420000  1
  C  C47  1  0.79157000  0.41971000  0.21175000  1
  C  C48  1  0.77423000  0.42318000  0.28459000  1
  C  C49  1  0.63833000  0.35632000  0.31334000  1
  C  C50  1  0.26271000  0.48180000  0.27804000  1
  C  C51  1  0.23924000  0.46962000  0.20557000  1
  C  C52  1  0.14469000  0.33747000  0.17819000  1
  C  C53  1  0.07361000  0.21905000  0.22300000  1
  C  C54  1  0.09306000  0.23206000  0.29527000  1
  C  C55  1  0.18960000  0.36431000  0.32249000  1
  C  C56  1  0.70426000  0.73901000  0.28065000  1
  C  C57  1  0.64763000  0.77380000  0.40009000  1
  C  C58  1  0.70711000  0.76011000  0.20889000  1
  C  C59  1  0.66618000  0.85362000  0.18281000  1
  C  C60  1  0.61160000  0.91743000  0.22848000  1
  C  C61  1  0.60629000  0.89334000  0.30065000  1
  C  C62  1  0.65807000  0.80883000  0.32662000  1
  C  C63  1  0.10533000  0.29897000  0.89703000  1
  C  C64  1  0.68803000  0.27686000  0.88826000  1
  C  C65  1  0.70713000  0.88270000  0.90516000  1
  C  C66  1  0.10267000  0.32256000  0.10504000  1
  C  C67  1  0.69003000  0.30609000  0.09685000  1
  C  C68  1  0.61689000  0.36196000  0.38955000  1
  C  C69  1  0.70841000  0.90724000  0.11249000  1
  C  C70  1  0.23096000  0.38455000  0.39509000  1
  C  C71  1  0.81666000  0.42626000  0.78139000  1
  C  C72  1  0.79452000  0.44993000  0.70209000  1
  C  C73  1  0.63290000  0.16308000  0.77073000  1
  O  O74  1  0.25557000  0.49257000  0.58142000  1
  O  O75  1  0.69592000  0.47554000  0.42406000  1
  O  O76  1  0.50426000  0.26347000  0.41481000  1
  O  O77  1  0.27716000  0.30854000  0.42218000  1
  O  O78  1  0.49999000  0.50001000  0.49998000  1
  O  O79  1  0.82561000  0.91051000  0.93061000  1
  O  O80  1  0.05454000  0.18163000  0.92988000  1
  O  O81  1  0.07731000  0.39413000  0.91553000  1
  O  O82  1  0.80670000  0.35356000  0.91757000  1
  O  O83  1  0.59329000  0.16280000  0.91525000  1
  O  O84  1  0.63537000  0.93467000  0.93159000  1
  O  O85  1  0.52739000  0.71981000  0.57891000  1
  O  O86  1  0.82879000  0.93170000  0.09186000  1
  O  O87  1  0.05748000  0.20127000  0.07937000  1
  O  O88  1  0.08048000  0.41532000  0.07679000  1
  O  O89  1  0.80964000  0.37321000  0.06705000  1
  O  O90  1  0.59646000  0.18399000  0.07650000  1
  O  O91  1  0.63831000  0.95432000  0.08107000  1
  O  O92  1  0.83369000  0.16641000  0.00112000  1
  O  O93  1  0.73974000  0.73969000  0.58458000  1
  O  O94  1  0.69515000  0.46775000  0.57383000  1
  O  O95  1  0.50343000  0.25507000  0.57638000  1
  O  O96  1  0.27639000  0.30075000  0.57195000  1
  O  O97  1  0.25640000  0.50098000  0.41985000  1
  O  O98  1  0.52816000  0.72760000  0.42914000  1
  O  O99  1  0.74057000  0.74809000  0.42302000  1
  O  O100  1  0.92617000  0.39411000  0.78945000  1
  O  O101  1  0.85605000  0.55180000  0.81930000  1
  O  O102  1  0.90113000  0.83156000  0.68611000  1
  O  O103  1  0.38496000  0.23262000  0.29633000  1
  O  O104  1  0.30746000  0.58357000  0.16085000  1
  O  O105  1  0.01602000  0.11407000  0.33656000  1
  O  O106  1  0.90256000  0.45641000  0.65884000  1
  O  O107  1  0.74611000  0.17436000  0.65922000  1
  O  O108  1  0.58903000  0.47108000  0.83164000  1
  O  O109  1  0.50655000  0.45038000  0.69982000  1
  F  F110  1  0.49899000  0.05958000  0.79034000  1
  F  F111  1  0.50829000  0.07713000  0.66154000  1
  F  F112  1  0.13710000  0.10337000  0.66991000  1
  F  F113  1  0.09841000  0.07148000  0.81319000  1
  F  F114  1  0.25357000  0.56522000  0.83434000  1
  F  F115  1  0.23833000  0.58278000  0.69634000  1
  F  F116  1  0.45232000  0.81739000  0.68631000  1
  F  F117  1  0.45402000  0.82127000  0.83000000  1
  F  F118  1  0.42450000  0.23805000  0.15044000  1
  F  F119  1  0.88983000  0.48535000  0.32710000  1
  F  F120  1  0.97895000  0.09038000  0.19756000  1
  F  F121  1  0.75600000  0.69481000  0.16526000  1
  F  F122  1  0.57194000  0.00935000  0.20420000  1
  F  F123  1  0.42907000  0.23808000  0.83296000  1
