# generated using pymatgen
data_Zn2H19C30O7
_symmetry_space_group_name_H-M   'P 1'
_cell_length_a   16.77909000
_cell_length_b   19.42358000
_cell_length_c   37.12151000
_cell_angle_alpha   91.57352000
_cell_angle_beta   91.70990000
_cell_angle_gamma   107.45811000
_symmetry_Int_Tables_number   1
_chemical_formula_structural   Zn2H19C30O7
_chemical_formula_sum   'Zn24 H228 C360 O84'
_cell_volume   11527.43004219
_cell_formula_units_Z   12
loop_
 _symmetry_equiv_pos_site_id
 _symmetry_equiv_pos_as_xyz
  1  'x, y, z'
loop_
 _atom_site_type_symbol
 _atom_site_label
 _atom_site_symmetry_multiplicity
 _atom_site_fract_x
 _atom_site_fract_y
 _atom_site_fract_z
 _atom_site_occupancy
  Zn  Zn0  1  0.33060000  0.57430000  0.10047000  1
  Zn  Zn1  1  0.49303000  0.70911000  0.07392000  1
  Zn  Zn2  1  0.35634000  0.74082000  0.11607000  1
  Zn  Zn3  1  0.18878000  0.60275000  0.13991000  1
  Zn  Zn4  1  0.43180000  0.65427000  0.45142000  1
  Zn  Zn5  1  0.30759000  0.50262000  0.48996000  1
  Zn  Zn6  1  0.23474000  0.58824000  0.43701000  1
  Zn  Zn7  1  0.35452000  0.75599000  0.41437000  1
  Zn  Zn8  1  0.91893000  0.95669000  0.29245000  1
  Zn  Zn9  1  0.93442000  0.05289000  0.21723000  1
  Zn  Zn10  1  0.07414000  0.08272000  0.27363000  1
  Zn  Zn11  1  0.04008000  0.01173000  0.35651000  1
  Zn  Zn12  1  0.69808000  0.33046000  0.61531000  1
  Zn  Zn13  1  0.55040000  0.20076000  0.56653000  1
  Zn  Zn14  1  0.67466000  0.16456000  0.61745000  1
  Zn  Zn15  1  0.82523000  0.29469000  0.66416000  1
  Zn  Zn16  1  0.72453000  0.19860000  0.93302000  1
  Zn  Zn17  1  0.85241000  0.33914000  0.89142000  1
  Zn  Zn18  1  0.72402000  0.36031000  0.94088000  1
  Zn  Zn19  1  0.57670000  0.21693000  0.97287000  1
  Zn  Zn20  1  0.14534000  0.97692000  0.78412000  1
  Zn  Zn21  1  0.09931000  0.87614000  0.70773000  1
  Zn  Zn22  1  0.99397000  0.83890000  0.77412000  1
  Zn  Zn23  1  0.06688000  0.91966000  0.85610000  1
  H  H24  1  0.33852000  0.68214000  0.05317000  1
  H  H25  1  0.33950000  0.63186000  0.16228000  1
  H  H26  1  0.30224000  0.63038000  0.49604000  1
  H  H27  1  0.35965000  0.63401000  0.38974000  1
  H  H28  1  0.93348000  0.10005000  0.28236000  1
  H  H29  1  0.06329000  0.95487000  0.29757000  1
  H  H30  1  0.71072000  0.23465000  0.56216000  1
  H  H31  1  0.66853000  0.26001000  0.67138000  1
  H  H32  1  0.69485000  0.28957000  0.88193000  1
  H  H33  1  0.73092000  0.26636000  0.99237000  1
  H  H34  1  0.14384000  0.83726000  0.76930000  1
  H  H35  1  0.00067000  0.96250000  0.80172000  1
  H  H36  1  0.49977000  0.01518000  0.91190000  1
  H  H37  1  0.31521000  0.09685000  0.82726000  1
  H  H38  1  0.22126000  0.83366000  0.96595000  1
  H  H39  1  0.28235000  0.73581000  0.95059000  1
  H  H40  1  0.38724000  0.75263000  0.90333000  1
  H  H41  1  0.43157000  0.86750000  0.87149000  1
  H  H42  1  0.26559000  0.94909000  0.93459000  1
  H  H43  1  0.35928000  0.23069000  0.86122000  1
  H  H44  1  0.40896000  0.35407000  0.83832000  1
  H  H45  1  0.56879000  0.18094000  0.81487000  1
  H  H46  1  0.61685000  0.30412000  0.79136000  1
  H  H47  1  0.53867000  0.39136000  0.80410000  1
  H  H48  1  0.99833000  0.72242000  0.90987000  1
  H  H49  1  0.76381000  0.53954000  0.84357000  1
  H  H50  1  0.82243000  0.56465000  0.02584000  1
  H  H51  1  0.96599000  0.61530000  0.05263000  1
  H  H52  1  0.08611000  0.65711000  0.01303000  1
  H  H53  1  0.06295000  0.65024000  0.94681000  1
  H  H54  1  0.79786000  0.56126000  0.95988000  1
  H  H55  1  0.75482000  0.74093000  0.86869000  1
  H  H56  1  0.65551000  0.78442000  0.83193000  1
  H  H57  1  0.79723000  0.62017000  0.77580000  1
  H  H58  1  0.69856000  0.66535000  0.73935000  1
  H  H59  1  0.62809000  0.74733000  0.76724000  1
  H  H60  1  0.97198000  0.05935000  0.82002000  1
  H  H61  1  0.04155000  0.22500000  0.92787000  1
  H  H62  1  0.70722000  0.89381000  0.87375000  1
  H  H63  1  0.60448000  0.94236000  0.84229000  1
  H  H64  1  0.64903000  0.06688000  0.82001000  1
  H  H65  1  0.79586000  0.14313000  0.82972000  1
  H  H66  1  0.85486000  0.96872000  0.88247000  1
  H  H67  1  0.18303000  0.29962000  0.87325000  1
  H  H68  1  0.31796000  0.36924000  0.90264000  1
  H  H69  1  0.18938000  0.11312000  0.93224000  1
  H  H70  1  0.32655000  0.18278000  0.96039000  1
  H  H71  1  0.38802000  0.31210000  0.94753000  1
  H  H72  1  0.97336000  0.51785000  0.66570000  1
  H  H73  1  0.80131000  0.67814000  0.69522000  1
  H  H74  1  0.19171000  0.74920000  0.60745000  1
  H  H75  1  0.29868000  0.74100000  0.65331000  1
  H  H76  1  0.25511000  0.67938000  0.71031000  1
  H  H77  1  0.10475000  0.62659000  0.72179000  1
  H  H78  1  0.04114000  0.69630000  0.61849000  1
  H  H79  1  0.67124000  0.58573000  0.64174000  1
  H  H80  1  0.53066000  0.57804000  0.66306000  1
  H  H81  1  0.72601000  0.49191000  0.73976000  1
  H  H82  1  0.58458000  0.48306000  0.76037000  1
  H  H83  1  0.48796000  0.52843000  0.72276000  1
  H  H84  1  0.49744000  0.05129000  0.69383000  1
  H  H85  1  0.26502000  0.16027000  0.69871000  1
  H  H86  1  0.32310000  0.80324000  0.74510000  1
  H  H87  1  0.40737000  0.83784000  0.80238000  1
  H  H88  1  0.47705000  0.96703000  0.81874000  1
  H  H89  1  0.45929000  0.06188000  0.77899000  1
  H  H90  1  0.31040000  0.89728000  0.70366000  1
  H  H91  1  0.52548000  0.28536000  0.69453000  1
  H  H92  1  0.55438000  0.40813000  0.67189000  1
  H  H93  1  0.28185000  0.22637000  0.64040000  1
  H  H94  1  0.30480000  0.35433000  0.62589000  1
  H  H95  1  0.44165000  0.44500000  0.64064000  1
  H  H96  1  0.88137000  0.02256000  0.75846000  1
  H  H97  1  0.83151000  0.01871000  0.62552000  1
  H  H98  1  0.90554000  0.28097000  0.78867000  1
  H  H99  1  0.75782000  0.28089000  0.78934000  1
  H  H100  1  0.64673000  0.18209000  0.75745000  1
  H  H101  1  0.68302000  0.08369000  0.72468000  1
  H  H102  1  0.94292000  0.18320000  0.75570000  1
  H  H103  1  0.77361000  0.82599000  0.66484000  1
  H  H104  1  0.79671000  0.72712000  0.62711000  1
  H  H105  1  0.99569000  0.97434000  0.62422000  1
  H  H106  1  0.01804000  0.87482000  0.58674000  1
  H  H107  1  0.91854000  0.75152000  0.58798000  1
  H  H108  1  0.99469000  0.51767000  0.50078000  1
  H  H109  1  0.97479000  0.29034000  0.56308000  1
  H  H110  1  0.87172000  0.62172000  0.61080000  1
  H  H111  1  0.77193000  0.64159000  0.56501000  1
  H  H112  1  0.74251000  0.56880000  0.50772000  1
  H  H113  1  0.81045000  0.47384000  0.49671000  1
  H  H114  1  0.94307000  0.52909000  0.59948000  1
  H  H115  1  0.09500000  0.31896000  0.46642000  1
  H  H116  1  0.20419000  0.25886000  0.45928000  1
  H  H117  1  0.14575000  0.33871000  0.58122000  1
  H  H118  1  0.25273000  0.27558000  0.57382000  1
  H  H119  1  0.28431000  0.23825000  0.51297000  1
  H  H120  1  0.39410000  0.90090000  0.47489000  1
  H  H121  1  0.60049000  0.93644000  0.57775000  1
  H  H122  1  0.33793000  0.14203000  0.48200000  1
  H  H123  1  0.41781000  0.17519000  0.42673000  1
  H  H124  1  0.52899000  0.11997000  0.41214000  1
  H  H125  1  0.56477000  0.03590000  0.45398000  1
  H  H126  1  0.36724000  0.05222000  0.52222000  1
  H  H127  1  0.48383000  0.78905000  0.60145000  1
  H  H128  1  0.55219000  0.70430000  0.62768000  1
  H  H129  1  0.63548000  0.80610000  0.50844000  1
  H  H130  1  0.70133000  0.71954000  0.53446000  1
  H  H131  1  0.65868000  0.66772000  0.59380000  1
  H  H132  1  0.53496000  0.47269000  0.58999000  1
  H  H133  1  0.60040000  0.47452000  0.46131000  1
  H  H134  1  0.25955000  0.46682000  0.59794000  1
  H  H135  1  0.26214000  0.59468000  0.59418000  1
  H  H136  1  0.37268000  0.68002000  0.56079000  1
  H  H137  1  0.48471000  0.63932000  0.53353000  1
  H  H138  1  0.36789000  0.42446000  0.56884000  1
  H  H139  1  0.52665000  0.33948000  0.44911000  1
  H  H140  1  0.58202000  0.25519000  0.41422000  1
  H  H141  1  0.72009000  0.36068000  0.53125000  1
  H  H142  1  0.76616000  0.26742000  0.49890000  1
  H  H143  1  0.69681000  0.21442000  0.44035000  1
  H  H144  1  0.07179000  0.80454000  0.31140000  1
  H  H145  1  0.01248000  0.69076000  0.42959000  1
  H  H146  1  0.37260000  0.85580000  0.30673000  1
  H  H147  1  0.39084000  0.73934000  0.28587000  1
  H  H148  1  0.27959000  0.62452000  0.29495000  1
  H  H149  1  0.14962000  0.62585000  0.32448000  1
  H  H150  1  0.24299000  0.85808000  0.33622000  1
  H  H151  1  0.83931000  0.62828000  0.39382000  1
  H  H152  1  0.71118000  0.61459000  0.42787000  1
  H  H153  1  0.92517000  0.85453000  0.42564000  1
  H  H154  1  0.79465000  0.84070000  0.45771000  1
  H  H155  1  0.68805000  0.72084000  0.45923000  1
  H  H156  1  0.01459000  0.24137000  0.36626000  1
  H  H157  1  0.31310000  0.38977000  0.36842000  1
  H  H158  1  0.86960000  0.32696000  0.45143000  1
  H  H159  1  0.86832000  0.45014000  0.43665000  1
  H  H160  1  0.97527000  0.52417000  0.39737000  1
  H  H161  1  0.08229000  0.47513000  0.37235000  1
  H  H162  1  0.97604000  0.27662000  0.42663000  1
  H  H163  1  0.31894000  0.21406000  0.38318000  1
  H  H164  1  0.42652000  0.16943000  0.35460000  1
  H  H165  1  0.27124000  0.30260000  0.28243000  1
  H  H166  1  0.37869000  0.25746000  0.25415000  1
  H  H167  1  0.45612000  0.19073000  0.29011000  1
  H  H168  1  0.75543000  0.84003000  0.33254000  1
  H  H169  1  0.62921000  0.91619000  0.44014000  1
  H  H170  1  0.43848000  0.62120000  0.31567000  1
  H  H171  1  0.53068000  0.54460000  0.30534000  1
  H  H172  1  0.68132000  0.59059000  0.32328000  1
  H  H173  1  0.73987000  0.71254000  0.35174000  1
  H  H174  1  0.49595000  0.74322000  0.34399000  1
  H  H175  1  0.74957000  0.07870000  0.37818000  1
  H  H176  1  0.82118000  0.19664000  0.40893000  1
  H  H177  1  0.79886000  0.97027000  0.47229000  1
  H  H178  1  0.86550000  0.08878000  0.50352000  1
  H  H179  1  0.87709000  0.20189000  0.47194000  1
  H  H180  1  0.64001000  0.95703000  0.97830000  1
  H  H181  1  0.47055000  0.98655000  0.08182000  1
  H  H182  1  0.66619000  0.72828000  0.96928000  1
  H  H183  1  0.52306000  0.64797000  0.95361000  1
  H  H184  1  0.40008000  0.68073000  0.97437000  1
  H  H185  1  0.41810000  0.79965000  0.00425000  1
  H  H186  1  0.68583000  0.84581000  0.00149000  1
  H  H187  1  0.62361000  0.16005000  0.07922000  1
  H  H188  1  0.56727000  0.26068000  0.09532000  1
  H  H189  1  0.40347000  0.06197000  0.01140000  1
  H  H190  1  0.34876000  0.16317000  0.02728000  1
  H  H191  1  0.42949000  0.26170000  0.06975000  1
  H  H192  1  0.02313000  0.48876000  0.08120000  1
  H  H193  1  0.04759000  0.44759000  0.94984000  1
  H  H194  1  0.79025000  0.21600000  0.07110000  1
  H  H195  1  0.71663000  0.27674000  0.11230000  1
  H  H196  1  0.74975000  0.40987000  0.11376000  1
  H  H197  1  0.85708000  0.48304000  0.07460000  1
  H  H198  1  0.90171000  0.28856000  0.03351000  1
  H  H199  1  0.23306000  0.43016000  0.00492000  1
  H  H200  1  0.34694000  0.44091000  0.96294000  1
  H  H201  1  0.17570000  0.60850000  0.95573000  1
  H  H202  1  0.29105000  0.61980000  0.91425000  1
  H  H203  1  0.37699000  0.53632000  0.91783000  1
  H  H204  1  0.56636000  0.35758000  0.04682000  1
  H  H205  1  0.46966000  0.55474000  0.99774000  1
  H  H206  1  0.61860000  0.41818000  0.17344000  1
  H  H207  1  0.47726000  0.36591000  0.19710000  1
  H  H208  1  0.35131000  0.35091000  0.15733000  1
  H  H209  1  0.36662000  0.38864000  0.09407000  1
  H  H210  1  0.63415000  0.45477000  0.11006000  1
  H  H211  1  0.66409000  0.58665000  0.97338000  1
  H  H212  1  0.71058000  0.63679000  0.91430000  1
  H  H213  1  0.45729000  0.42552000  0.91978000  1
  H  H214  1  0.50215000  0.47789000  0.86105000  1
  H  H215  1  0.62879000  0.58312000  0.85820000  1
  H  H216  1  0.23575000  0.98651000  0.20561000  1
  H  H217  1  0.04515000  0.75580000  0.15351000  1
  H  H218  1  0.49788000  0.99017000  0.14289000  1
  H  H219  1  0.55878000  0.96169000  0.19976000  1
  H  H220  1  0.46615000  0.89485000  0.24631000  1
  H  H221  1  0.31339000  0.85094000  0.23456000  1
  H  H222  1  0.34426000  0.94964000  0.13129000  1
  H  H223  1  0.02594000  0.83816000  0.26008000  1
  H  H224  1  0.91168000  0.74358000  0.28700000  1
  H  H225  1  0.90576000  0.77533000  0.15512000  1
  H  H226  1  0.79335000  0.68109000  0.18261000  1
  H  H227  1  0.79405000  0.66729000  0.24859000  1
  H  H228  1  0.12683000  0.19950000  0.14007000  1
  H  H229  1  0.14587000  0.43239000  0.20415000  1
  H  H230  1  0.05875000  0.32866000  0.01901000  1
  H  H231  1  0.16287000  0.27696000  0.99247000  1
  H  H232  1  0.26835000  0.24713000  0.03204000  1
  H  H233  1  0.26608000  0.26366000  0.09831000  1
  H  H234  1  0.06023000  0.35167000  0.08498000  1
  H  H235  1  0.94577000  0.24876000  0.22186000  1
  H  H236  1  0.87222000  0.26815000  0.27620000  1
  H  H237  1  0.17663000  0.39045000  0.26926000  1
  H  H238  1  0.09969000  0.41855000  0.32010000  1
  H  H239  1  0.94816000  0.35507000  0.32486000  1
  H  H240  1  0.79603000  0.83897000  0.16855000  1
  H  H241  1  0.51854000  0.79515000  0.22163000  1
  H  H242  1  0.75158000  0.78231000  0.04523000  1
  H  H243  1  0.74093000  0.65232000  0.04440000  1
  H  H244  1  0.69321000  0.58055000  0.09808000  1
  H  H245  1  0.65148000  0.63726000  0.15195000  1
  H  H246  1  0.71072000  0.84019000  0.09888000  1
  H  H247  1  0.56528000  0.80268000  0.28804000  1
  H  H248  1  0.53239000  0.87568000  0.33793000  1
  H  H249  1  0.69505000  0.99784000  0.23663000  1
  H  H250  1  0.67325000  0.06986000  0.28912000  1
  H  H251  1  0.59106000  0.00887000  0.33979000  1
  C  C252  1  0.20507000  0.76253000  0.14640000  1
  C  C253  1  0.50878000  0.73973000  0.15405000  1
  C  C254  1  0.20007000  0.45264000  0.13740000  1
  C  C255  1  0.47729000  0.55679000  0.06885000  1
  C  C256  1  0.17649000  0.55600000  0.05912000  1
  C  C257  1  0.48813000  0.85389000  0.07669000  1
  C  C258  1  0.16860000  0.70207000  0.40721000  1
  C  C259  1  0.22145000  0.44482000  0.41184000  1
  C  C260  1  0.53921000  0.78502000  0.41346000  1
  C  C261  1  0.47530000  0.52897000  0.47373000  1
  C  C262  1  0.41927000  0.77672000  0.49291000  1
  C  C263  1  0.13354000  0.47855000  0.49640000  1
  C  C264  1  0.11439000  0.16649000  0.34112000  1
  C  C265  1  0.07253000  0.97334000  0.21677000  1
  C  C266  1  0.96868000  0.85483000  0.35089000  1
  C  C267  1  0.80496000  0.91383000  0.22943000  1
  C  C268  1  0.84072000  0.97375000  0.35658000  1
  C  C269  1  0.07865000  0.18099000  0.20914000  1
  C  C270  1  0.81247000  0.13813000  0.65900000  1
  C  C271  1  0.51260000  0.15597000  0.64542000  1
  C  C272  1  0.81034000  0.44332000  0.66783000  1
  C  C273  1  0.57269000  0.35385000  0.56896000  1
  C  C274  1  0.86145000  0.35282000  0.58663000  1
  C  C275  1  0.56397000  0.05761000  0.56169000  1
  C  C276  1  0.57440000  0.36418000  0.97542000  1
  C  C277  1  0.89203000  0.38665000  0.97154000  1
  C  C278  1  0.61762000  0.08764000  0.98243000  1
  C  C279  1  0.88525000  0.19911000  0.90081000  1
  C  C280  1  0.56164000  0.15567000  0.89662000  1
  C  C281  1  0.83016000  0.48313000  0.89803000  1
  C  C282  1  0.96058000  0.76647000  0.84418000  1
  C  C283  1  0.94632000  0.93096000  0.72188000  1
  C  C284  1  0.12539000  0.07309000  0.84963000  1
  C  C285  1  0.22249000  0.02039000  0.71768000  1
  C  C286  1  0.25643000  0.95590000  0.83861000  1
  C  C287  1  0.96516000  0.73983000  0.70720000  1
  C  C288  1  0.32793000  0.00830000  0.85843000  1
  C  C289  1  0.38005000  0.98568000  0.88299000  1
  C  C290  1  0.45998000  0.03244000  0.89287000  1
  C  C291  1  0.48692000  0.10261000  0.87979000  1
  C  C292  1  0.43420000  0.12542000  0.85583000  1
  C  C293  1  0.35454000  0.07919000  0.84629000  1
  C  C294  1  0.46186000  0.19804000  0.84056000  1
  C  C295  1  0.41626000  0.24686000  0.84656000  1
  C  C296  1  0.44400000  0.31641000  0.83342000  1
  C  C297  1  0.51677000  0.33725000  0.81388000  1
  C  C298  1  0.56118000  0.28816000  0.80692000  1
  C  C299  1  0.53379000  0.21856000  0.82012000  1
  C  C300  1  0.35007000  0.91551000  0.90024000  1
  C  C301  1  0.29150000  0.90603000  0.92732000  1
  C  C302  1  0.26662000  0.84098000  0.94515000  1
  C  C303  1  0.30083000  0.78565000  0.93639000  1
  C  C304  1  0.35998000  0.79518000  0.90974000  1
  C  C305  1  0.38475000  0.86001000  0.89169000  1
  C  C306  1  0.85378000  0.55952000  0.88832000  1
  C  C307  1  0.91351000  0.61368000  0.90951000  1
  C  C308  1  0.94850000  0.68199000  0.89503000  1
  C  C309  1  0.91555000  0.69949000  0.86258000  1
  C  C310  1  0.84132000  0.65065000  0.84687000  1
  C  C311  1  0.81585000  0.57904000  0.85775000  1
  C  C312  1  0.78247000  0.67709000  0.82483000  1
  C  C313  1  0.74273000  0.72410000  0.84048000  1
  C  C314  1  0.68687000  0.74897000  0.81973000  1
  C  C315  1  0.67116000  0.72783000  0.78329000  1
  C  C316  1  0.71089000  0.68144000  0.76755000  1
  C  C317  1  0.76620000  0.65571000  0.78825000  1
  C  C318  1  0.92889000  0.60404000  0.94843000  1
  C  C319  1  0.86110000  0.58028000  0.97113000  1
  C  C320  1  0.87478000  0.58334000  0.00854000  1
  C  C321  1  0.95568000  0.61182000  0.02363000  1
  C  C322  1  0.02342000  0.63507000  0.00130000  1
  C  C323  1  0.01037000  0.63020000  0.96383000  1
  C  C324  1  0.94273000  0.15774000  0.89271000  1
  C  C325  1  0.92294000  0.10706000  0.86355000  1
  C  C326  1  0.98735000  0.09322000  0.84431000  1
  C  C327  1  0.07018000  0.11705000  0.85826000  1
  C  C328  1  0.08962000  0.16518000  0.88869000  1
  C  C329  1  0.02576000  0.18493000  0.90576000  1
  C  C330  1  0.17712000  0.20144000  0.90053000  1
  C  C331  1  0.21442000  0.27362000  0.89200000  1
  C  C332  1  0.29031000  0.31330000  0.90890000  1
  C  C333  1  0.33017000  0.28086000  0.93392000  1
  C  C334  1  0.29501000  0.20811000  0.94143000  1
  C  C335  1  0.21816000  0.16850000  0.92506000  1
  C  C336  1  0.83577000  0.06103000  0.85640000  1
  C  C337  1  0.81033000  0.99030000  0.86865000  1
  C  C338  1  0.72699000  0.94780000  0.86365000  1
  C  C339  1  0.66898000  0.97529000  0.84601000  1
  C  C340  1  0.69417000  0.04544000  0.83341000  1
  C  C341  1  0.77735000  0.08835000  0.83863000  1
  C  C342  1  0.92501000  0.67117000  0.68789000  1
  C  C343  1  0.97304000  0.62652000  0.67759000  1
  C  C344  1  0.93523000  0.55211000  0.67271000  1
  C  C345  1  0.84815000  0.52206000  0.67524000  1
  C  C346  1  0.79913000  0.56840000  0.68310000  1
  C  C347  1  0.83822000  0.64279000  0.68835000  1
  C  C348  1  0.70892000  0.54033000  0.68949000  1
  C  C349  1  0.65216000  0.56217000  0.66739000  1
  C  C350  1  0.57316000  0.55885000  0.67963000  1
  C  C351  1  0.54907000  0.53087000  0.71328000  1
  C  C352  1  0.60327000  0.50466000  0.73436000  1
  C  C353  1  0.68282000  0.50880000  0.72241000  1
  C  C354  1  0.06273000  0.65769000  0.67087000  1
  C  C355  1  0.08760000  0.69247000  0.63861000  1
  C  C356  1  0.17259000  0.72244000  0.63235000  1
  C  C357  1  0.23292000  0.71782000  0.65821000  1
  C  C358  1  0.20835000  0.68312000  0.69037000  1
  C  C359  1  0.12341000  0.65311000  0.69676000  1
  C  C360  1  0.30679000  0.06940000  0.71240000  1
  C  C361  1  0.37635000  0.04279000  0.71416000  1
  C  C362  1  0.44617000  0.07449000  0.69401000  1
  C  C363  1  0.44934000  0.13497000  0.67365000  1
  C  C364  1  0.38781000  0.17081000  0.67866000  1
  C  C365  1  0.31540000  0.13618000  0.69711000  1
  C  C366  1  0.40236000  0.24660000  0.66831000  1
  C  C367  1  0.47774000  0.29948000  0.67871000  1
  C  C368  1  0.49321000  0.36981000  0.66716000  1
  C  C369  1  0.43063000  0.38979000  0.64843000  1
  C  C370  1  0.35382000  0.33841000  0.63965000  1
  C  C371  1  0.34037000  0.26647000  0.64859000  1
  C  C372  1  0.37994000  0.98629000  0.73943000  1
  C  C373  1  0.34359000  0.91297000  0.72948000  1
  C  C374  1  0.35225000  0.85967000  0.75252000  1
  C  C375  1  0.40001000  0.87918000  0.78477000  1
  C  C376  1  0.43911000  0.95201000  0.79406000  1
  C  C377  1  0.42868000  0.00554000  0.77163000  1
  C  C378  1  0.83018000  0.07595000  0.67614000  1
  C  C379  1  0.83880000  0.07402000  0.71410000  1
  C  C380  1  0.86972000  0.02136000  0.72951000  1
  C  C381  1  0.88991000  0.96966000  0.70746000  1
  C  C382  1  0.87056000  0.96592000  0.67007000  1
  C  C383  1  0.84196000  0.01960000  0.65452000  1
  C  C384  1  0.88274000  0.90711000  0.64688000  1
  C  C385  1  0.82670000  0.83708000  0.64764000  1
  C  C386  1  0.83962000  0.78116000  0.62634000  1
  C  C387  1  0.90847000  0.79483000  0.60436000  1
  C  C388  1  0.96453000  0.86444000  0.60362000  1
  C  C389  1  0.95170000  0.92062000  0.62474000  1
  C  C390  1  0.81561000  0.12694000  0.73772000  1
  C  C391  1  0.87811000  0.18235000  0.75626000  1
  C  C392  1  0.85721000  0.23800000  0.77461000  1
  C  C393  1  0.77385000  0.23793000  0.77500000  1
  C  C394  1  0.71116000  0.18196000  0.75726000  1
  C  C395  1  0.73176000  0.12625000  0.73885000  1
  C  C396  1  0.92363000  0.37954000  0.55840000  1
  C  C397  1  0.92839000  0.44375000  0.53957000  1
  C  C398  1  0.99068000  0.46839000  0.51469000  1
  C  C399  1  0.05434000  0.43645000  0.51145000  1
  C  C400  1  0.04770000  0.37055000  0.52844000  1
  C  C401  1  0.98062000  0.34143000  0.55069000  1
  C  C402  1  0.11223000  0.33293000  0.52421000  1
  C  C403  1  0.12849000  0.30927000  0.48992000  1
  C  C404  1  0.19074000  0.27563000  0.48589000  1
  C  C405  1  0.23602000  0.26417000  0.51612000  1
  C  C406  1  0.21884000  0.28598000  0.55044000  1
  C  C407  1  0.15765000  0.32087000  0.55456000  1
  C  C408  1  0.87676000  0.49105000  0.54864000  1
  C  C409  1  0.89557000  0.53455000  0.58040000  1
  C  C410  1  0.85627000  0.58761000  0.58658000  1
  C  C411  1  0.80005000  0.59901000  0.56066000  1
  C  C412  1  0.78317000  0.55764000  0.52843000  1
  C  C413  1  0.82137000  0.50379000  0.52234000  1
  C  C414  1  0.53401000  0.98752000  0.54196000  1
  C  C415  1  0.47833000  0.97757000  0.51168000  1
  C  C416  1  0.43800000  0.90798000  0.49775000  1
  C  C417  1  0.45847000  0.84829000  0.51104000  1
  C  C418  1  0.52080000  0.85939000  0.53928000  1
  C  C419  1  0.55598000  0.92860000  0.55506000  1
  C  C420  1  0.55171000  0.80049000  0.55224000  1
  C  C421  1  0.53038000  0.77324000  0.58647000  1
  C  C422  1  0.56961000  0.72601000  0.60152000  1
  C  C423  1  0.63035000  0.70592000  0.58258000  1
  C  C424  1  0.65367000  0.73453000  0.54896000  1
  C  C425  1  0.61551000  0.78261000  0.53405000  1
  C  C426  1  0.46972000  0.03946000  0.49146000  1
  C  C427  1  0.40497000  0.06903000  0.49900000  1
  C  C428  1  0.38748000  0.11895000  0.47603000  1
  C  C429  1  0.43223000  0.13737000  0.44476000  1
  C  C430  1  0.49562000  0.10694000  0.43677000  1
  C  C431  1  0.51583000  0.05954000  0.46047000  1
  C  C432  1  0.52757000  0.50831000  0.50083000  1
  C  C433  1  0.50748000  0.50688000  0.53772000  1
  C  C434  1  0.54469000  0.46968000  0.56134000  1
  C  C435  1  0.57731000  0.41676000  0.54744000  1
  C  C436  1  0.59639000  0.41714000  0.51043000  1
  C  C437  1  0.58135000  0.47057000  0.48904000  1
  C  C438  1  0.62035000  0.35704000  0.49266000  1
  C  C439  1  0.57999000  0.32510000  0.45989000  1
  C  C440  1  0.61019000  0.27640000  0.44039000  1
  C  C441  1  0.67601000  0.25444000  0.45480000  1
  C  C442  1  0.71462000  0.28400000  0.48790000  1
  C  C443  1  0.68791000  0.33610000  0.50648000  1
  C  C444  1  0.43582000  0.52983000  0.55024000  1
  C  C445  1  0.37031000  0.48070000  0.56760000  1
  C  C446  1  0.30891000  0.50447000  0.58401000  1
  C  C447  1  0.31040000  0.57652000  0.58191000  1
  C  C448  1  0.37329000  0.62485000  0.56340000  1
  C  C449  1  0.43602000  0.60165000  0.54763000  1
  C  C450  1  0.09867000  0.71604000  0.38642000  1
  C  C451  1  0.11136000  0.74301000  0.35149000  1
  C  C452  1  0.05609000  0.77702000  0.33628000  1
  C  C453  1  0.98983000  0.78690000  0.35597000  1
  C  C454  1  0.96972000  0.74957000  0.38839000  1
  C  C455  1  0.02498000  0.71510000  0.40359000  1
  C  C456  1  0.88959000  0.74317000  0.40580000  1
  C  C457  1  0.82970000  0.67501000  0.40747000  1
  C  C458  1  0.75737000  0.66709000  0.42681000  1
  C  C459  1  0.74435000  0.72697000  0.44452000  1
  C  C460  1  0.80427000  0.79466000  0.44349000  1
  C  C461  1  0.87733000  0.80273000  0.42466000  1
  C  C462  1  0.18697000  0.74214000  0.33210000  1
  C  C463  1  0.25028000  0.80700000  0.32699000  1
  C  C464  1  0.32376000  0.80579000  0.31050000  1
  C  C465  1  0.33411000  0.74010000  0.29881000  1
  C  C466  1  0.27125000  0.67537000  0.30382000  1
  C  C467  1  0.19773000  0.67625000  0.32040000  1
  C  C468  1  0.18998000  0.38351000  0.38590000  1
  C  C469  1  0.10428000  0.34284000  0.38410000  1
  C  C470  1  0.08003000  0.27302000  0.36769000  1
  C  C471  1  0.13975000  0.24397000  0.35294000  1
  C  C472  1  0.22372000  0.28801000  0.35165000  1
  C  C473  1  0.24788000  0.35749000  0.36792000  1
  C  C474  1  0.28764000  0.26115000  0.33471000  1
  C  C475  1  0.33187000  0.22373000  0.35504000  1
  C  C476  1  0.39253000  0.19842000  0.33893000  1
  C  C477  1  0.40929000  0.21050000  0.30256000  1
  C  C478  1  0.36563000  0.24814000  0.28228000  1
  C  C479  1  0.30511000  0.27374000  0.29831000  1
  C  C480  1  0.03922000  0.37307000  0.39879000  1
  C  C481  1  0.97672000  0.33081000  0.42025000  1
  C  C482  1  0.91600000  0.35898000  0.43413000  1
  C  C483  1  0.91550000  0.42855000  0.42590000  1
  C  C484  1  0.97589000  0.47030000  0.40382000  1
  C  C485  1  0.03709000  0.44264000  0.38997000  1
  C  C486  1  0.61945000  0.83073000  0.40027000  1
  C  C487  1  0.65686000  0.80807000  0.37022000  1
  C  C488  1  0.72957000  0.85561000  0.35675000  1
  C  C489  1  0.76747000  0.92395000  0.37340000  1
  C  C490  1  0.73162000  0.94549000  0.40404000  1
  C  C491  1  0.65742000  0.89906000  0.41697000  1
  C  C492  1  0.77098000  0.01626000  0.42282000  1
  C  C493  1  0.77582000  0.08052000  0.40534000  1
  C  C494  1  0.81584000  0.14722000  0.42276000  1
  C  C495  1  0.84761000  0.15019000  0.45822000  1
  C  C496  1  0.84103000  0.08639000  0.47605000  1
  C  C497  1  0.80316000  0.01948000  0.45839000  1
  C  C498  1  0.62110000  0.73476000  0.35251000  1
  C  C499  1  0.53630000  0.70941000  0.34081000  1
  C  C500  1  0.50387000  0.64076000  0.32421000  1
  C  C501  1  0.55591000  0.59768000  0.31827000  1
  C  C502  1  0.64074000  0.62346000  0.32854000  1
  C  C503  1  0.67353000  0.69200000  0.34523000  1
  C  C504  1  0.52098000  0.91364000  0.05234000  1
  C  C505  1  0.56433000  0.90396000  0.02138000  1
  C  C506  1  0.60632000  0.96430000  0.00189000  1
  C  C507  1  0.59516000  0.03170000  0.00955000  1
  C  C508  1  0.54454000  0.03926000  0.03854000  1
  C  C509  1  0.51013000  0.98074000  0.06017000  1
  C  C510  1  0.51813000  0.10477000  0.04372000  1
  C  C511  1  0.56439000  0.16124000  0.06728000  1
  C  C512  1  0.53237000  0.21779000  0.07661000  1
  C  C513  1  0.45459000  0.21838000  0.06222000  1
  C  C514  1  0.40903000  0.16286000  0.03827000  1
  C  C515  1  0.44024000  0.10588000  0.02922000  1
  C  C516  1  0.55338000  0.83066000  0.00558000  1
  C  C517  1  0.62327000  0.80993000  0.99571000  1
  C  C518  1  0.61229000  0.74364000  0.97740000  1
  C  C519  1  0.53173000  0.69784000  0.96901000  1
  C  C520  1  0.46218000  0.71705000  0.97995000  1
  C  C521  1  0.47263000  0.78383000  0.99744000  1
  C  C522  1  0.96576000  0.42569000  0.99456000  1
  C  C523  1  0.95981000  0.43491000  0.03214000  1
  C  C524  1  0.02819000  0.48058000  0.05245000  1
  C  C525  1  0.10452000  0.51219000  0.03634000  1
  C  C526  1  0.11265000  0.49677000  0.99940000  1
  C  C527  1  0.04227000  0.45633000  0.97854000  1
  C  C528  1  0.19487000  0.51741000  0.98270000  1
  C  C529  1  0.24552000  0.47179000  0.98533000  1
  C  C530  1  0.31030000  0.47807000  0.96170000  1
  C  C531  1  0.32682000  0.53148000  0.93613000  1
  C  C532  1  0.27839000  0.57859000  0.93414000  1
  C  C533  1  0.21342000  0.57241000  0.95774000  1
  C  C534  1  0.88655000  0.39093000  0.05108000  1
  C  C535  1  0.86727000  0.31530000  0.05024000  1
  C  C536  1  0.80477000  0.27422000  0.07170000  1
  C  C537  1  0.76251000  0.30836000  0.09460000  1
  C  C538  1  0.78095000  0.38348000  0.09533000  1
  C  C539  1  0.84211000  0.42475000  0.07335000  1
  C  C540  1  0.48465000  0.49821000  0.04526000  1
  C  C541  1  0.51044000  0.44116000  0.05918000  1
  C  C542  1  0.54467000  0.40043000  0.03618000  1
  C  C543  1  0.55213000  0.41518000  0.99954000  1
  C  C544  1  0.52874000  0.47355000  0.98597000  1
  C  C545  1  0.48918000  0.51064000  0.00830000  1
  C  C546  1  0.55667000  0.50312000  0.95065000  1
  C  C547  1  0.62896000  0.56230000  0.94890000  1
  C  C548  1  0.65497000  0.59099000  0.91558000  1
  C  C549  1  0.60901000  0.56071000  0.88395000  1
  C  C550  1  0.53753000  0.50129000  0.88556000  1
  C  C551  1  0.51156000  0.47225000  0.91880000  1
  C  C552  1  0.50135000  0.42322000  0.09760000  1
  C  C553  1  0.57242000  0.43210000  0.12024000  1
  C  C554  1  0.56366000  0.41143000  0.15605000  1
  C  C555  1  0.48398000  0.38189000  0.16937000  1
  C  C556  1  0.41298000  0.37323000  0.14693000  1
  C  C557  1  0.42160000  0.39374000  0.11110000  1
  C  C558  1  0.17318000  0.81936000  0.16291000  1
  C  C559  1  0.22757000  0.88448000  0.17862000  1
  C  C560  1  0.19407000  0.93498000  0.19549000  1
  C  C561  1  0.10786000  0.91760000  0.20090000  1
  C  C562  1  0.05503000  0.84841000  0.18856000  1
  C  C563  1  0.08703000  0.80530000  0.16571000  1
  C  C564  1  0.97491000  0.81311000  0.20566000  1
  C  C565  1  0.97459000  0.80509000  0.24312000  1
  C  C566  1  0.90979000  0.75211000  0.25843000  1
  C  C567  1  0.84384000  0.70840000  0.23669000  1
  C  C568  1  0.84291000  0.71669000  0.19954000  1
  C  C569  1  0.90683000  0.77002000  0.18410000  1
  C  C570  1  0.31837000  0.89646000  0.18194000  1
  C  C571  1  0.37077000  0.93552000  0.15595000  1
  C  C572  1  0.45745000  0.95856000  0.16242000  1
  C  C573  1  0.49186000  0.94318000  0.19477000  1
  C  C574  1  0.43979000  0.90470000  0.22079000  1
  C  C575  1  0.35343000  0.88004000  0.21412000  1
  C  C576  1  0.16853000  0.38212000  0.15480000  1
  C  C577  1  0.15856000  0.31549000  0.13582000  1
  C  C578  1  0.13149000  0.25028000  0.15418000  1
  C  C579  1  0.10687000  0.25022000  0.19005000  1
  C  C580  1  0.10814000  0.31635000  0.20740000  1
  C  C581  1  0.14270000  0.38167000  0.19028000  1
  C  C582  1  0.06667000  0.31797000  0.24185000  1
  C  C583  1  0.98047000  0.28324000  0.24406000  1
  C  C584  1  0.93847000  0.29515000  0.27445000  1
  C  C585  1  0.98135000  0.34395000  0.30194000  1
  C  C586  1  0.06691000  0.37889000  0.29965000  1
  C  C587  1  0.11013000  0.36364000  0.27053000  1
  C  C588  1  0.16564000  0.31214000  0.09620000  1
  C  C589  1  0.10668000  0.32989000  0.07357000  1
  C  C590  1  0.10526000  0.31641000  0.03630000  1
  C  C591  1  0.16342000  0.28648000  0.02137000  1
  C  C592  1  0.22284000  0.26955000  0.04368000  1
  C  C593  1  0.22262000  0.28045000  0.08107000  1
  C  C594  1  0.58563000  0.77125000  0.17684000  1
  C  C595  1  0.66583000  0.77951000  0.16309000  1
  C  C596  1  0.73657000  0.82514000  0.18146000  1
  C  C597  1  0.73060000  0.85826000  0.21468000  1
  C  C598  1  0.65079000  0.85054000  0.22858000  1
  C  C599  1  0.57950000  0.80352000  0.21048000  1
  C  C600  1  0.64001000  0.89462000  0.26052000  1
  C  C601  1  0.59159000  0.86070000  0.28885000  1
  C  C602  1  0.57234000  0.90198000  0.31686000  1
  C  C603  1  0.60421000  0.97715000  0.31759000  1
  C  C604  1  0.65109000  0.01148000  0.28919000  1
  C  C605  1  0.66666667  0.97060000  0.26013000  1
  C  C606  1  0.67726000  0.74258000  0.12904000  1
  C  C607  1  0.70513000  0.78314000  0.09863000  1
  C  C608  1  0.72827000  0.75056000  0.06827000  1
  C  C609  1  0.72350000  0.67749000  0.06802000  1
  C  C610  1  0.69621000  0.63692000  0.09824000  1
  C  C611  1  0.67252000  0.66909000  0.12862000  1
  O  O612  1  0.15113000  0.49445000  0.13500000  1
  O  O613  1  0.27971000  0.47772000  0.12995000  1
  O  O614  1  0.36827000  0.67619000  0.07575000  1
  O  O615  1  0.52376000  0.62233000  0.06287000  1
  O  O616  1  0.24327000  0.53441000  0.06239000  1
  O  O617  1  0.43060000  0.54356000  0.09708000  1
  O  O618  1  0.16668000  0.60638000  0.08165000  1
  O  O619  1  0.53419000  0.81300000  0.08537000  1
  O  O620  1  0.40965000  0.83590000  0.08583000  1
  O  O621  1  0.31194000  0.63812000  0.13917000  1
  O  O622  1  0.15733000  0.69447000  0.14722000  1
  O  O623  1  0.45068000  0.77273000  0.15258000  1
  O  O624  1  0.26277000  0.78160000  0.12223000  1
  O  O625  1  0.50599000  0.68817000  0.13017000  1
  O  O626  1  0.47656000  0.81235000  0.41721000  1
  O  O627  1  0.53075000  0.71742000  0.42097000  1
  O  O628  1  0.31785000  0.60220000  0.47636000  1
  O  O629  1  0.40091000  0.48556000  0.46546000  1
  O  O630  1  0.46303000  0.73203000  0.48885000  1
  O  O631  1  0.50250000  0.59069000  0.45798000  1
  O  O632  1  0.35085000  0.76661000  0.47275000  1
  O  O633  1  0.20379000  0.48136000  0.51374000  1
  O  O634  1  0.13269000  0.51557000  0.46675000  1
  O  O635  1  0.34590000  0.65193000  0.41327000  1
  O  O636  1  0.23589000  0.75722000  0.41464000  1
  O  O637  1  0.22884000  0.51042000  0.40178000  1
  O  O638  1  0.15373000  0.64312000  0.42613000  1
  O  O639  1  0.23430000  0.43213000  0.44572000  1
  O  O640  1  0.01162000  0.91202000  0.37102000  1
  O  O641  1  0.91579000  0.85981000  0.32381000  1
  O  O642  1  0.95242000  0.06204000  0.27020000  1
  O  O643  1  0.82527000  0.97689000  0.21412000  1
  O  O644  1  0.83791000  0.98140000  0.32198000  1
  O  O645  1  0.85932000  0.89521000  0.25070000  1
  O  O646  1  0.91201000  0.00032000  0.37503000  1
  O  O647  1  0.02768000  0.12304000  0.19254000  1
  O  O648  1  0.10204000  0.17883000  0.24309000  1
  O  O649  1  0.03529000  0.99154000  0.30379000  1
  O  O650  1  0.05805000  0.11900000  0.35935000  1
  O  O651  1  0.12092000  0.02897000  0.23671000  1
  O  O652  1  0.14603000  0.14585000  0.31202000  1
  O  O653  1  0.99344000  0.96793000  0.20967000  1
  O  O654  1  0.85951000  0.40155000  0.66883000  1
  O  O655  1  0.73343000  0.41811000  0.65411000  1
  O  O656  1  0.67217000  0.23580000  0.58166000  1
  O  O657  1  0.52260000  0.29073000  0.55771000  1
  O  O658  1  0.79763000  0.37801000  0.58908000  1
  O  O659  1  0.60310000  0.36325000  0.60234000  1
  O  O660  1  0.86962000  0.30279000  0.60871000  1
  O  O661  1  0.51233000  0.09529000  0.56698000  1
  O  O662  1  0.63848000  0.07779000  0.57783000  1
  O  O663  1  0.70441000  0.25943000  0.65075000  1
  O  O664  1  0.85809000  0.20402000  0.66942000  1
  O  O665  1  0.57093000  0.12327000  0.64315000  1
  O  O666  1  0.76927000  0.12710000  0.62811000  1
  O  O667  1  0.50659000  0.20276000  0.62112000  1
  O  O668  1  0.55979000  0.11377000  0.96983000  1
  O  O669  1  0.69426000  0.11085000  0.97049000  1
  O  O670  1  0.73454000  0.29293000  0.90265000  1
  O  O671  1  0.88261000  0.25093000  0.87920000  1
  O  O672  1  0.63220000  0.13956000  0.89987000  1
  O  O673  1  0.83611000  0.18269000  0.92856000  1
  O  O674  1  0.55253000  0.21103000  0.91529000  1
  O  O675  1  0.88481000  0.44707000  0.89601000  1
  O  O676  1  0.75338000  0.45051000  0.90688000  1
  O  O677  1  0.69890000  0.26411000  0.96932000  1
  O  O678  1  0.52811000  0.29663000  0.97457000  1
  O  O679  1  0.82404000  0.40724000  0.97223000  1
  O  O680  1  0.62437000  0.38849000  0.94916000  1
  O  O681  1  0.89880000  0.33877000  0.94686000  1
  O  O682  1  0.12531000  0.02023000  0.87107000  1
  O  O683  1  0.15637000  0.07462000  0.81696000  1
  O  O684  1  0.11229000  0.86996000  0.76104000  1
  O  O685  1  0.19516000  0.96122000  0.69706000  1
  O  O686  1  0.24683000  0.96399000  0.80431000  1
  O  O687  1  0.17419000  0.03664000  0.74184000  1
  O  O688  1  0.19531000  0.91170000  0.85575000  1
  O  O689  1  0.99895000  0.79812000  0.68931000  1
  O  O690  1  0.96585000  0.74236000  0.74247000  1
  O  O691  1  0.03889000  0.93301000  0.80474000  1
  O  O692  1  0.03049000  0.81094000  0.85908000  1
  O  O693  1  0.91832000  0.87740000  0.74375000  1
  O  O694  1  0.93345000  0.77719000  0.81174000  1
  O  O695  1  0.02406000  0.94924000  0.71172000  1
