# generated using pymatgen
data_CuH24(C3N)8
_symmetry_space_group_name_H-M   'P 1'
_cell_length_a   20.52457662
_cell_length_b   20.59480000
_cell_length_c   20.59548000
_cell_angle_alpha   70.45644000
_cell_angle_beta   70.60258043
_cell_angle_gamma   109.40378702
_symmetry_Int_Tables_number   1
_chemical_formula_structural   CuH24(C3N)8
_chemical_formula_sum   'Cu6 H144 C144 N48'
_cell_volume   6707.33272888
_cell_formula_units_Z   6
loop_
 _symmetry_equiv_pos_site_id
 _symmetry_equiv_pos_as_xyz
  1  'x, y, z'
loop_
 _atom_site_type_symbol
 _atom_site_label
 _atom_site_symmetry_multiplicity
 _atom_site_fract_x
 _atom_site_fract_y
 _atom_site_fract_z
 _atom_site_occupancy
  Cu  Cu0  1  0.49977000  0.75012000  0.75010000  1
  Cu  Cu1  1  0.49977000  0.24992000  0.24986000  1
  Cu  Cu2  1  0.24985000  0.75007000  0.49978000  1
  Cu  Cu3  1  0.74964000  0.24986000  0.50023000  1
  Cu  Cu4  1  0.24986000  0.50022000  0.24991000  1
  Cu  Cu5  1  0.74964000  0.49978000  0.75014000  1
  H  H6  1  0.51236000  0.76121000  0.87067000  1
  H  H7  1  0.51675000  0.67534000  0.91924000  1
  H  H8  1  0.21644000  0.51204000  0.87049000  1
  H  H9  1  0.16806000  0.55331000  0.91713000  1
  H  H10  1  0.36834000  0.23901000  0.24891000  1
  H  H11  1  0.40571000  0.32509000  0.15889000  1
  H  H12  1  0.61800000  0.48774000  0.29561000  1
  H  H13  1  0.52963000  0.44627000  0.38501000  1
  H  H14  1  0.63174000  0.38287000  0.12935000  1
  H  H15  1  0.59401000  0.43538000  0.08075000  1
  H  H16  1  0.38263000  0.08716000  0.12955000  1
  H  H17  1  0.47106000  0.08593000  0.08290000  1
  H  H18  1  0.48716000  0.61715000  0.75129000  1
  H  H19  1  0.48338000  0.56443000  0.84130000  1
  H  H20  1  0.78320000  0.91267000  0.70450000  1
  H  H21  1  0.83129000  0.91398000  0.61506000  1
  H  H22  1  0.23847000  0.75130000  0.63152000  1
  H  H23  1  0.32469000  0.84131000  0.59423000  1
  H  H24  1  0.48769000  0.70452000  0.38284000  1
  H  H25  1  0.44635000  0.61507000  0.47096000  1
  H  H26  1  0.76108000  0.12936000  0.48779000  1
  H  H27  1  0.67475000  0.08078000  0.48387000  1
  H  H28  1  0.51220000  0.12957000  0.78325000  1
  H  H29  1  0.55398000  0.08290000  0.83114000  1
  H  H30  1  0.61726000  0.24891000  0.51207000  1
  H  H31  1  0.56463000  0.15889000  0.51602000  1
  H  H32  1  0.91358000  0.29559000  0.21669000  1
  H  H33  1  0.91463000  0.38500000  0.16873000  1
  H  H34  1  0.38302000  0.87067000  0.36812000  1
  H  H35  1  0.43596000  0.91921000  0.40545000  1
  H  H36  1  0.08696000  0.87048000  0.61746000  1
  H  H37  1  0.08520000  0.91712000  0.52955000  1
  H  H38  1  0.24887000  0.48777000  0.38287000  1
  H  H39  1  0.15863000  0.48386000  0.43536000  1
  H  H40  1  0.29546000  0.78328000  0.08717000  1
  H  H41  1  0.38512000  0.83118000  0.08595000  1
  H  H42  1  0.87000000  0.63155000  0.61715000  1
  H  H43  1  0.91892000  0.59424000  0.56445000  1
  H  H44  1  0.87053000  0.38282000  0.91266000  1
  H  H45  1  0.91734000  0.47096000  0.91396000  1
  H  H46  1  0.75115000  0.36810000  0.76121000  1
  H  H47  1  0.84141000  0.40544000  0.67535000  1
  H  H48  1  0.70441000  0.61747000  0.51204000  1
  H  H49  1  0.61475000  0.52955000  0.55330000  1
  H  H50  1  0.12933000  0.51209000  0.23900000  1
  H  H51  1  0.08066000  0.51604000  0.32506000  1
  H  H52  1  0.13026000  0.21666000  0.48774000  1
  H  H53  1  0.08333000  0.16870000  0.44630000  1
  H  H54  1  0.75115000  0.23879000  0.63188000  1
  H  H55  1  0.84141000  0.32466000  0.59458000  1
  H  H56  1  0.70440000  0.48796000  0.38253000  1
  H  H57  1  0.61474000  0.44668000  0.47045000  1
  H  H58  1  0.12933000  0.76099000  0.48791000  1
  H  H59  1  0.08062000  0.67491000  0.48398000  1
  H  H60  1  0.13026000  0.51226000  0.78335000  1
  H  H61  1  0.08336000  0.55373000  0.83128000  1
  H  H62  1  0.24887000  0.61713000  0.51222000  1
  H  H63  1  0.15863000  0.56462000  0.51613000  1
  H  H64  1  0.29547000  0.91284000  0.21671000  1
  H  H65  1  0.38513000  0.91407000  0.16883000  1
  H  H66  1  0.87000000  0.38284000  0.36845000  1
  H  H67  1  0.91895000  0.43557000  0.40573000  1
  H  H68  1  0.87053000  0.08733000  0.61718000  1
  H  H69  1  0.91731000  0.08602000  0.52905000  1
  H  H70  1  0.48717000  0.24870000  0.38282000  1
  H  H71  1  0.48338000  0.15869000  0.43554000  1
  H  H72  1  0.78317000  0.29548000  0.08736000  1
  H  H73  1  0.83128000  0.38493000  0.08603000  1
  H  H74  1  0.63172000  0.87063000  0.61715000  1
  H  H75  1  0.59397000  0.91922000  0.56465000  1
  H  H76  1  0.38263000  0.87043000  0.91282000  1
  H  H77  1  0.47108000  0.91710000  0.91404000  1
  H  H78  1  0.36835000  0.75109000  0.76098000  1
  H  H79  1  0.40574000  0.84111000  0.67491000  1
  H  H80  1  0.61799000  0.70440000  0.51228000  1
  H  H81  1  0.52962000  0.61498000  0.55374000  1
  H  H82  1  0.51234000  0.12932000  0.23880000  1
  H  H83  1  0.51674000  0.08078000  0.32467000  1
  H  H84  1  0.21647000  0.12951000  0.48795000  1
  H  H85  1  0.16807000  0.08287000  0.44668000  1
  H  H86  1  0.76109000  0.51222000  0.87065000  1
  H  H87  1  0.67477000  0.51614000  0.91922000  1
  H  H88  1  0.51218000  0.21672000  0.87045000  1
  H  H89  1  0.55394000  0.16882000  0.91713000  1
  H  H90  1  0.23845000  0.36845000  0.24870000  1
  H  H91  1  0.32468000  0.40576000  0.15869000  1
  H  H92  1  0.48771000  0.61718000  0.29548000  1
  H  H93  1  0.44638000  0.52904000  0.38492000  1
  H  H94  1  0.38305000  0.63189000  0.12931000  1
  H  H95  1  0.43597000  0.59456000  0.08079000  1
  H  H96  1  0.08694000  0.38252000  0.12951000  1
  H  H97  1  0.08520000  0.47045000  0.08285000  1
  H  H98  1  0.61724000  0.48791000  0.75109000  1
  H  H99  1  0.56462000  0.48396000  0.84110000  1
  H  H100  1  0.91359000  0.78333000  0.70441000  1
  H  H101  1  0.91463000  0.83130000  0.61500000  1
  H  H102  1  0.42437000  0.74252000  0.99998000  1
  H  H103  1  0.51029000  0.74231000  1.00000000  1
  H  H104  1  0.16659000  0.39741000  0.00002000  1
  H  H105  1  0.08461000  0.40735000  0.99999000  1
  H  H106  1  0.25741000  0.25782000  0.31791000  1
  H  H107  1  0.25751000  0.25791000  0.23217000  1
  H  H108  1  0.60267000  0.60224000  0.23102000  1
  H  H109  1  0.59281000  0.59234000  0.32257000  1
  H  H110  1  0.74263000  0.42440000  0.00001000  1
  H  H111  1  0.74216000  0.50998000  0.00000000  1
  H  H112  1  0.39729000  0.16662000  0.99999000  1
  H  H113  1  0.40758000  0.08502000  0.00001000  1
  H  H114  1  0.57530000  0.57574000  0.68209000  1
  H  H115  1  0.48969000  0.49008000  0.76782000  1
  H  H116  1  0.83370000  0.83325000  0.76898000  1
  H  H117  1  0.91538000  0.91492000  0.67743000  1
  H  H118  1  0.25740000  0.68207000  0.74217000  1
  H  H119  1  0.25753000  0.76781000  0.74207000  1
  H  H120  1  0.60267000  0.76899000  0.39777000  1
  H  H121  1  0.59279000  0.67744000  0.40768000  1
  H  H122  1  0.74262000  0.99999000  0.57560000  1
  H  H123  1  0.74214000  0.00000000  0.49005000  1
  H  H124  1  0.39731000  0.00000000  0.83336000  1
  H  H125  1  0.40760000  1.00000000  0.91494000  1
  H  H126  1  0.57533000  0.31793000  0.42424000  1
  H  H127  1  0.48972000  0.23218000  0.50988000  1
  H  H128  1  0.83367000  0.23100000  0.16677000  1
  H  H129  1  0.91534000  0.32255000  0.08513000  1
  H  H130  1  0.42435000  0.00000000  0.25750000  1
  H  H131  1  0.51026000  0.00000000  0.25771000  1
  H  H132  1  0.16662000  1.00000000  0.60256000  1
  H  H133  1  0.08464000  1.00000000  0.59263000  1
  H  H134  1  0.31823000  0.57559000  0.42441000  1
  H  H135  1  0.23218000  0.49001000  0.50998000  1
  H  H136  1  0.23067000  0.83338000  0.16661000  1
  H  H137  1  0.32256000  0.91498000  0.08502000  1
  H  H138  1  0.99959000  0.74218000  0.57573000  1
  H  H139  1  0.99960000  0.74209000  0.49008000  1
  H  H140  1  0.00043000  0.39776000  0.83326000  1
  H  H141  1  0.00047000  0.40766000  0.91491000  1
  H  H142  1  0.68185000  0.25748000  0.74250000  1
  H  H143  1  0.76798000  0.25768000  0.74231000  1
  H  H144  1  0.76917000  0.60258000  0.39744000  1
  H  H145  1  0.67726000  0.59265000  0.40734000  1
  H  H146  1  0.99956000  0.42426000  0.25783000  1
  H  H147  1  0.99961000  0.50992000  0.25790000  1
  H  H148  1  0.00045000  0.16674000  0.60223000  1
  H  H149  1  0.00046000  0.08508000  0.59235000  1
  C  C150  1  0.27134000  0.56398000  0.92559000  1
  C  C151  1  0.40475000  0.65217000  0.92586000  1
  C  C152  1  0.47839000  0.70239000  0.92424000  1
  C  C153  1  0.19802000  0.51788000  0.92382000  1
  C  C154  1  0.51076000  0.43584000  0.29253000  1
  C  C155  1  0.42212000  0.34794000  0.24748000  1
  C  C156  1  0.37350000  0.29784000  0.22413000  1
  C  C157  1  0.55858000  0.48180000  0.31977000  1
  C  C158  1  0.48958000  0.19713000  0.07442000  1
  C  C159  1  0.57792000  0.33050000  0.07412000  1
  C  C160  1  0.62641000  0.40237000  0.07575000  1
  C  C161  1  0.44191000  0.12218000  0.07621000  1
  C  C162  1  0.72844000  0.80278000  0.70753000  1
  C  C163  1  0.59504000  0.66947000  0.75270000  1
  C  C164  1  0.52140000  0.59761000  0.77605000  1
  C  C165  1  0.80168000  0.87771000  0.68028000  1
  C  C166  1  0.43597000  0.70754000  0.48968000  1
  C  C167  1  0.34774000  0.75270000  0.57782000  1
  C  C168  1  0.29746000  0.77605000  0.62632000  1
  C  C169  1  0.48195000  0.68029000  0.44201000  1
  C  C170  1  0.56401000  0.07442000  0.72843000  1
  C  C171  1  0.65205000  0.07414000  0.59537000  1
  C  C172  1  0.70216000  0.07577000  0.52188000  1
  C  C173  1  0.51814000  0.07621000  0.80158000  1
  C  C174  1  0.80328000  0.29252000  0.27164000  1
  C  C175  1  0.66961000  0.24748000  0.40457000  1
  C  C176  1  0.59765000  0.22413000  0.47802000  1
  C  C177  1  0.87834000  0.31977000  0.19844000  1
  C  C178  1  0.19694000  0.92558000  0.51043000  1
  C  C179  1  0.33060000  0.92585000  0.42197000  1
  C  C180  1  0.40262000  0.92423000  0.37338000  1
  C  C181  1  0.12186000  0.92381000  0.55828000  1
  C  C182  1  0.29245000  0.72845000  0.19714000  1
  C  C183  1  0.24742000  0.59536000  0.33050000  1
  C  C184  1  0.22404000  0.52187000  0.40236000  1
  C  C185  1  0.31972000  0.80161000  0.12220000  1
  C  C186  1  0.92565000  0.48968000  0.80278000  1
  C  C187  1  0.92556000  0.57782000  0.66947000  1
  C  C188  1  0.92378000  0.62633000  0.59761000  1
  C  C189  1  0.92397000  0.44200000  0.87771000  1
  C  C190  1  0.70736000  0.51043000  0.56398000  1
  C  C191  1  0.75257000  0.42196000  0.65217000  1
  C  C192  1  0.77599000  0.37335000  0.70240000  1
  C  C193  1  0.68014000  0.55829000  0.51788000  1
  C  C194  1  0.07492000  0.27163000  0.43583000  1
  C  C195  1  0.07418000  0.40457000  0.34794000  1
  C  C196  1  0.07567000  0.47804000  0.29783000  1
  C  C197  1  0.07677000  0.19842000  0.48181000  1
  C  C198  1  0.70736000  0.43602000  0.48957000  1
  C  C199  1  0.75258000  0.34783000  0.57803000  1
  C  C200  1  0.77600000  0.29761000  0.62663000  1
  C  C201  1  0.68014000  0.48212000  0.44170000  1
  C  C202  1  0.07492000  0.56416000  0.72837000  1
  C  C203  1  0.07418000  0.65206000  0.59542000  1
  C  C204  1  0.07566000  0.70216000  0.52197000  1
  C  C205  1  0.07678000  0.51820000  0.80157000  1
  C  C206  1  0.29245000  0.80286000  0.27155000  1
  C  C207  1  0.24742000  0.66950000  0.40462000  1
  C  C208  1  0.22404000  0.59763000  0.47813000  1
  C  C209  1  0.31973000  0.87781000  0.19839000  1
  C  C210  1  0.92565000  0.19721000  0.51032000  1
  C  C211  1  0.92556000  0.33052000  0.42218000  1
  C  C212  1  0.92379000  0.40239000  0.37366000  1
  C  C213  1  0.92396000  0.12228000  0.55800000  1
  C  C214  1  0.72842000  0.29245000  0.19723000  1
  C  C215  1  0.59504000  0.24730000  0.33052000  1
  C  C216  1  0.52140000  0.22394000  0.40238000  1
  C  C217  1  0.80166000  0.31971000  0.12230000  1
  C  C218  1  0.48959000  0.92558000  0.80285000  1
  C  C219  1  0.57791000  0.92586000  0.66951000  1
  C  C220  1  0.62639000  0.92423000  0.59765000  1
  C  C221  1  0.44193000  0.92379000  0.87779000  1
  C  C222  1  0.51075000  0.70747000  0.56417000  1
  C  C223  1  0.42212000  0.75250000  0.65206000  1
  C  C224  1  0.37352000  0.77587000  0.70215000  1
  C  C225  1  0.55857000  0.68023000  0.51821000  1
  C  C226  1  0.27136000  0.07442000  0.43601000  1
  C  C227  1  0.40474000  0.07414000  0.34783000  1
  C  C228  1  0.47838000  0.07576000  0.29762000  1
  C  C229  1  0.19805000  0.07619000  0.48209000  1
  C  C230  1  0.56400000  0.27155000  0.92559000  1
  C  C231  1  0.65205000  0.40463000  0.92587000  1
  C  C232  1  0.70217000  0.47813000  0.92423000  1
  C  C233  1  0.51811000  0.19838000  0.92381000  1
  C  C234  1  0.43597000  0.51031000  0.29246000  1
  C  C235  1  0.34774000  0.42218000  0.24729000  1
  C  C236  1  0.29745000  0.37367000  0.22394000  1
  C  C237  1  0.48197000  0.55800000  0.31971000  1
  C  C238  1  0.19693000  0.48957000  0.07441000  1
  C  C239  1  0.33061000  0.57804000  0.07414000  1
  C  C240  1  0.40263000  0.62663000  0.07576000  1
  C  C241  1  0.12185000  0.44171000  0.07617000  1
  C  C242  1  0.80329000  0.72837000  0.70746000  1
  C  C243  1  0.66960000  0.59542000  0.75252000  1
  C  C244  1  0.59763000  0.52196000  0.77587000  1
  C  C245  1  0.87835000  0.80158000  0.68023000  1
  C  C246  1  0.26619000  0.54787000  0.00000000  1
  C  C247  1  0.33561000  0.59295000  1.00000000  1
  C  C248  1  0.45609000  0.70872000  1.00000000  1
  C  C249  1  0.14035000  0.43606000  0.00000000  1
  C  C250  1  0.45217000  0.45196000  0.28171000  1
  C  C251  1  0.40702000  0.40707000  0.25741000  1
  C  C252  1  0.29120000  0.29157000  0.25259000  1
  C  C253  1  0.56401000  0.56358000  0.29573000  1
  C  C254  1  0.54796000  0.26626000  0.00001000  1
  C  C255  1  0.59301000  0.33551000  0.99999000  1
  C  C256  1  0.70862000  0.45592000  0.99999000  1
  C  C257  1  0.43618000  0.14060000  0.00001000  1
  C  C258  1  0.73388000  0.73367000  0.71829000  1
  C  C259  1  0.66443000  0.66448000  0.74259000  1
  C  C260  1  0.54378000  0.54415000  0.74742000  1
  C  C261  1  0.85974000  0.85931000  0.70427000  1
  C  C262  1  0.45217000  0.71829000  0.54804000  1
  C  C263  1  0.40701000  0.74257000  0.59293000  1
  C  C264  1  0.29122000  0.74741000  0.70841000  1
  C  C265  1  0.56399000  0.70428000  0.43644000  1
  C  C266  1  0.54797000  0.00000000  0.73372000  1
  C  C267  1  0.59301000  0.00000000  0.66449000  1
  C  C268  1  0.70859000  0.00000000  0.54411000  1
  C  C269  1  0.43621000  0.00000000  0.85936000  1
  C  C270  1  0.73387000  0.28170000  0.26634000  1
  C  C271  1  0.66443000  0.25742000  0.33551000  1
  C  C272  1  0.54381000  0.25259000  0.45582000  1
  C  C273  1  0.85971000  0.29571000  0.14072000  1
  C  C274  1  0.26619000  0.99999000  0.45213000  1
  C  C275  1  0.33561000  1.00000000  0.40705000  1
  C  C276  1  0.45606000  0.99999000  0.29131000  1
  C  C277  1  0.14038000  0.00000000  0.56391000  1
  C  C278  1  0.28170000  0.73373000  0.26627000  1
  C  C279  1  0.25750000  0.66449000  0.33550000  1
  C  C280  1  0.25270000  0.54408000  0.45591000  1
  C  C281  1  0.29558000  0.85940000  0.14061000  1
  C  C282  1  0.00021000  0.54804000  0.73367000  1
  C  C283  1  0.99995000  0.59293000  0.66448000  1
  C  C284  1  0.99963000  0.70843000  0.54415000  1
  C  C285  1  0.00043000  0.43641000  0.85931000  1
  C  C286  1  0.71831000  0.45212000  0.54788000  1
  C  C287  1  0.74266000  0.40705000  0.59295000  1
  C  C288  1  0.74737000  0.29128000  0.70872000  1
  C  C289  1  0.70429000  0.56394000  0.43606000  1
  C  C290  1  0.00021000  0.26633000  0.45196000  1
  C  C291  1  0.99995000  0.33552000  0.40707000  1
  C  C292  1  0.99963000  0.45585000  0.29157000  1
  C  C293  1  0.00043000  0.14069000  0.56359000  1
  N  N294  1  0.40507000  0.66453000  0.85770000  1
  N  N295  1  0.33784000  0.61850000  0.85702000  1
  N  N296  1  0.47828000  0.33565000  0.25920000  1
  N  N297  1  0.52513000  0.38153000  0.28033000  1
  N  N298  1  0.52185000  0.26287000  0.14230000  1
  N  N299  1  0.47524000  0.19510000  0.14297000  1
  N  N300  1  0.59445000  0.73712000  0.74107000  1
  N  N301  1  0.66171000  0.80488000  0.71981000  1
  N  N302  1  0.33550000  0.74105000  0.52182000  1
  N  N303  1  0.38150000  0.71980000  0.47532000  1
  N  N304  1  0.66418000  0.14233000  0.59481000  1
  N  N305  1  0.61823000  0.14299000  0.66191000  1
  N  N306  1  0.73749000  0.25923000  0.40514000  1
  N  N307  1  0.80547000  0.28035000  0.33814000  1
  N  N308  1  0.26276000  0.85768000  0.47776000  1
  N  N309  1  0.19485000  0.85700000  0.52448000  1
  N  N310  1  0.25900000  0.59482000  0.26286000  1
  N  N311  1  0.28016000  0.66193000  0.19510000  1
  N  N312  1  0.85732000  0.52181000  0.73713000  1
  N  N313  1  0.85683000  0.47532000  0.80487000  1
  N  N314  1  0.74051000  0.47774000  0.66456000  1
  N  N315  1  0.71932000  0.52447000  0.61851000  1
  N  N316  1  0.14263000  0.40514000  0.33562000  1
  N  N317  1  0.14361000  0.33814000  0.38150000  1
  N  N318  1  0.74054000  0.33546000  0.52223000  1
  N  N319  1  0.71934000  0.38150000  0.47552000  1
  N  N320  1  0.14263000  0.66435000  0.59485000  1
  N  N321  1  0.14360000  0.61847000  0.66186000  1
  N  N322  1  0.25898000  0.73713000  0.40517000  1
  N  N323  1  0.28014000  0.80490000  0.33807000  1
  N  N324  1  0.85733000  0.26288000  0.47819000  1
  N  N325  1  0.85683000  0.19512000  0.52469000  1
  N  N326  1  0.59445000  0.25895000  0.26287000  1
  N  N327  1  0.66170000  0.28019000  0.19512000  1
  N  N328  1  0.52185000  0.85767000  0.73714000  1
  N  N329  1  0.47524000  0.85700000  0.80490000  1
  N  N330  1  0.47826000  0.74077000  0.66437000  1
  N  N331  1  0.52512000  0.71965000  0.61849000  1
  N  N332  1  0.40508000  0.14232000  0.33544000  1
  N  N333  1  0.33785000  0.14300000  0.38148000  1
  N  N334  1  0.66418000  0.40518000  0.85768000  1
  N  N335  1  0.61823000  0.33807000  0.85703000  1
  N  N336  1  0.33551000  0.47819000  0.25894000  1
  N  N337  1  0.38151000  0.52468000  0.28019000  1
  N  N338  1  0.26277000  0.52225000  0.14230000  1
  N  N339  1  0.19485000  0.47553000  0.14298000  1
  N  N340  1  0.73748000  0.59485000  0.74078000  1
  N  N341  1  0.80547000  0.66186000  0.71964000  1
