# generated using pymatgen
data_SiH42(C23N5)2
_symmetry_space_group_name_H-M   'P 1'
_cell_length_a   15.03445000
_cell_length_b   15.03440000
_cell_length_c   60.12490000
_cell_angle_alpha   90.09380000
_cell_angle_beta   89.85930000
_cell_angle_gamma   90.00020000
_symmetry_Int_Tables_number   1
_chemical_formula_structural   SiH42(C23N5)2
_chemical_formula_sum   'Si4 H168 C184 N40'
_cell_volume   13590.20855426
_cell_formula_units_Z   4
loop_
 _symmetry_equiv_pos_site_id
 _symmetry_equiv_pos_as_xyz
  1  'x, y, z'
loop_
 _atom_site_type_symbol
 _atom_site_label
 _atom_site_symmetry_multiplicity
 _atom_site_fract_x
 _atom_site_fract_y
 _atom_site_fract_z
 _atom_site_occupancy
  C  1  1  0.57283100  0.23616400  0.87913600  1
  C  2  1  0.57172100  0.18540000  0.85934400  1
  C  3  1  0.62207400  0.10664000  0.85747200  1
  C  4  1  0.67524550  0.07602900  0.87534100  1
  C  5  1  0.67703850  0.12829700  0.89498200  1
  C  6  1  0.62772150  0.20732300  0.89672800  1
  C  8  1  0.62561700  0.91028600  0.87582300  1
  C  9  1  0.57101300  0.91152900  0.89507700  1
  C  10  1  0.48778200  0.86888200  0.89535900  1
  C  11  1  0.45482900  0.82590800  0.87617600  1
  C  12  1  0.50825700  0.82512300  0.85684100  1
  C  13  1  0.59186950  0.86717800  0.85661700  1
  C  14  1  0.78185600  0.94990600  0.85317200  1
  C  15  1  0.78831600  0.95720900  0.89575000  1
  C  16  1  0.78184900  0.88571900  0.91097800  1
  C  17  1  0.84654100  0.87325000  0.92759200  1
  C  18  1  0.92124450  0.93003000  0.92906950  1
  C  19  1  0.92983300  0.99912200  0.91335900  1
  C  20  1  0.86422900  0.01299700  0.89719300  1
  C  21  1  0.82851750  0.01772700  0.84168900  1
  C  22  1  0.90465000  0.99754400  0.82894200  1
  C  23  1  0.93538100  0.90904800  0.82694900  1
  C  24  1  0.88558850  0.84070400  0.83713100  1
  C  25  1  0.81118150  0.86091800  0.85035500  1
  C  41  1  0.98861200  0.92059500  0.94694200  1
  C  44  1  0.02195000  0.88705400  0.81613900  1
  C  47  1  0.36474900  0.78505700  0.87648600  1
  C  51  1  0.51303750  0.31434100  0.88214100  1
  C  54  1  0.23911600  0.43589300  0.37902500  1
  C  55  1  0.18894250  0.42873300  0.35926200  1
  C  56  1  0.11226700  0.37486500  0.35840400  1
  C  57  1  0.08397950  0.32557200  0.37721300  1
  C  58  1  0.13531100  0.33254900  0.39688300  1
  C  59  1  0.21191800  0.38579100  0.39767900  1
  C  61  1  0.91701300  0.36798600  0.37982800  1
  C  62  1  0.91473100  0.41849500  0.39974800  1
  C  63  1  0.87117500  0.50121900  0.40071800  1
  C  64  1  0.83127000  0.53800100  0.38158800  1
  C  65  1  0.83382300  0.48856600  0.36162100  1
  C  66  1  0.87666000  0.40544200  0.36071300  1
  C  67  1  0.95801900  0.21474400  0.35628700  1
  C  68  1  0.97529800  0.20576000  0.39851600  1
  C  69  1  0.90310700  0.20364500  0.41367300  1
  C  70  1  0.89558100  0.13518900  0.42953600  1
  C  71  1  0.95834750  0.06523900  0.43028700  1
  C  72  1  0.02918700  0.06594400  0.41487400  1
  C  73  1  0.03800550  0.13532300  0.39945900  1
  C  74  1  0.02461300  0.16693600  0.34459900  1
  C  75  1  0.00290950  0.09087400  0.33202600  1
  C  76  1  0.91394200  0.06132100  0.33038100  1
  C  77  1  0.84677650  0.11191200  0.34086100  1
  C  78  1  0.86860300  0.18611300  0.35396700  1
  C  94  1  0.95086450  0.99076400  0.44649000  1
  C  97  1  0.89034100  0.97523300  0.31958800  1
  C  100  1  0.79124900  0.62840000  0.38252400  1
  C  104  1  0.31556050  0.49859300  0.38075400  1
  C  107  1  0.44693500  0.24764800  0.10945900  1
  C  108  1  0.46584650  0.19703200  0.12862100  1
  C  109  1  0.41659800  0.11999300  0.13353400  1
  C  110  1  0.34631650  0.09120100  0.11955200  1
  C  111  1  0.32931900  0.14133200  0.10007900  1
  C  112  1  0.37817300  0.21862800  0.09524100  1
  C  114  1  0.37695100  0.92160700  0.12310900  1
  C  115  1  0.42552350  0.91527500  0.10291000  1
  C  116  1  0.50864000  0.87259400  0.10202200  1
  C  117  1  0.54604300  0.83408200  0.12124200  1
  C  118  1  0.49582050  0.83546900  0.14112200  1
  C  119  1  0.41302450  0.87916200  0.14209800  1
  C  120  1  0.24367750  0.99613800  0.14975900  1
  C  121  1  0.20974900  0.97770400  0.10769100  1
  C  122  1  0.20282150  0.90181300  0.09381500  1
  C  123  1  0.12703700  0.88787100  0.08051000  1
  C  124  1  0.05468000  0.94787100  0.08114000  1
  C  125  1  0.06035350  0.02234500  0.09537900  1
  C  126  1  0.13673900  0.03751000  0.10818500  1
  C  127  1  0.23084300  0.07583300  0.16198400  1
  C  128  1  0.17120950  0.07954400  0.17998800  1
  C  129  1  0.12080500  0.00425100  0.18615200  1
  C  130  1  0.13534500  0.92372000  0.17459850  1
  C  131  1  0.19593850  0.91965900  0.15674600  1
  C  147  1  0.97408050  0.93524200  0.06724000  1
  C  150  1  0.05074900  0.01068400  0.20360100  1
  C  153  1  0.63887700  0.79965000  0.12059500  1
  C  157  1  0.49842300  0.32967700  0.10451500  1
  C  160  1  0.74987100  0.44266600  0.60714300  1
  C  161  1  0.80303700  0.45980500  0.62597700  1
  C  162  1  0.87863050  0.40768000  0.63036600  1
  C  163  1  0.90321700  0.33617200  0.61619200  1
  C  164  1  0.84991650  0.32025000  0.59721300  1
  C  165  1  0.77424300  0.37210300  0.59285700  1
  C  167  1  0.07390800  0.36090900  0.61850900  1
  C  168  1  0.08107300  0.40735400  0.59806600  1
  C  169  1  0.12390000  0.49036500  0.59687200  1
  C  170  1  0.16124550  0.52978600  0.61602700  1
  C  171  1  0.15936900  0.48133000  0.63612600  1
  C  172  1  0.11598500  0.39848100  0.63739600  1
  C  173  1  0.99779000  0.23073900  0.64566800  1
  C  174  1  0.01124350  0.19494600  0.60367100  1
  C  175  1  0.08878700  0.18211800  0.59062500  1
  C  176  1  0.10202900  0.10269800  0.57857000  1
  C  177  1  0.03918300  0.03289800  0.57957300  1
  C  178  1  0.96173850  0.04549600  0.59249600  1
  C  179  1  0.94784000  0.12506200  0.60421000  1
  C  180  1  0.91857250  0.21910100  0.65815500  1
  C  181  1  0.91516900  0.15967600  0.67614400  1
  C  182  1  0.99033200  0.10877800  0.68209200  1
  C  183  1  0.07037250  0.12213100  0.67023500  1
  C  184  1  0.07415000  0.18232000  0.65236000  1
  C  200  1  0.05310450  0.94653200  0.56804000  1
  C  203  1  0.98439450  0.03969300  0.69971200  1
  C  206  1  0.19399300  0.62320500  0.61516600  1
  C  210  1  0.66937450  0.49710100  0.60268700  1
  C  213  1  0.03679900  0.99895600  0.73666700  1
  C  214  1  0.10066300  0.93266500  0.74131600  1
  C  215  1  0.09203500  0.87925400  0.76067700  1
  C  216  1  0.01889400  0.89065000  0.77516000  1
  C  217  1  0.95368000  0.95481600  0.76999800  1
  C  218  1  0.96327300  0.00918000  0.75117000  1
  C  220  1  0.22592850  0.80291300  0.75110700  1
  C  221  1  0.23351700  0.85361500  0.73154800  1
  C  227  1  0.27521900  0.79482100  0.69556700  1
  C  236  1  0.00749300  0.95956400  0.24054200  1
  C  237  1  0.94035350  0.89630500  0.24502800  1
  C  238  1  0.88559350  0.90561600  0.26418600  1
  C  239  1  0.89652450  0.97885000  0.27863800  1
  C  240  1  0.96146500  0.04356200  0.27360200  1
  C  241  1  0.01713150  0.03328200  0.25498100  1
  C  243  1  0.80881600  0.77226400  0.25446000  1
  C  244  1  0.86084700  0.76405600  0.23508200  1
  C  250  1  0.80456150  0.72281300  0.19888900  1
  C  259  1  0.96681400  0.00743800  0.03002800  1
  C  260  1  0.89066600  0.99817200  0.01647600  1
  C  261  1  0.89964350  0.99620400  0.99297100  1
  C  262  1  0.98467850  0.00187700  0.98303200  1
  C  263  1  0.06039500  0.01014200  0.99671900  1
  C  264  1  0.05139650  0.01361000  0.01997500  1
  C  266  1  0.74188500  0.98434100  0.98946100  1
  C  267  1  0.73252100  0.98575600  0.01275500  1
  C  273  1  0.63196500  0.90238900  0.03644100  1
  C  282  1  0.99126250  0.94210300  0.53001400  1
  C  283  1  0.97686250  0.02673400  0.52049900  1
  C  284  1  0.99008600  0.03983700  0.49737400  1
  C  285  1  0.01692500  0.96814600  0.48366100  1
  C  286  1  0.03245350  0.88426800  0.49329700  1
  C  287  1  0.01984300  0.87136200  0.51624000  1
  C  289  1  0.95288950  0.19324100  0.50162300  1
  C  290  1  0.94019900  0.18155200  0.52474200  1
  C  296  1  0.89029300  0.33799800  0.53231000  1
  C  305  1  0.48513500  0.46737500  0.87110700  1
  C  306  1  0.40066500  0.49007000  0.86258100  1
  C  307  1  0.35872100  0.57078600  0.86911100  1
  C  308  1  0.40084450  0.62893900  0.88435200  1
  C  309  1  0.48448450  0.60516500  0.89302800  1
  C  310  1  0.52632550  0.52580200  0.88639900  1
  C  312  1  0.23284950  0.53344500  0.84681300  1
  C  313  1  0.27322750  0.45265100  0.84062400  1
  C  319  1  0.20354050  0.30799300  0.83740400  1
  C  328  1  0.47248900  0.51584300  0.37178300  1
  C  329  1  0.49942100  0.60072500  0.36430700  1
  C  330  1  0.57958600  0.63941500  0.37225900  1
  C  331  1  0.63300600  0.59349500  0.38785000  1
  C  332  1  0.60504850  0.50939300  0.39544200  1
  C  333  1  0.52607850  0.47094800  0.38747400  1
  C  335  1  0.55051850  0.76951600  0.35071300  1
  C  336  1  0.47036050  0.73221100  0.34307100  1
  C  342  1  0.32808350  0.80532600  0.33836400  1
  C  351  1  0.53058900  0.47908200  0.11803300  1
  C  352  1  0.61127000  0.50192500  0.12856000  1
  C  353  1  0.65272500  0.58487800  0.12400900  1
  C  354  1  0.61318700  0.64537500  0.10895400  1
  C  355  1  0.53331550  0.62147200  0.09829600  1
  C  356  1  0.49212700  0.53966500  0.10289300  1
  C  358  1  0.77206800  0.54580600  0.14824900  1
  C  359  1  0.73144000  0.46349100  0.15279900  1
  C  365  1  0.80091400  0.31892900  0.15675000  1
  C  374  1  0.51841950  0.52589800  0.61559000  1
  C  375  1  0.49164400  0.60708800  0.62534800  1
  C  376  1  0.40777100  0.64482800  0.61996600  1
  C  377  1  0.35030500  0.60104200  0.60486600  1
  C  378  1  0.37794500  0.52047700  0.59506100  1
  C  379  1  0.46060550  0.48295800  0.60048600  1
  C  381  1  0.43995050  0.76879200  0.64349500  1
  C  382  1  0.52302950  0.73172600  0.64892600  1
  C  388  1  0.66454500  0.80672400  0.65355400  1
  H  26  1  0.83892300  0.82182400  0.93855300  1
  H  27  1  0.73076100  0.84104300  0.91015800  1
  H  28  1  0.98324000  0.04127900  0.91385800  1
  H  29  1  0.87324750  0.06515200  0.88648700  1
  H  30  1  0.81348100  0.08338000  0.84415600  1
  H  31  1  0.94037700  0.04862200  0.82211600  1
  H  32  1  0.90762300  0.77631500  0.83655400  1
  H  33  1  0.78282700  0.80985300  0.85914000  1
  H  34  1  0.62558900  0.86860500  0.84183500  1
  H  35  1  0.48562350  0.79588900  0.84255600  1
  H  36  1  0.44992500  0.87186800  0.90951200  1
  H  37  1  0.59018550  0.94501100  0.90912300  1
  H  38  1  0.70984250  0.10769000  0.90892200  1
  H  39  1  0.61587750  0.06984500  0.84320500  1
  H  40  1  0.53117800  0.20354100  0.84648100  1
  H  42  1  0.05354400  0.90657200  0.93946950  1
  H  43  1  0.97236850  0.86441500  0.95778200  1
  H  45  1  0.06255800  0.94696300  0.81404800  1
  H  46  1  0.05954450  0.84432600  0.82740300  1
  H  48  1  0.34369800  0.76449500  0.85984100  1
  H  49  1  0.31752000  0.83591000  0.88200600  1
  H  50  1  0.62851300  0.24104600  0.91152600  1
  H  52  1  0.52137450  0.34196600  0.89887900  1
  H  53  1  0.44439400  0.29079200  0.88100900  1
  H  79  1  0.84237900  0.13554300  0.44017600  1
  H  80  1  0.85361700  0.25017400  0.41306200  1
  H  81  1  0.07522500  0.01577700  0.41479200  1
  H  82  1  0.09083000  0.13242500  0.38869800  1
  H  83  1  0.09055100  0.18141100  0.34673200  1
  H  84  1  0.05320300  0.05454400  0.32499000  1
  H  85  1  0.78205600  0.09081100  0.34053000  1
  H  86  1  0.81829350  0.21508800  0.36294000  1
  H  87  1  0.88085300  0.37484100  0.34553800  1
  H  88  1  0.80699850  0.51407900  0.34736700  1
  H  89  1  0.87214000  0.53638600  0.41530600  1
  H  90  1  0.94688750  0.39708300  0.41374900  1
  H  91  1  0.11573700  0.30299800  0.41140200  1
  H  92  1  0.07546500  0.37521000  0.34409400  1
  H  93  1  0.20594100  0.46569200  0.34562400  1
  H  95  1  0.94163500  0.92931600  0.43705600  1
  H  96  1  0.89089100  0.99893800  0.45666500  1
  H  98  1  0.94934850  0.93317000  0.31766400  1
  H  99  1  0.84611300  0.93871700  0.33076700  1
  H  101  1  0.77477950  0.65307500  0.36592200  1
  H  102  1  0.84125350  0.67382800  0.38927300  1
  H  103  1  0.24542600  0.39075400  0.41242500  1
  H  105  1  0.34016500  0.49945600  0.39789500  1
  H  106  1  0.29112750  0.56561000  0.37728250  1
  H  132  1  0.12449300  0.83261300  0.07058200  1
  H  133  1  0.25199700  0.85494400  0.09331100  1
  H  134  1  0.00900900  0.06689800  0.09636200  1
  H  135  1  0.13733700  0.09294800  0.11812000  1
  H  136  1  0.25965100  0.13430800  0.15721400  1
  H  137  1  0.16104700  0.13940200  0.18771200  1
  H  138  1  0.09886350  0.86837900  0.17847800  1
  H  139  1  0.20036700  0.86110300  0.14806800  1
  H  140  1  0.38333500  0.88472900  0.15734800  1
  H  141  1  0.52190550  0.80994800  0.15545900  1
  H  142  1  0.54396850  0.87394900  0.08746000  1
  H  143  1  0.40428500  0.94721700  0.08884600  1
  H  144  1  0.28245900  0.12202800  0.08878600  1
  H  145  1  0.43324100  0.08513000  0.14754700  1
  H  146  1  0.51585500  0.21597500  0.13913500  1
  H  148  1  0.91658500  0.92604800  0.07818350  1
  H  149  1  0.97951850  0.87525200  0.05697700  1
  H  151  1  0.04668400  0.07885400  0.20995200  1
  H  152  1  0.98669100  0.99548200  0.19590000  1
  H  154  1  0.66043950  0.77605800  0.13692600  1
  H  155  1  0.68216800  0.85551300  0.11626700  1
  H  156  1  0.36364200  0.25309000  0.08104500  1
  H  158  1  0.47695100  0.35848500  0.08870100  1
  H  159  1  0.56849050  0.31145800  0.10268000  1
  H  185  1  0.15947150  0.09503100  0.56961700  1
  H  186  1  0.13827450  0.22870100  0.59026600  1
  H  187  1  0.91528200  0.99597800  0.59377500  1
  H  188  1  0.89136750  0.12972000  0.61371900  1
  H  189  1  0.86014750  0.24836400  0.65354800  1
  H  190  1  0.85570300  0.15044900  0.68412900  1
  H  191  1  0.12557900  0.08529100  0.67397000  1
  H  192  1  0.13222500  0.18581500  0.64344700  1
  H  193  1  0.10949500  0.37042700  0.65279100  1
  H  194  1  0.18418950  0.50881900  0.65039800  1
  H  195  1  0.12273250  0.52451100  0.58216300  1
  H  196  1  0.04909300  0.38501400  0.58409900  1
  H  197  1  0.86548800  0.27171400  0.58599000  1
  H  198  1  0.91559100  0.42318800  0.64412900  1
  H  199  1  0.78716700  0.51071900  0.63658600  1
  H  201  1  0.05686350  0.89468500  0.58076100  1
  H  202  1  0.11647750  0.94513300  0.55902700  1
  H  204  1  0.91641900  0.03601000  0.70621300  1
  H  205  1  0.99937800  0.97518500  0.69215600  1
  H  207  1  0.21534250  0.64671400  0.63154200  1
  H  208  1  0.13779650  0.66501200  0.61029100  1
  H  209  1  0.73735800  0.35818500  0.57900100  1
  H  211  1  0.64023150  0.47806600  0.58670200  1
  H  212  1  0.68944100  0.56679200  0.60131300  1
  H  223  1  0.27116100  0.75450900  0.75484100  1
  H  224  1  0.91657300  0.05710400  0.74815000  1
  H  225  1  0.89991000  0.96360900  0.78019000  1
  H  228  1  0.33632700  0.89531400  0.71333000  1
  H  229  1  0.24015700  0.73259800  0.69883000  1
  H  230  1  0.33380900  0.77946700  0.68556600  1
  H  231  1  0.23193700  0.83901000  0.68601900  1
  H  233  1  0.95941900  0.79738800  0.79409900  1
  H  235  1  0.04474300  0.12059000  0.72351400  1
  H  246  1  0.75974750  0.72749700  0.25805400  1
  H  247  1  0.06553300  0.07964900  0.25205700  1
  H  248  1  0.96985600  0.09748200  0.28374400  1
  H  251  1  0.90295000  0.66076200  0.21708500  1
  H  252  1  0.74221300  0.75809900  0.20188400  1
  H  253  1  0.78988600  0.66441400  0.18877800  1
  H  254  1  0.84977700  0.76602000  0.18956600  1
  H  256  1  0.80296450  0.03948700  0.29737900  1
  H  258  1  0.13002350  0.95100000  0.22777400  1
  H  269  1  0.68772700  0.97959900  0.97930100  1
  H  270  1  0.10694450  0.02150400  0.02957700  1
  H  271  1  0.12228100  0.01581600  0.98976200  1
  H  274  1  0.63822800  0.03803300  0.03200500  1
  H  275  1  0.64140900  0.84177700  0.02666000  1
  H  276  1  0.56352600  0.90313400  0.04253000  1
  H  277  1  0.67668100  0.90105900  0.05074000  1
  H  279  1  0.04226700  0.04650800  0.95431800  1
  H  281  1  0.90976700  0.05538800  0.05856300  1
  H  292  1  0.94529850  0.25366000  0.49417700  1
  H  293  1  0.03106900  0.80980000  0.52288100  1
  H  294  1  0.05278900  0.83203100  0.48361600  1
  H  297  1  0.97021300  0.25679800  0.55083900  1
  H  298  1  0.83299550  0.33252200  0.52126800  1
  H  299  1  0.94480100  0.37094900  0.52353800  1
  H  300  1  0.87120700  0.37924100  0.54647700  1
  H  302  1  0.07945750  0.02583500  0.45828000  1
  H  304  1  0.94851100  0.86752500  0.55600900  1
  H  315  1  0.17087300  0.55002500  0.84126000  1
  H  316  1  0.58689600  0.50999500  0.89302000  1
  H  317  1  0.51554300  0.64582500  0.90424800  1
  H  320  1  0.26736700  0.38001400  0.81296000  1
  H  321  1  0.16100400  0.32035900  0.85187200  1
  H  322  1  0.26232200  0.27105800  0.84266800  1
  H  323  1  0.16627650  0.26702500  0.82566900  1
  H  325  1  0.29715750  0.69657500  0.89710300  1
  H  327  1  0.59207250  0.39589300  0.86196800  1
  H  338  1  0.56991450  0.83178200  0.34596300  1
  H  339  1  0.50672550  0.41034500  0.39349300  1
  H  340  1  0.64201800  0.47579200  0.40696300  1
  H  343  1  0.40519500  0.74393600  0.31445700  1
  H  344  1  0.33735100  0.84518000  0.35341300  1
  H  345  1  0.28873350  0.74648800  0.34243700  1
  H  346  1  0.29100300  0.84530900  0.32641600  1
  H  348  1  0.69915100  0.69307300  0.40277500  1
  H  350  1  0.39700600  0.41230900  0.36222800  1
  H  361  1  0.83164900  0.56252800  0.15522800  1
  H  362  1  0.43364100  0.52428100  0.09513100  1
  H  363  1  0.50407150  0.66416800  0.08727900  1
  H  366  1  0.72865700  0.38892900  0.18010100  1
  H  367  1  0.84792500  0.33243600  0.14327300  1
  H  368  1  0.74430650  0.28194400  0.15012300  1
  H  369  1  0.83445400  0.27746500  0.16903200  1
  H  371  1  0.71681450  0.72115200  0.09965600  1
  H  373  1  0.42401900  0.40721500  0.12664400  1
  H  384  1  0.42029250  0.82859000  0.64992200  1
  H  385  1  0.47883950  0.42402000  0.59327800  1
  H  386  1  0.33746900  0.48815300  0.58403400  1
  H  389  1  0.59390200  0.73495500  0.67681800  1
  H  390  1  0.65129300  0.85157700  0.63966000  1
  H  391  1  0.70431650  0.75066100  0.64762200  1
  H  392  1  0.70313300  0.84317500  0.66593400  1
  H  394  1  0.27246600  0.70066400  0.59418300  1
  H  396  1  0.59332600  0.42354500  0.62533500  1
  N  219  1  0.15553550  0.81703100  0.76478500  1
  N  222  1  0.17087400  0.91699000  0.72752100  1
  N  226  1  0.30391900  0.83671600  0.71663700  1
  N  232  1  0.01388700  0.83851100  0.79464600  1
  N  234  1  0.04822500  0.05576200  0.71811000  1
  N  242  1  0.82254950  0.84267300  0.26813000  1
  N  245  1  0.92506500  0.82609500  0.23123700  1
  N  249  1  0.84441450  0.69374200  0.22014100  1
  N  255  1  0.84321900  0.98438400  0.29797600  1
  N  257  1  0.06553700  0.94745100  0.22219000  1
  N  265  1  0.82455400  0.98962400  0.98048900  1
  N  268  1  0.80741600  0.99317400  0.02529300  1
  N  272  1  0.64727700  0.98196200  0.02250300  1
  N  278  1  0.99191600  0.00539500  0.95963800  1
  N  280  1  0.96153500  0.01584500  0.05335600  1
  N  288  1  0.97733500  0.12267200  0.48896100  1
  N  291  1  0.95260150  0.09827200  0.53298800  1
  N  295  1  0.91729250  0.24886500  0.54026000  1
  N  301  1  0.03158650  0.97795900  0.46060400  1
  N  303  1  0.97668600  0.92864500  0.55301000  1
  N  311  1  0.27651500  0.58880400  0.86086900  1
  N  314  1  0.35576150  0.43449000  0.84870100  1
  N  318  1  0.22800950  0.39286700  0.82656000  1
  N  324  1  0.36140250  0.70879400  0.89213400  1
  N  326  1  0.52575350  0.38534500  0.86520900  1
  N  334  1  0.60145400  0.72231800  0.36505500  1
  N  337  1  0.44829500  0.64909500  0.35013600  1
  N  341  1  0.41518700  0.78086500  0.32860100  1
  N  347  1  0.71158950  0.62971300  0.39716900  1
  N  349  1  0.38971950  0.47942100  0.36497200  1
  N  357  1  0.73157700  0.60299600  0.13409300  1
  N  360  1  0.65246650  0.44504600  0.14278000  1
  N  364  1  0.77232200  0.40295200  0.16743600  1
  N  370  1  0.65073700  0.72891400  0.10357300  1
  N  372  1  0.48969700  0.39637400  0.12267400  1
  N  380  1  0.38581050  0.72434100  0.62930000  1
  N  383  1  0.54540550  0.65218100  0.63962500  1
  N  387  1  0.58014250  0.77650700  0.66374300  1
  N  393  1  0.26631000  0.63495100  0.59857000  1
  N  395  1  0.60234650  0.48887300  0.62082100  1
  Si  7  1  0.71693400  0.97319500  0.87490900  1
  Si  60  1  0.98326350  0.27939300  0.37788000  1
  Si  113  1  0.29445100  0.99546300  0.12502950  1
  Si  166  1  0.99759400  0.28094000  0.62093100  1
