# generated using pymatgen
data_H15C22N4O
_symmetry_space_group_name_H-M   'P 1'
_cell_length_a   16.84455000
_cell_length_b   16.84455000
_cell_length_c   43.76340000
_cell_angle_alpha   90.00000000
_cell_angle_beta   90.00000000
_cell_angle_gamma   120.00000000
_symmetry_Int_Tables_number   1
_chemical_formula_structural   H15C22N4O
_chemical_formula_sum   'H90 C132 N24 O6'
_cell_volume   10753.76430408
_cell_formula_units_Z   6
loop_
 _symmetry_equiv_pos_site_id
 _symmetry_equiv_pos_as_xyz
  1  'x, y, z'
loop_
 _atom_site_type_symbol
 _atom_site_label
 _atom_site_symmetry_multiplicity
 _atom_site_fract_x
 _atom_site_fract_y
 _atom_site_fract_z
 _atom_site_occupancy
  C  1  1  0.06627800  0.54894800  0.83969600  1
  C  2  1  0.11148500  0.52668000  0.81722100  1
  C  3  1  0.20568250  0.55495550  0.81926200  1
  C  4  1  0.25623850  0.61315150  0.84367700  1
  C  5  1  0.21152650  0.63145150  0.86768500  1
  C  6  1  0.11530750  0.59648350  0.86598900  1
  C  9  1  0.97021700  0.50812400  0.83760600  1
  C  10  1  0.92758650  0.52017750  0.81164300  1
  C  11  1  0.83110050  0.46636350  0.80789500  1
  C  12  1  0.77855550  0.39979350  0.83014700  1
  C  13  1  0.82110250  0.38130250  0.85471200  1
  C  14  1  0.91678850  0.43765450  0.85837300  1
  C  25  1  0.49878450  0.95563350  0.17365700  1
  C  26  1  0.43193150  0.90644950  0.15140700  1
  C  27  1  0.37215950  0.81074550  0.15340200  1
  C  28  1  0.38406450  0.76385350  0.17813300  1
  C  29  1  0.44648550  0.81230550  0.20194700  1
  C  30  1  0.50256800  0.90925800  0.19991400  1
  C  33  1  0.55084500  0.05171400  0.17075200  1
  C  34  1  0.60428850  0.09371950  0.14451800  1
  C  35  1  0.64670050  0.19011950  0.14055800  1
  C  36  1  0.63345800  0.24306200  0.16287400  1
  C  37  1  0.57341100  0.20092900  0.18772500  1
  C  38  1  0.53440650  0.10533650  0.19157300  1
  C  49  1  0.46603700  0.51694100  0.50818500  1
  C  50  1  0.48383450  0.58385650  0.48594900  1
  C  51  1  0.44863500  0.64426400  0.48801300  1
  C  52  1  0.39058100  0.63300800  0.51292600  1
  C  53  1  0.37630850  0.57035950  0.53671300  1
  C  54  1  0.41649600  0.51366700  0.53454500  1
  C  57  1  0.50871000  0.46365200  0.50505000  1
  C  58  1  0.49586500  0.40994300  0.47876100  1
  C  59  1  0.54854200  0.36623500  0.47457900  1
  C  60  1  0.61474750  0.37827550  0.49670500  1
  C  61  1  0.63398500  0.43834900  0.52162100  1
  C  62  1  0.57872600  0.47875800  0.52572000  1
  C  73  1  0.71613000  0.21603300  0.97652200  1
  C  74  1  0.62166200  0.15259600  0.97184800  1
  C  75  1  0.58276750  0.11604250  0.94282800  1
  C  76  1  0.63831550  0.15585550  0.91621700  1
  C  77  1  0.73328250  0.22072250  0.92006200  1
  C  78  1  0.77049250  0.24175550  0.94987800  1
  C  81  1  0.75649700  0.25200600  0.00583400  1
  C  82  1  0.71225250  0.20959650  0.03339600  1
  C  83  1  0.74892600  0.24439500  0.06263700  1
  C  84  1  0.83978650  0.32048350  0.06499000  1
  C  85  1  0.88380650  0.37136450  0.03799500  1
  C  86  1  0.84129150  0.33474250  0.00938900  1
  C  95  1  0.96753350  0.45655650  0.03696200  1
  C  96  1  0.79467050  0.27491950  0.89684100  1
  C  97  1  0.49561150  0.03478150  0.94079900  1
  C  98  1  0.69189800  0.19717500  0.08762800  1
  C  103  1  0.51807150  0.30444750  0.31060900  1
  C  104  1  0.54998450  0.39922050  0.30633800  1
  C  105  1  0.55292700  0.43920100  0.27748000  1
  C  106  1  0.53575100  0.38410300  0.25064800  1
  C  107  1  0.50499900  0.28887300  0.25414200  1
  C  108  1  0.48968600  0.25082800  0.28382600  1
  C  111  1  0.51216450  0.26293650  0.33977600  1
  C  112  1  0.50923800  0.30492400  0.36727500  1
  C  113  1  0.50468900  0.26676000  0.39643600  1
  C  114  1  0.49280900  0.17697600  0.39861900  1
  C  115  1  0.50475300  0.13566300  0.37177900  1
  C  116  1  0.51223700  0.17915800  0.34323400  1
  C  125  1  0.50960300  0.05369500  0.37091000  1
  C  126  1  0.49602400  0.22777200  0.23058100  1
  C  127  1  0.56117000  0.52742200  0.27581000  1
  C  128  1  0.50989550  0.32149450  0.42154900  1
  C  133  1  0.79297650  0.48820050  0.64400200  1
  C  134  1  0.85607500  0.45671900  0.63963700  1
  C  135  1  0.89269250  0.45399750  0.61067000  1
  C  136  1  0.85486550  0.47192150  0.58395400  1
  C  137  1  0.79085150  0.50318550  0.58764200  1
  C  138  1  0.76769000  0.51724400  0.61740200  1
  C  141  1  0.75715900  0.49340500  0.67315400  1
  C  142  1  0.80336300  0.49897900  0.70058800  1
  C  143  1  0.76967100  0.50369800  0.72973100  1
  C  144  1  0.68918700  0.51134700  0.73185600  1
  C  145  1  0.63513900  0.49677300  0.70500500  1
  C  146  1  0.67187850  0.49022950  0.67652000  1
  C  155  1  0.54702450  0.48892050  0.70393100  1
  C  156  1  0.73974800  0.51424400  0.56419800  1
  C  157  1  0.97265250  0.44582250  0.60885400  1
  C  158  1  0.82183250  0.50301050  0.75481800  1
  C  163  1  0.24689350  0.77306650  0.99794900  1
  C  164  1  0.31035650  0.86703150  0.99249800  1
  C  165  1  0.35150050  0.90251950  0.96364400  1
  C  166  1  0.31771900  0.84259400  0.93781800  1
  C  167  1  0.26298100  0.74620500  0.94290500  1
  C  168  1  0.22922800  0.71467300  0.97265800  1
  C  171  1  0.20832650  0.73549150  0.02726000  1
  C  172  1  0.24968850  0.78180350  0.05453400  1
  C  173  1  0.22190000  0.74181800  0.08390100  1
  C  174  1  0.14279050  0.65277050  0.08678300  1
  C  175  1  0.09358800  0.60601000  0.05966600  1
  C  176  1  0.12876550  0.64860250  0.03096900  1
  C  185  1  0.00928450  0.52123250  0.06074500  1
  C  186  1  0.23071050  0.67753550  0.92019600  1
  C  187  1  0.42652600  0.99421900  0.96334400  1
  C  188  1  0.28243950  0.79488050  0.10752800  1
  C  193  1  0.55362900  0.77888500  0.33261800  1
  C  194  1  0.58244750  0.71394850  0.32749100  1
  C  195  1  0.57774650  0.67325650  0.29862050  1
  C  196  1  0.55457450  0.70881150  0.27256100  1
  C  197  1  0.51451800  0.76508100  0.27727500  1
  C  198  1  0.51614600  0.79896200  0.30695100  1
  C  201  1  0.55135350  0.81551050  0.36197100  1
  C  202  1  0.55001900  0.77066700  0.38919100  1
  C  203  1  0.53361800  0.79605400  0.41840400  1
  C  204  1  0.52524150  0.87617750  0.42120800  1
  C  205  1  0.53249800  0.92800700  0.39421300  1
  C  206  1  0.54499850  0.89556250  0.36569100  1
  C  215  1  0.53084800  0.01175100  0.39511600  1
  C  216  1  0.47895150  0.79740050  0.25432000  1
  C  217  1  0.59145350  0.59635550  0.29847300  1
  C  218  1  0.52095550  0.73246750  0.44169300  1
  C  223  1  0.22894400  0.44810600  0.66589200  1
  C  224  1  0.13537400  0.41935900  0.66038300  1
  C  225  1  0.10113950  0.42787950  0.63163500  1
  C  226  1  0.16169850  0.45507950  0.60596800  1
  C  227  1  0.25783900  0.49619400  0.61128700  1
  C  228  1  0.28821300  0.49060800  0.64090100  1
  C  231  1  0.26601850  0.44558750  0.69514500  1
  C  232  1  0.22042350  0.44157350  0.72251000  1
  C  233  1  0.26213600  0.45618700  0.75165600  1
  C  234  1  0.35100800  0.46556100  0.75437000  1
  C  235  1  0.39687050  0.46188950  0.72719700  1
  C  236  1  0.35281200  0.45253000  0.69867100  1
  C  245  1  0.48310150  0.46527150  0.72800100  1
  C  246  1  0.32729000  0.53591000  0.58890500  1
  C  247  1  0.01039400  0.41378000  0.63125400  1
  C  248  1  0.21213150  0.46874950  0.77521500  1
  H  7  1  0.07262400  0.48562600  0.79979300  1
  H  8  1  0.32489000  0.63558700  0.84542700  1
  H  15  1  0.70936200  0.35869000  0.82696600  1
  H  16  1  0.94998350  0.42533350  0.87556300  1
  H  19  1  0.03759600  0.57753900  0.90013800  1
  H  20  1  0.01592500  0.58610600  0.78045200  1
  H  31  1  0.42565850  0.94348250  0.13416200  1
  H  32  1  0.34231600  0.69431500  0.17991650  1
  H  39  1  0.66186750  0.31226550  0.15966100  1
  H  40  1  0.49027950  0.07236050  0.20911300  1
  H  43  1  0.56053800  0.99014200  0.23345100  1
  H  44  1  0.58223300  0.00553700  0.11333000  1
  H  55  1  0.52711750  0.58990850  0.46870200  1
  H  56  1  0.36305900  0.67497500  0.51475700  1
  H  63  1  0.65473300  0.34904500  0.49328900  1
  H  64  1  0.59091850  0.52298450  0.54332400  1
  H  67  1  0.43910700  0.45546100  0.56805900  1
  H  68  1  0.43034100  0.43363000  0.44779000  1
  H  79  1  0.58014950  0.12982550  0.99035400  1
  H  88  1  0.87089450  0.37397150  0.99044100  1
  H  89  1  0.86312300  0.28959500  0.10801700  1
  H  90  1  0.95484500  0.36670900  0.09072000  1
  H  91  1  0.64049700  0.14857700  0.86934400  1
  H  92  1  0.53698900  0.09404900  0.88382500  1
  H  93  1  0.83992350  0.28209950  0.95209900  1
  H  94  1  0.65150600  0.14939500  0.03241300  1
  H  99  1  0.00008100  0.47371400  0.01632900  1
  H  100  1  0.86279800  0.30677900  0.90192800  1
  H  101  1  0.48728750  0.99527950  0.92218000  1
  H  102  1  0.63288800  0.13690500  0.08321300  1
  H  109  1  0.56927500  0.44009100  0.32504800  1
  H  118  1  0.52455450  0.15135850  0.32431700  1
  H  119  1  0.43336500  0.14974500  0.44090300  1
  H  120  1  0.42372650  0.05997050  0.42365800  1
  H  121  1  0.52439200  0.38285600  0.20383500  1
  H  122  1  0.57539450  0.48612050  0.21848200  1
  H  123  1  0.46100350  0.18135150  0.28588300  1
  H  124  1  0.50773000  0.36468200  0.36622600  1
  H  129  1  0.49771000  0.02240000  0.35010800  1
  H  130  1  0.45918900  0.15953500  0.23543900  1
  H  131  1  0.53086350  0.53742250  0.25728400  1
  H  132  1  0.50714900  0.37974700  0.41723200  1
  H  139  1  0.87811750  0.43778250  0.65834900  1
  H  148  1  0.63142950  0.47608350  0.65757200  1
  H  149  1  0.71879800  0.57117400  0.77421000  1
  H  150  1  0.63628800  0.57603200  0.75682000  1
  H  151  1  0.86440250  0.48347250  0.53713600  1
  H  152  1  0.91694750  0.43251450  0.55161900  1
  H  153  1  0.72698050  0.54600350  0.61969100  1
  H  154  1  0.86576550  0.50285050  0.69940200  1
  H  159  1  0.52724400  0.50011500  0.68309800  1
  H  160  1  0.70940300  0.55196300  0.56925400  1
  H  161  1  0.01330600  0.47736600  0.59050700  1
  H  162  1  0.88399300  0.50864600  0.75030500  1
  H  169  1  0.32741750  0.91231650  0.01013900  1
  H  178  1  0.08995300  0.62013500  0.01197600  1
  H  179  1  0.14032200  0.64927900  0.13372400  1
  H  180  1  0.06739350  0.55159150  0.11822700  1
  H  181  1  0.28877000  0.84048400  0.89230400  1
  H  182  1  0.34074500  0.94244600  0.90717700  1
  H  183  1  0.19262950  0.64537150  0.97620200  1
  H  184  1  0.31032600  0.84209100  0.05282700  1
  H  189  1  0.97273900  0.50652100  0.08046200  1
  H  190  1  0.17742850  0.61401050  0.92596200  1
  H  191  1  0.43650950  0.03174450  0.98272100  1
  H  192  1  0.32339200  0.86264300  0.10268600  1
  H  199  1  0.60809250  0.69503550  0.34542600  1
  H  208  1  0.55939200  0.93646900  0.34699500  1
  H  209  1  0.51718800  0.87501200  0.46804400  1
  H  210  1  0.49713250  0.95079050  0.45229100  1
  H  211  1  0.58423650  0.73883950  0.22734800  1
  H  212  1  0.63075700  0.68338200  0.24234000  1
  H  213  1  0.48447250  0.83667150  0.31018200  1
  H  214  1  0.54897350  0.70971050  0.38726800  1
  H  219  1  0.54908500  0.04701400  0.41512800  1
  H  220  1  0.46758500  0.84997900  0.26001300  1
  H  221  1  0.61724250  0.58472850  0.31797600  1
  H  222  1  0.54506300  0.68929400  0.43669100  1
  H  229  1  0.08965000  0.39082600  0.67789800  1
  H  238  1  0.38058200  0.44150200  0.67962000  1
  H  239  1  0.35466750  0.46692650  0.80128400  1
  H  240  1  0.45210350  0.49075250  0.78584000  1
  H  241  1  0.16521250  0.43114750  0.56028100  1
  H  242  1  0.06261350  0.38105150  0.57476100  1
  H  243  1  0.35738800  0.52268300  0.64465100  1
  H  244  1  0.16006250  0.44183050  0.72090400  1
  H  249  1  0.50070900  0.44689700  0.74786900  1
  H  250  1  0.39124400  0.54771600  0.59481700  1
  H  251  1  0.97185500  0.38592500  0.65043200  1
  H  252  1  0.14394650  0.44228450  0.77117200  1
  N  21  1  0.76857800  0.30981800  0.87354100  1
  N  22  1  0.78601550  0.46975750  0.78268900  1
  N  23  1  0.26250550  0.68419950  0.89141500  1
  N  24  1  0.24873650  0.52781250  0.79900600  1
  N  45  1  0.55582900  0.25369900  0.20691500  1
  N  46  1  0.69629000  0.23437000  0.11540900  1
  N  47  1  0.45272050  0.76402750  0.22575000  1
  N  48  1  0.30471600  0.76276200  0.13259900  1
  N  69  1  0.70443350  0.45456750  0.54056100  1
  N  70  1  0.54310700  0.31732300  0.44926100  1
  N  71  1  0.32109450  0.56331550  0.56041100  1
  N  72  1  0.46840100  0.71185500  0.46719200  1
  N  80  1  0.60241750  0.13050250  0.88748600  1
  N  87  1  0.88841700  0.33303400  0.09133000  1
  N  110  1  0.54569600  0.42061200  0.22203000  1
  N  117  1  0.45432550  0.12628350  0.42441400  1
  N  140  1  0.88122250  0.46226150  0.55527200  1
  N  147  1  0.67487050  0.54849050  0.75759200  1
  N  170  1  0.32366100  0.87841700  0.90933300  1
  N  177  1  0.11471000  0.61473600  0.11514700  1
  N  200  1  0.58519900  0.70234400  0.24425400  1
  N  207  1  0.51141000  0.90231700  0.44938500  1
  N  230  1  0.12676350  0.42735050  0.57726600  1
  N  237  1  0.38940800  0.47624900  0.78271000  1
  O  17  1  0.07322250  0.62719350  0.88554800  1
  O  18  1  0.97707200  0.59741700  0.79445000  1
  O  41  1  0.57615400  0.95558800  0.21891800  1
  O  42  1  0.63219300  0.04414600  0.12742800  1
  O  65  1  0.38902250  0.43993550  0.55349900  1
  O  66  1  0.41840950  0.38328350  0.46179000  1
