# generated using pymatgen
data_Zn7H10C32(N4O5)4
_symmetry_space_group_name_H-M   'P 1'
_cell_length_a   11.74700000
_cell_length_b   13.50129000
_cell_length_c   18.43770000
_cell_angle_alpha   83.56116000
_cell_angle_beta   83.56115000
_cell_angle_gamma   78.07914000
_symmetry_Int_Tables_number   1
_chemical_formula_structural   Zn7H10C32(N4O5)4
_chemical_formula_sum   'Zn14 H20 C64 N32 O40'
_cell_volume   2831.17000931
_cell_formula_units_Z   2
loop_
 _symmetry_equiv_pos_site_id
 _symmetry_equiv_pos_as_xyz
  1  'x, y, z'
loop_
 _atom_site_type_symbol
 _atom_site_label
 _atom_site_symmetry_multiplicity
 _atom_site_fract_x
 _atom_site_fract_y
 _atom_site_fract_z
 _atom_site_occupancy
  Zn  Zn1  1  0.02465000  0.26011000  0.96800000  1.0
  Zn  Zn2  1  0.74180000  0.26056000  0.98519000  1.0
  Zn  Zn3  1  0.88738000  0.85570000  0.11823000  1.0
  Zn  Zn4  1  0.03066000  0.85720000  0.96697000  1.0
  Zn  Zn5  1  0.90025000  0.05793000  0.98937000  1.0
  Zn  Zn6  1  0.16161000  0.98868000  0.03197000  1.0
  Zn  Zn7  1  0.64247000  0.06009000  0.96816000  1.0
  Zn  Zn8  1  0.35178000  0.59569000  0.58845000  1.0
  Zn  Zn9  1  0.39113000  0.65483000  0.41935000  1.0
  Zn  Zn10  1  0.83345000  0.33717000  0.39384000  1.0
  Zn  Zn11  1  0.71147000  0.29227000  0.54116000  1.0
  Zn  Zn12  1  0.55054000  0.47038000  0.47243000  1.0
  Zn  Zn13  1  0.53283000  0.23715000  0.49411000  1.0
  Zn  Zn14  1  0.64090000  0.67476000  0.41676000  1.0
  H  H1  1  0.08521000  0.01919000  0.91068000  1.0
  H  H2  1  0.72386000  0.10418000  0.07069000  1.0
  H  H3  1  0.50548000  0.36168000  0.58959000  1.0
  H  H4  1  0.56670000  0.56227000  0.34930000  1.0
  H  H5  1  0.23756000  0.22482000  0.43519000  1.0
  H  H6  1  0.11793000  0.33597000  0.06708000  1.0
  H  H7  1  0.35555000  0.74493000  0.81233000  1.0
  H  H8  1  0.59486000  0.18625000  0.77103000  1.0
  H  H9  1  0.99663000  0.87596000  0.55093000  1.0
  H  H10  1  0.23925000  0.97750000  0.20062000  1.0
  H  H11  1  0.71165000  0.05498000  0.28532000  1.0
  H  H12  1  0.76252000  0.54227000  0.12344000  1.0
  H  H13  1  0.65655000  0.54487000  0.70693000  1.0
  H  H14  1  0.87443000  0.98917000  0.72785000  1.0
  H  H15  1  0.16676000  0.13225000  0.53630000  1.0
  H  H16  1  0.01804000  0.36733000  0.86174000  1.0
  H  H17  1  0.25334000  0.64342000  0.08883000  1.0
  H  H18  1  0.19813000  0.48721000  0.75158000  1.0
  H  H19  1  0.46523000  0.29633000  0.14833000  1.0
  H  H20  1  0.47239000  0.77127000  0.17711000  1.0
  C  C1  1  0.23848000  0.26041000  0.87828000  1.0
  C  C2  1  0.82644000  0.41874000  0.01135000  1.0
  C  C3  1  0.03007000  0.67419000  0.04553000  1.0
  C  C4  1  0.03067000  0.92007000  0.19458000  1.0
  C  C5  1  0.28648000  0.83503000  0.93971000  1.0
  C  C6  1  0.06505000  0.14978000  0.11032000  1.0
  C  C7  1  0.50137000  0.23780000  0.00790000  1.0
  C  C8  1  0.78677000  0.94253000  0.86856000  1.0
  C  C9  1  0.41374000  0.52795000  0.73567000  1.0
  C  C10  1  0.21937000  0.77856000  0.50587000  1.0
  C  C11  1  0.96359000  0.26459000  0.51660000  1.0
  C  C12  1  0.76965000  0.16958000  0.38192000  1.0
  C  C13  1  0.60046000  0.13446000  0.63288000  1.0
  C  C14  1  0.41251000  0.31716000  0.37444000  1.0
  C  C15  1  0.48626000  0.80926000  0.31640000  1.0
  C  C16  1  0.69301000  0.61872000  0.56230000  1.0
  C  C17  1  0.13647000  0.25351000  0.27083000  1.0
  C  C18  1  0.20219000  0.32354000  0.23504000  1.0
  C  C19  1  0.30163000  0.31560000  0.34180000  1.0
  C  C20  1  0.22627000  0.25420000  0.37911000  1.0
  C  C21  1  0.07030000  0.23162000  0.15739000  1.0
  C  C22  1  0.12138000  0.31363000  0.12477000  1.0
  C  C23  1  0.49446000  0.93659000  0.76002000  1.0
  C  C24  1  0.48229000  0.98040000  0.82663000  1.0
  C  C25  1  0.37663000  0.85716000  0.88243000  1.0
  C  C26  1  0.39368000  0.81021000  0.81665000  1.0
  C  C27  1  0.57605000  0.07345000  0.70093000  1.0
  C  C28  1  0.56828000  0.11471000  0.76820000  1.0
  C  C29  1  0.04400000  0.98131000  0.38118000  1.0
  C  C30  1  0.16448000  0.98076000  0.38003000  1.0
  C  C31  1  0.16527000  0.88563000  0.49427000  1.0
  C  C32  1  0.04318000  0.90969000  0.50374000  1.0
  C  C33  1  0.06912000  0.96588000  0.25379000  1.0
  C  C34  1  0.18430000  0.97930000  0.25149000  1.0
  C  C35  1  0.73027000  0.26625000  0.17642000  1.0
  C  C36  1  0.69962000  0.33782000  0.22805000  1.0
  C  C37  1  0.69724000  0.20360000  0.32176000  1.0
  C  C38  1  0.70426000  0.13547000  0.26892000  1.0
  C  C39  1  0.78990000  0.39080000  0.08836000  1.0
  C  C40  1  0.75517000  0.46393000  0.13897000  1.0
  C  C41  1  0.75129000  0.74450000  0.75279000  1.0
  C  C42  1  0.78638000  0.78575000  0.68273000  1.0
  C  C43  1  0.71990000  0.65835000  0.62938000  1.0
  C  C44  1  0.68997000  0.61441000  0.69995000  1.0
  C  C45  1  0.80179000  0.88058000  0.80531000  1.0
  C  C46  1  0.84176000  0.91903000  0.73514000  1.0
  C  C47  1  0.16107000  0.22963000  0.69508000  1.0
  C  C48  1  0.05830000  0.30377000  0.69070000  1.0
  C  C49  1  0.04318000  0.26445000  0.57140000  1.0
  C  C50  1  0.14211000  0.18604000  0.57735000  1.0
  C  C51  1  0.16734000  0.26139000  0.81764000  1.0
  C  C52  1  0.05804000  0.32756000  0.81502000  1.0
  C  C53  1  0.30286000  0.53388000  0.93176000  1.0
  C  C54  1  0.19288000  0.50874000  0.93028000  1.0
  C  C55  1  0.12516000  0.58633000  0.03837000  1.0
  C  C56  1  0.23876000  0.59948000  0.04631000  1.0
  C  C57  1  0.34049000  0.51773000  0.80442000  1.0
  C  C58  1  0.22854000  0.49847000  0.80281000  1.0
  C  C59  1  0.46244000  0.05165000  0.19889000  1.0
  C  C60  1  0.44812000  0.02018000  0.13107000  1.0
  C  C61  1  0.45307000  0.18515000  0.07480000  1.0
  C  C62  1  0.45739000  0.21880000  0.14381000  1.0
  C  C63  1  0.48411000  0.88170000  0.25111000  1.0
  C  C64  1  0.47092000  0.85047000  0.18293000  1.0
  N  N1  1  0.28594000  0.35152000  0.27043000  1.0
  N  N2  1  0.14725000  0.22293000  0.34272000  1.0
  N  N3  1  0.07225000  0.20861000  0.23140000  1.0
  N  N4  1  0.18948000  0.35531000  0.16337000  1.0
  N  N5  1  0.42610000  0.93859000  0.88663000  1.0
  N  N6  1  0.45218000  0.85108000  0.75665000  1.0
  N  N7  1  0.54036000  0.98423000  0.69841000  1.0
  N  N8  1  0.51972000  0.06822000  0.82942000  1.0
  N  N9  1  0.21918000  0.94236000  0.44100000  1.0
  N  N10  1  0.98401000  0.95647000  0.44594000  1.0
  N  N11  1  0.99857000  0.97753000  0.31732000  1.0
  N  N12  1  0.22883000  0.98921000  0.31456000  1.0
  N  N13  1  0.67708000  0.30522000  0.29959000  1.0
  N  N14  1  0.72559000  0.16733000  0.19714000  1.0
  N  N15  1  0.77672000  0.29366000  0.10865000  1.0
  N  N16  1  0.71156000  0.43575000  0.20828000  1.0
  N  N17  1  0.76957000  0.74242000  0.62253000  1.0
  N  N18  1  0.70501000  0.65903000  0.76016000  1.0
  N  N19  1  0.75871000  0.79295000  0.81261000  1.0
  N  N20  1  0.83223000  0.87138000  0.67529000  1.0
  N  N21  1  0.00466000  0.32239000  0.62808000  1.0
  N  N22  1  0.20146000  0.17244000  0.63813000  1.0
  N  N23  1  0.21539000  0.21174000  0.75781000  1.0
  N  N24  1  0.00766000  0.34969000  0.75105000  1.0
  N  N25  1  0.11412000  0.52207000  0.98944000  1.0
  N  N26  1  0.32587000  0.57344000  0.99213000  1.0
  N  N27  1  0.37591000  0.53574000  0.86890000  1.0
  N  N28  1  0.15732000  0.49414000  0.86566000  1.0
  N  N29  1  0.43773000  0.08862000  0.07155000  1.0
  N  N30  1  0.46138000  0.15126000  0.20463000  1.0
  N  N31  1  0.48124000  0.98179000  0.25756000  1.0
  N  N32  1  0.45345000  0.92031000  0.12425000  1.0
  O  O1  1  0.52855000  0.18526000  0.95079000  1.0
  O  O2  1  0.56645000  0.30348000  0.01545000  1.0
  O  O3  1  0.69294000  0.94494000  0.91431000  1.0
  O  O4  1  0.74109000  0.11699000  0.01718000  1.0
  O  O5  1  0.18808000  0.27378000  0.94466000  1.0
  O  O6  1  0.34987000  0.26239000  0.86405000  1.0
  O  O7  1  0.90875000  0.19434000  0.94952000  1.0
  O  O8  1  0.85817000  0.00530000  0.87385000  1.0
  O  O9  1  0.76025000  0.40005000  0.96394000  1.0
  O  O10  1  0.93965000  0.40344000  0.99268000  1.0
  O  O11  1  0.96376000  0.12295000  0.10075000  1.0
  O  O12  1  0.99611000  0.72480000  0.98469000  1.0
  O  O13  1  0.00487000  0.71809000  0.10755000  1.0
  O  O14  1  0.93384000  0.88541000  0.20670000  1.0
  O  O15  1  0.10336000  0.89142000  0.13703000  1.0
  O  O16  1  0.88617000  0.92066000  0.02642000  1.0
  O  O17  1  0.19460000  0.80523000  0.92112000  1.0
  O  O18  1  0.28262000  0.87106000  0.00361000  1.0
  O  O19  1  0.16428000  0.09888000  0.08231000  1.0
  O  O20  1  0.05626000  0.99472000  0.96063000  1.0
  O  O21  1  0.56617000  0.80328000  0.36248000  1.0
  O  O22  1  0.40601000  0.75270000  0.32905000  1.0
  O  O23  1  0.72958000  0.65950000  0.49813000  1.0
  O  O24  1  0.55091000  0.58330000  0.39980000  1.0
  O  O25  1  0.38409000  0.60831000  0.68954000  1.0
  O  O26  1  0.48216000  0.44641000  0.71153000  1.0
  O  O27  1  0.39403000  0.53914000  0.49858000  1.0
  O  O28  1  0.62486000  0.54999000  0.56697000  1.0
  O  O29  1  0.23457000  0.72427000  0.44959000  1.0
  O  O30  1  0.27860000  0.74551000  0.56331000  1.0
  O  O31  1  0.44736000  0.40403000  0.37946000  1.0
  O  O32  1  0.87573000  0.21831000  0.53468000  1.0
  O  O33  1  0.96287000  0.32867000  0.45774000  1.0
  O  O34  1  0.86975000  0.19883000  0.37366000  1.0
  O  O35  1  0.71923000  0.15818000  0.44923000  1.0
  O  O36  1  0.71309000  0.40292000  0.45171000  1.0
  O  O37  1  0.67531000  0.19576000  0.62994000  1.0
  O  O38  1  0.53833000  0.13505000  0.57780000  1.0
  O  O39  1  0.46523000  0.23278000  0.40812000  1.0
  O  O40  1  0.54931000  0.35342000  0.54092000  1.0
