# generated using pymatgen
data_H7C13(NO)2
_symmetry_space_group_name_H-M   'P 1'
_cell_length_a   9.98886667
_cell_length_b   76.41470000
_cell_length_c   76.41470000
_cell_angle_alpha   120.00000000
_cell_angle_beta   90.00000000
_cell_angle_gamma   90.00000000
_symmetry_Int_Tables_number   1
_chemical_formula_structural   H7C13(NO)2
_chemical_formula_sum   'H126 C234 N36 O36'
_cell_volume   50512.71043121
_cell_formula_units_Z   18
loop_
 _symmetry_equiv_pos_site_id
 _symmetry_equiv_pos_as_xyz
  1  'x, y, z'
loop_
 _atom_site_type_symbol
 _atom_site_label
 _atom_site_symmetry_multiplicity
 _atom_site_fract_x
 _atom_site_fract_y
 _atom_site_fract_z
 _atom_site_occupancy
  C  1  1  0.00735200  0.98840100  0.49414400  1
  C  16  1  0.11906300  0.97734000  0.49499800  1
  C  17  1  0.89400100  0.97768400  0.48271500  1
  C  22  1  0.01539200  0.82750400  0.43002100  1
  C  24  1  0.99991833  0.85867100  0.43000600  1
  C  26  1  0.00408900  0.82746500  0.39871100  1
  C  28  1  0.99703600  0.88023700  0.44079200  1
  C  29  1  0.03148400  0.89143500  0.46154600  1
  C  30  1  0.03326600  0.91270000  0.47203900  1
  C  31  1  0.99863500  0.92363900  0.46227100  1
  C  32  1  0.96227200  0.91255300  0.44163600  1
  C  33  1  0.96252700  0.89128100  0.43107800  1
  C  34  1  0.02291600  0.81588000  0.43987700  1
  C  35  1  0.98469700  0.82380500  0.46031700  1
  C  36  1  0.98361500  0.81152100  0.46927400  1
  C  37  1  0.02424700  0.79105600  0.45825200  1
  C  38  1  0.06488600  0.78327200  0.43797200  1
  C  39  1  0.06405000  0.79540300  0.42898900  1
  C  40  1  0.00057100  0.81580300  0.37718900  1
  C  41  1  0.03474300  0.79500600  0.36715700  1
  C  42  1  0.02363000  0.78286300  0.34612000  1
  C  43  1  0.97722800  0.79105900  0.33428900  1
  C  44  1  0.94749500  0.81190100  0.34393100  1
  C  45  1  0.95918800  0.82409600  0.36510800  1
  C  58  1  0.01538600  0.60112500  0.17137500  1
  C  60  1  0.99991033  0.56994400  0.14021100  1
  C  62  1  0.00406000  0.56985500  0.17141700  1
  C  64  1  0.99701700  0.55916100  0.11864300  1
  C  65  1  0.03142900  0.56872000  0.10744600  1
  C  66  1  0.03325600  0.55794500  0.08618100  1
  C  67  1  0.99859300  0.53723900  0.07524400  1
  C  68  1  0.96219200  0.52769300  0.08632900  1
  C  69  1  0.96248100  0.53840600  0.10760200  1
  C  70  1  0.02291500  0.62260500  0.18299800  1
  C  71  1  0.98459700  0.63512000  0.17507700  1
  C  72  1  0.98365000  0.65636200  0.18735600  1
  C  73  1  0.02434600  0.66580600  0.20781800  1
  C  74  1  0.06489300  0.65330800  0.21560500  1
  C  75  1  0.06407600  0.63219500  0.20347400  1
  C  76  1  0.00054500  0.55999600  0.18308000  1
  C  77  1  0.03459400  0.57076800  0.20388300  1
  C  78  1  0.02340600  0.56187600  0.21602700  1
  C  79  1  0.97713800  0.54184400  0.20782500  1
  C  80  1  0.94764500  0.53063200  0.18697700  1
  C  81  1  0.95925800  0.53961800  0.17478500  1
  C  94  1  0.01542700  0.56885900  0.39776400  1
  C  96  1  0.99996900  0.56887500  0.42894500  1
  C  98  1  0.00411000  0.60017000  0.42903400  1
  C  100  1  0.99705600  0.55809000  0.43972600  1
  C  101  1  0.03150000  0.53733500  0.43017000  1
  C  102  1  0.03328200  0.52684300  0.44094200  1
  C  103  1  0.99864800  0.53661200  0.46165000  1
  C  104  1  0.96228700  0.55724500  0.47119700  1
  C  105  1  0.96254300  0.56780400  0.46048300  1
  C  106  1  0.02295500  0.55900200  0.37628300  1
  C  107  1  0.98473100  0.53856200  0.36376900  1
  C  108  1  0.98365000  0.52960400  0.34252700  1
  C  109  1  0.02428200  0.54062500  0.33308400  1
  C  110  1  0.06493100  0.56090600  0.34558100  1
  C  111  1  0.06409600  0.56988800  0.36669300  1
  C  112  1  0.00059000  0.62169200  0.43889300  1
  C  113  1  0.03475800  0.63172400  0.42812700  1
  C  114  1  0.02364000  0.65276100  0.43702200  1
  C  115  1  0.97723400  0.66459000  0.45704700  1
  C  116  1  0.94750600  0.65495000  0.46824800  1
  C  117  1  0.95920300  0.63377300  0.45926700  1
  C  130  1  0.01083700  0.17089700  0.56947000  1
  C  132  1  0.99890800  0.13959900  0.56931700  1
  C  134  1  0.00586700  0.17072700  0.60070100  1
  C  136  1  0.99653400  0.11800800  0.55839600  1
  C  137  1  0.98601900  0.10701400  0.53703100  1
  C  138  1  0.98769500  0.08574900  0.52621700  1
  C  139  1  0.00059600  0.07463600  0.53635800  1
  C  140  1  0.00921500  0.08545300  0.55767100  1
  C  141  1  0.00739200  0.10672000  0.56846100  1
  C  142  1  0.01657900  0.18260500  0.55968400  1
  C  143  1  0.97914500  0.17465000  0.53920700  1
  C  144  1  0.97837400  0.18691800  0.53022900  1
  C  145  1  0.01841100  0.20740700  0.54128400  1
  C  146  1  0.05749800  0.21526000  0.56163700  1
  C  147  1  0.05646800  0.20313900  0.57062600  1
  C  148  1  0.00417600  0.18230500  0.62222800  1
  C  149  1  0.03921400  0.20306800  0.63227100  1
  C  150  1  0.02812000  0.21520700  0.65331000  1
  C  151  1  0.98109800  0.20702500  0.66512200  1
  C  152  1  0.95098800  0.18619400  0.65547300  1
  C  153  1  0.96245700  0.17401100  0.63429100  1
  C  166  1  0.01083700  0.39718200  0.82798200  1
  C  168  1  0.99891800  0.42832500  0.85928200  1
  C  170  1  0.00590600  0.42858400  0.82815600  1
  C  172  1  0.99652400  0.43899500  0.88087300  1
  C  173  1  0.98601800  0.42862500  0.89186700  1
  C  174  1  0.98768500  0.43907300  0.91313100  1
  C  175  1  0.00059500  0.46032800  0.92424500  1
  C  176  1  0.00924500  0.47082500  0.91343000  1
  C  177  1  0.00738800  0.46034800  0.89216100  1
  C  178  1  0.01657300  0.37568900  0.81627500  1
  C  179  1  0.97922600  0.36316500  0.82423300  1
  C  180  1  0.97833400  0.34192000  0.81195900  1
  C  181  1  0.01830900  0.33248800  0.79146900  1
  C  182  1  0.05747300  0.34498500  0.78361700  1
  C  183  1  0.05643800  0.36609500  0.79573800  1
  C  184  1  0.00419900  0.43853500  0.81658000  1
  C  185  1  0.03932900  0.42781800  0.79581900  1
  C  186  1  0.02835200  0.43672500  0.78368400  1
  C  187  1  0.98118800  0.45671000  0.79186100  1
  C  188  1  0.95081900  0.46787900  0.81268300  1
  C  189  1  0.96239200  0.45888700  0.82487000  1
  C  202  1  0.01079600  0.42941100  0.60170800  1
  C  204  1  0.99888100  0.42956600  0.57056400  1
  C  206  1  0.00582200  0.39818200  0.57030700  1
  C  208  1  0.99651900  0.44048600  0.55989300  1
  C  209  1  0.98601200  0.46185100  0.57026400  1
  C  210  1  0.98769000  0.47266600  0.55981400  1
  C  211  1  0.00059600  0.46252400  0.53855900  1
  C  212  1  0.00920900  0.44121100  0.52806300  1
  C  213  1  0.00737800  0.43042000  0.53853900  1
  C  214  1  0.01653300  0.43919600  0.62320100  1
  C  215  1  0.97910600  0.45967400  0.63572600  1
  C  216  1  0.97833900  0.46865100  0.65697000  1
  C  217  1  0.01837500  0.45759500  0.66640300  1
  C  218  1  0.05745300  0.43724200  0.65390300  1
  C  219  1  0.05642200  0.42825400  0.63279300  1
  C  220  1  0.00412000  0.37665500  0.56035900  1
  C  221  1  0.03912400  0.36661100  0.57108100  1
  C  222  1  0.02806500  0.34557100  0.56217600  1
  C  223  1  0.98105400  0.33376100  0.54218400  1
  C  224  1  0.95094800  0.34340900  0.53100100  1
  C  225  1  0.96241700  0.36459000  0.54000000  1
  C  238  1  0.00453000  0.05309300  0.52543000  1
  C  239  1  0.10283100  0.04218900  0.51039000  1
  C  240  1  0.10222900  0.02077600  0.50013100  1
  C  241  1  0.00612200  0.00992900  0.50449100  1
  C  242  1  0.90865200  0.02094000  0.51937700  1
  C  243  1  0.90846200  0.04218100  0.52976700  1
  C  246  1  0.11425100  0.95593400  0.48445200  1
  C  247  1  0.00143600  0.94519400  0.47286900  1
  C  248  1  0.89153400  0.95644500  0.47212200  1
  C  255  1  0.00452600  0.47094200  0.94578800  1
  C  256  1  0.10282500  0.46680500  0.95669200  1
  C  257  1  0.10222400  0.47796000  0.97810400  1
  C  258  1  0.00612200  0.49316700  0.98895200  1
  C  259  1  0.90865700  0.49704200  0.97794000  1
  C  260  1  0.90846700  0.48619300  0.95670200  1
  C  263  1  0.00734800  0.50434800  0.01048100  1
  C  264  1  0.11906400  0.51626000  0.02154200  1
  C  265  1  0.11424100  0.52712200  0.04294900  1
  C  266  1  0.00141300  0.52628000  0.05368800  1
  C  267  1  0.89151200  0.51428300  0.04243400  1
  C  268  1  0.89398600  0.50363900  0.02119600  1
  C  279  1  0.00453500  0.47345200  0.52794400  1
  C  280  1  0.10283500  0.48849300  0.53208100  1
  C  281  1  0.10223400  0.49875100  0.52092700  1
  C  282  1  0.00612800  0.49439200  0.50572000  1
  C  283  1  0.90865700  0.47950700  0.50184600  1
  C  284  1  0.90846600  0.46911600  0.51269500  1
  C  287  1  0.00736200  0.50473900  0.49453900  1
  C  288  1  0.11907700  0.50388600  0.48262400  1
  C  289  1  0.11426100  0.51443000  0.47176300  1
  C  290  1  0.00144700  0.52601400  0.47260800  1
  C  291  1  0.89154300  0.52676100  0.48460500  1
  C  292  1  0.89401100  0.51616600  0.49525000  1
  C  303  1  0.95843300  0.77790000  0.31324700  1
  C  304  1  0.86174500  0.76220300  0.30617400  1
  C  305  1  0.86589500  0.74649600  0.28577500  1
  C  306  1  0.96452400  0.74594100  0.27223200  1
  C  307  1  0.05671200  0.76212300  0.27937300  1
  C  308  1  0.05342000  0.77795600  0.29957800  1
  C  311  1  0.98405100  0.72774400  0.25341700  1
  C  312  1  0.87840800  0.71788300  0.23939100  1
  C  313  1  0.89654300  0.69779100  0.22331300  1
  C  314  1  0.01689400  0.68712500  0.22106500  1
  C  315  1  0.12355700  0.69756500  0.23439700  1
  C  316  1  0.10734500  0.71747500  0.25030100  1
  C  327  1  0.95835800  0.53395800  0.22098100  1
  C  328  1  0.86169600  0.54257400  0.23668600  1
  C  329  1  0.86584400  0.53788200  0.25239200  1
  C  330  1  0.96447300  0.52489500  0.25294600  1
  C  331  1  0.05664800  0.51585700  0.23676400  1
  C  332  1  0.05332500  0.52023200  0.22093200  1
  C  335  1  0.98402000  0.52427600  0.27114200  1
  C  336  1  0.87838500  0.52011300  0.28100500  1
  C  337  1  0.89653500  0.52412700  0.30109700  1
  C  338  1  0.01689900  0.53254300  0.31176300  1
  C  339  1  0.12352800  0.53543800  0.30132100  1
  C  340  1  0.10731000  0.53143000  0.28140900  1
  C  351  1  0.95843300  0.68563400  0.46493100  1
  C  352  1  0.86173500  0.69270600  0.45630700  1
  C  353  1  0.86587500  0.71310500  0.46099800  1
  C  354  1  0.96450300  0.72664800  0.47398500  1
  C  355  1  0.05670200  0.71950900  0.48302600  1
  C  356  1  0.05341900  0.69930300  0.47865400  1
  C  359  1  0.98402700  0.74546300  0.47460200  1
  C  360  1  0.87838400  0.75948700  0.47876500  1
  C  361  1  0.89651900  0.77556500  0.47475000  1
  C  362  1  0.01687400  0.77781700  0.46633500  1
  C  363  1  0.12351300  0.76448100  0.46343900  1
  C  364  1  0.10731000  0.74857700  0.46744700  1
  C  375  1  0.96122000  0.22020600  0.68613000  1
  C  376  1  0.86365200  0.23577700  0.69306500  1
  C  377  1  0.86635500  0.25150800  0.71345900  1
  C  378  1  0.96444800  0.25221900  0.72714200  1
  C  379  1  0.05762900  0.23617400  0.72013900  1
  C  380  1  0.05573200  0.22031800  0.69993900  1
  C  383  1  0.98253900  0.27046100  0.74596300  1
  C  384  1  0.87604600  0.28018200  0.75986300  1
  C  385  1  0.89270900  0.30031500  0.77593600  1
  C  386  1  0.01239300  0.31115200  0.77828400  1
  C  387  1  0.11988900  0.30086400  0.76507500  1
  C  388  1  0.10516100  0.28091300  0.74918700  1
  C  399  1  0.96130000  0.46453600  0.77867600  1
  C  400  1  0.86370300  0.45589300  0.76311300  1
  C  401  1  0.86641000  0.46055500  0.74737900  1
  C  402  1  0.96449900  0.47352700  0.74666700  1
  C  403  1  0.05769400  0.48257200  0.76271100  1
  C  404  1  0.05582700  0.47823300  0.77857100  1
  C  407  1  0.98257000  0.47410500  0.72842600  1
  C  408  1  0.87607100  0.47828600  0.71870600  1
  C  409  1  0.89271900  0.47422700  0.69857400  1
  C  410  1  0.01239300  0.46573500  0.68773600  1
  C  411  1  0.11992300  0.46281800  0.69802300  1
  C  412  1  0.10519600  0.46688000  0.71797300  1
  C  423  1  0.96119600  0.31275000  0.53435400  1
  C  424  1  0.86363700  0.30581400  0.54298800  1
  C  425  1  0.86635500  0.28541900  0.53832500  1
  C  426  1  0.96445400  0.27173900  0.52535400  1
  C  427  1  0.05762800  0.27874400  0.51631300  1
  C  428  1  0.05571600  0.29894400  0.52065700  1
  C  431  1  0.98255500  0.25291700  0.52477200  1
  C  432  1  0.87607100  0.23901600  0.52059200  1
  C  433  1  0.89273900  0.22294100  0.52465000  1
  C  434  1  0.01241800  0.22059900  0.53314400  1
  C  435  1  0.11993300  0.23380400  0.53606000  1
  C  436  1  0.10518700  0.24969300  0.53199900  1
  H  2  1  0.81233500  0.98528800  0.48179400  1
  H  46  1  0.95262100  0.81764400  0.48394900  1
  H  47  1  0.95234600  0.83842500  0.46869000  1
  H  48  1  0.09128700  0.76839600  0.42921500  1
  H  49  1  0.09288300  0.78886900  0.41418400  1
  H  50  1  0.06691400  0.78823400  0.37505200  1
  H  51  1  0.04723200  0.76783400  0.33954900  1
  H  52  1  0.93242900  0.83898700  0.37168100  1
  H  53  1  0.91294200  0.81817400  0.33568900  1
  H  54  1  0.93657300  0.88395700  0.41612200  1
  H  55  1  0.93821900  0.91989700  0.43394400  1
  H  56  1  0.05880600  0.92015300  0.48702100  1
  H  57  1  0.05821400  0.88423700  0.46927200  1
  H  82  1  0.95269100  0.66491400  0.18123200  1
  H  83  1  0.95241000  0.62887400  0.16044900  1
  H  84  1  0.09127800  0.65942900  0.23048300  1
  H  85  1  0.09286300  0.62392300  0.21001100  1
  H  86  1  0.06668300  0.58543800  0.21065800  1
  H  87  1  0.04694600  0.57033700  0.23105800  1
  H  88  1  0.93261300  0.53129400  0.15988900  1
  H  89  1  0.91308200  0.51611600  0.18070100  1
  H  90  1  0.93653800  0.53077300  0.11492500  1
  H  91  1  0.93816900  0.51265500  0.07898600  1
  H  92  1  0.05883100  0.56547200  0.07872700  1
  H  93  1  0.05825400  0.58364000  0.11464300  1
  H  118  1  0.95265000  0.51493100  0.33397700  1
  H  119  1  0.95237500  0.53018900  0.37001600  1
  H  120  1  0.09133200  0.56966100  0.33945900  1
  H  121  1  0.09292900  0.58469400  0.37496500  1
  H  122  1  0.06692900  0.62382900  0.41346000  1
  H  123  1  0.04723300  0.65933200  0.42856400  1
  H  124  1  0.93244800  0.62720100  0.46758600  1
  H  125  1  0.91295200  0.66319300  0.48276400  1
  H  126  1  0.93659300  0.58276100  0.46811600  1
  H  127  1  0.93822900  0.56494000  0.48623500  1
  H  128  1  0.05882500  0.51186100  0.43341400  1
  H  129  1  0.05823500  0.52960900  0.41524600  1
  H  154  1  0.94854700  0.18074900  0.51549800  1
  H  155  1  0.94809600  0.15997000  0.53076800  1
  H  156  1  0.08345300  0.23015500  0.57040400  1
  H  157  1  0.08471300  0.20971000  0.58545800  1
  H  158  1  0.07144500  0.20983300  0.62437200  1
  H  159  1  0.05185700  0.23023200  0.65989000  1
  H  160  1  0.93496100  0.15914900  0.62769900  1
  H  161  1  0.91565100  0.17994500  0.66369600  1
  H  162  1  0.01616300  0.11384900  0.58385200  1
  H  163  1  0.01959200  0.07791000  0.56552100  1
  H  164  1  0.97889100  0.07842100  0.51081100  1
  H  165  1  0.97706900  0.11435800  0.52898000  1
  H  190  1  0.94849100  0.33333333  0.81810233  1
  H  191  1  0.94804500  0.36940500  0.83890600  1
  H  192  1  0.08344200  0.33885700  0.76872200  1
  H  193  1  0.08471200  0.37435800  0.78916900  1
  H  194  1  0.07169500  0.41316200  0.78906000  1
  H  195  1  0.05215300  0.42828300  0.76866200  1
  H  196  1  0.93477000  0.46715300  0.83972800  1
  H  197  1  0.91550100  0.48235200  0.81892900  1
  H  198  1  0.01617700  0.46861100  0.88503500  1
  H  199  1  0.01959700  0.48621700  0.92097200  1
  H  200  1  0.97888000  0.43099500  0.92045900  1
  H  201  1  0.97706400  0.41322800  0.88452100  1
  H  226  1  0.94851700  0.48338100  0.66553300  1
  H  227  1  0.94806100  0.46811400  0.62948600  1
  H  228  1  0.08340900  0.42847400  0.66003000  1
  H  229  1  0.08466300  0.41342000  0.62453100  1
  H  230  1  0.07139900  0.37450900  0.58574100  1
  H  231  1  0.05181200  0.33899100  0.57062100  1
  H  232  1  0.93493600  0.37118200  0.53172900  1
  H  233  1  0.91562500  0.33518500  0.51652700  1
  H  234  1  0.01614800  0.41503200  0.53027900  1
  H  235  1  0.01958700  0.43336200  0.51267100  1
  H  236  1  0.97889600  0.48807200  0.56789100  1
  H  237  1  0.97705900  0.46990100  0.58565900  1
  H  244  1  0.83791800  0.01356100  0.52298400  1
  H  245  1  0.83606600  0.04964100  0.54044800  1
  H  249  1  0.19564800  0.94813500  0.48510500  1
  H  250  1  0.80728400  0.94925100  0.46412300  1
  H  251  1  0.17317300  0.01305000  0.48928100  1
  H  261  1  0.83792900  0.50802900  0.98532000  1
  H  262  1  0.83607500  0.48941500  0.94924000  1
  H  269  1  0.19564200  0.53557400  0.05074900  1
  H  270  1  0.80725300  0.51347900  0.04962800  1
  H  271  1  0.81231900  0.49511300  0.01359200  1
  H  272  1  0.17316300  0.47483500  0.98583100  1
  H  285  1  0.83792400  0.47589900  0.49085900  1
  H  286  1  0.83607000  0.45843400  0.50947300  1
  H  293  1  0.19566200  0.51377800  0.46331200  1
  H  294  1  0.80729400  0.53476100  0.48541000  1
  H  295  1  0.81234500  0.51708900  0.50377700  1
  H  296  1  0.17317800  0.50960100  0.52405000  1
  H  309  1  0.13215200  0.76188800  0.27018900  1
  H  310  1  0.12769100  0.78861900  0.30458900  1
  H  317  1  0.81699500  0.69046600  0.21406700  1
  H  318  1  0.21179000  0.69031000  0.23343300  1
  H  319  1  0.18393600  0.72382000  0.26049400  1
  H  320  1  0.80168300  0.73456000  0.28129500  1
  H  333  1  0.13209600  0.50690800  0.23699500  1
  H  334  1  0.12759700  0.51458100  0.21026900  1
  H  341  1  0.81698500  0.52220800  0.30842300  1
  H  342  1  0.21176000  0.54173000  0.30857400  1
  H  343  1  0.18389500  0.53527900  0.27506400  1
  H  344  1  0.80163200  0.54533600  0.26432800  1
  H  357  1  0.13214100  0.72869200  0.49197400  1
  H  358  1  0.12769700  0.69429200  0.48430600  1
  H  365  1  0.81695900  0.78480900  0.47666900  1
  H  366  1  0.21174100  0.76544300  0.45714600  1
  H  367  1  0.18390400  0.73838500  0.46359800  1
  H  368  1  0.80165800  0.71758400  0.45354300  1
  H  381  1  0.13273800  0.23653000  0.72942700  1
  H  382  1  0.13061600  0.20975500  0.69503900  1
  H  389  1  0.81258600  0.30753500  0.78508900  1
  H  390  1  0.20762600  0.30825500  0.76610800  1
  H  391  1  0.18229300  0.27467200  0.73907800  1
  H  392  1  0.80147200  0.26335200  0.71784200  1
  H  405  1  0.13279700  0.49150400  0.76235300  1
  H  406  1  0.13071000  0.48389500  0.78913400  1
  H  413  1  0.81259500  0.47616300  0.69135400  1
  H  414  1  0.20766100  0.45646300  0.69063000  1
  H  415  1  0.18233800  0.46301300  0.72421400  1
  H  416  1  0.80152300  0.45309200  0.73553700  1
  H  429  1  0.13274300  0.26945700  0.50737900  1
  H  430  1  0.13059100  0.30384500  0.51499400  1
  H  437  1  0.81262400  0.21378500  0.52271500  1
  H  438  1  0.20767600  0.23277000  0.54241600  1
  H  439  1  0.18231900  0.25980200  0.53586600  1
  H  440  1  0.80147700  0.28103600  0.54578600  1
  N  3  1  0.23206800  0.98781100  0.50681500  1
  N  23  1  0.00863500  0.84802100  0.43994200  1
  N  25  1  0.99720000  0.84798800  0.40938200  1
  N  27  1  0.01269800  0.81789600  0.40956500  1
  N  59  1  0.00863000  0.59052800  0.15085900  1
  N  61  1  0.99718100  0.56000300  0.15089500  1
  N  63  1  0.01268900  0.59027800  0.18098600  1
  N  95  1  0.00866900  0.55894000  0.40836100  1
  N  97  1  0.99722000  0.58950000  0.43888600  1
  N  99  1  0.01272900  0.58931600  0.40861000  1
  N  131  1  0.00424000  0.15037700  0.55948200  1
  N  133  1  0.99943300  0.15020400  0.58995100  1
  N  135  1  0.01118700  0.18040000  0.58992500  1
  N  167  1  0.00424000  0.40771400  0.84850300  1
  N  169  1  0.99944900  0.43835600  0.84867800  1
  N  171  1  0.01120200  0.40813500  0.81848100  1
  N  203  1  0.00421000  0.43939900  0.59117500  1
  N  205  1  0.99939900  0.40893100  0.56053300  1
  N  207  1  0.01113700  0.40895600  0.59075500  1
  N  252  1  0.20274500  0.05279300  0.50626900  1
  N  273  1  0.23207400  0.51760500  0.01107200  1
  N  274  1  0.20273500  0.45207800  0.94608600  1
  N  297  1  0.23207400  0.49206700  0.48127800  1
  N  298  1  0.20274600  0.49261400  0.54680700  1
  N  321  1  0.75565200  0.72816800  0.24191700  1
  N  322  1  0.76615400  0.76204200  0.31980200  1
  N  345  1  0.75562200  0.51235200  0.27072200  1
  N  346  1  0.76607800  0.55636400  0.23685000  1
  N  369  1  0.75562700  0.75696300  0.48652500  1
  N  370  1  0.76614300  0.67907600  0.44251900  1
  N  393  1  0.75391000  0.26971900  0.75721400  1
  N  394  1  0.76861100  0.23579300  0.67929700  1
  N  417  1  0.75394000  0.48610000  0.72917200  1
  N  418  1  0.76868500  0.44210900  0.76310100  1
  N  441  1  0.75393500  0.24166400  0.51277800  1
  N  442  1  0.76858500  0.31957900  0.55677300  1
  O  4  1  0.33627900  0.98346200  0.49622700  1
  O  5  1  0.25138500  0.98396400  0.52079500  1
  O  253  1  0.19919600  0.04858900  0.48813400  1
  O  254  1  0.31786500  0.04894600  0.51008000  1
  O  275  1  0.33628000  0.51136700  0.01542200  1
  O  276  1  0.19918100  0.43814800  0.95029100  1
  O  277  1  0.25140500  0.53543300  0.01492100  1
  O  278  1  0.31785800  0.45973700  0.94993500  1
  O  299  1  0.33629000  0.50265300  0.48751500  1
  O  300  1  0.19920200  0.51074800  0.56073700  1
  O  301  1  0.25138900  0.47808800  0.46345000  1
  O  302  1  0.31786900  0.48880200  0.53914700  1
  O  323  1  0.65920300  0.71897900  0.24427900  1
  O  324  1  0.77739500  0.74657800  0.32150800  1
  O  325  1  0.73122000  0.73031200  0.22696900  1
  O  326  1  0.64888200  0.76276400  0.31425300  1
  O  347  1  0.65917500  0.52390400  0.27991200  1
  O  348  1  0.77731000  0.57353400  0.25231600  1
  O  349  1  0.73119400  0.49526200  0.26858000  1
  O  350  1  0.64881700  0.55008800  0.23612600  1
  O  371  1  0.65917800  0.75460000  0.47497300  1
  O  372  1  0.77737600  0.67737000  0.42534800  1
  O  373  1  0.73118900  0.77191100  0.50361600  1
  O  374  1  0.64887200  0.68462600  0.44879100  1
  O  395  1  0.65705600  0.27874900  0.75471100  1
  O  396  1  0.77937800  0.25125500  0.67757800  1
  O  397  1  0.72919700  0.26758000  0.77215700  1
  O  398  1  0.65114000  0.23493000  0.68469400  1
  O  419  1  0.65708100  0.47456800  0.72014200  1
  O  420  1  0.77946300  0.42492800  0.74763900  1
  O  421  1  0.72922700  0.50318200  0.73131200  1
  O  422  1  0.65120500  0.44836700  0.76396300  1
  O  443  1  0.65707600  0.24416400  0.52430800  1
  O  444  1  0.77935300  0.32129700  0.57395400  1
  O  445  1  0.72923200  0.22672200  0.49569400  1
  O  446  1  0.65111500  0.31418000  0.55051300  1
