# generated using pymatgen
data_H20C29N2
_symmetry_space_group_name_H-M   'P 1'
_cell_length_a   21.07250000
_cell_length_b   57.46877290
_cell_length_c   57.46670000
_cell_angle_alpha   119.96642279
_cell_angle_beta   90.00000000
_cell_angle_gamma   90.00000000
_symmetry_Int_Tables_number   1
_chemical_formula_structural   H20C29N2
_chemical_formula_sum   'H240 C348 N24'
_cell_volume   60289.50516885
_cell_formula_units_Z   12
loop_
 _symmetry_equiv_pos_site_id
 _symmetry_equiv_pos_as_xyz
  1  'x, y, z'
loop_
 _atom_site_type_symbol
 _atom_site_label
 _atom_site_symmetry_multiplicity
 _atom_site_fract_x
 _atom_site_fract_y
 _atom_site_fract_z
 _atom_site_occupancy
  C  1  1  0.73858500  0.36259300  0.63876400  1
  C  2  1  0.74554500  0.35995000  0.72342400  1
  C  3  1  0.74439200  0.27529700  0.63601000  1
  C  4  1  0.79003300  0.35214900  0.73670200  1
  C  5  1  0.79300500  0.36536500  0.76491200  1
  C  6  1  0.75133500  0.38683500  0.78084600  1
  C  7  1  0.70730000  0.39482300  0.76768400  1
  C  8  1  0.70448300  0.38165600  0.73944300  1
  C  9  1  0.69369600  0.38332000  0.64543600  1
  C  10  1  0.69245600  0.39778200  0.63160400  1
  C  11  1  0.73709800  0.39239700  0.61124500  1
  C  12  1  0.78183000  0.37163300  0.60437400  1
  C  13  1  0.78245500  0.35691900  0.61792700  1
  C  14  1  0.78582100  0.26175000  0.61381100  1
  C  15  1  0.78785500  0.23352500  0.59885800  1
  C  16  1  0.74836300  0.21783000  0.60558500  1
  C  17  1  0.70700500  0.23126200  0.62770000  1
  C  18  1  0.70513600  0.25951900  0.64272800  1
  C  30  1  0.74251400  0.30397900  0.65107900  1
  C  31  1  0.74076200  0.31926500  0.63796800  1
  C  32  1  0.73938000  0.34765900  0.65248000  1
  C  33  1  0.73991700  0.36083400  0.68086200  1
  C  34  1  0.74248900  0.34632300  0.69476700  1
  C  35  1  0.74340000  0.31791500  0.67949000  1
  C  43  1  0.23859600  0.63518300  0.36047700  1
  C  44  1  0.24552800  0.63783100  0.27582000  1
  C  45  1  0.24439400  0.72248100  0.36323600  1
  C  46  1  0.29001300  0.64563400  0.26254000  1
  C  47  1  0.29299400  0.63241100  0.23433100  1
  C  48  1  0.25130800  0.61094600  0.21839900  1
  C  49  1  0.20726600  0.60296500  0.23156100  1
  C  50  1  0.20444200  0.61613700  0.25980400  1
  C  51  1  0.19372600  0.61444800  0.35380000  1
  C  52  1  0.19246000  0.59999900  0.36764400  1
  C  53  1  0.23711000  0.60538300  0.38800200  1
  C  54  1  0.28184600  0.62614400  0.39486900  1
  C  55  1  0.28245400  0.64086400  0.38132100  1
  C  56  1  0.28582800  0.73602900  0.38543300  1
  C  57  1  0.28784400  0.76425200  0.40039000  1
  C  58  1  0.24836200  0.77994700  0.39366200  1
  C  59  1  0.20700400  0.76651600  0.37154500  1
  C  60  1  0.20513700  0.73825800  0.35651700  1
  C  72  1  0.24251600  0.69380000  0.34816800  1
  C  73  1  0.24075000  0.67851300  0.36127500  1
  C  74  1  0.23938800  0.65011900  0.34676400  1
  C  75  1  0.23992000  0.63694300  0.31838100  1
  C  76  1  0.24248600  0.65145700  0.30447800  1
  C  77  1  0.24340200  0.67986500  0.31975500  1
  C  86  1  0.68649600  0.47942500  0.52951600  1
  C  87  1  0.80280900  0.48144900  0.52846600  1
  C  88  1  0.75152900  0.45929200  0.55045600  1
  C  89  1  0.84708700  0.46239800  0.51083100  1
  C  90  1  0.90403100  0.47073400  0.50443400  1
  C  91  1  0.91762700  0.49837600  0.51487600  1
  C  92  1  0.87249100  0.51730700  0.53244200  1
  C  93  1  0.81608300  0.50899500  0.53924700  1
  C  94  1  0.66822100  0.46944800  0.50257200  1
  C  95  1  0.60991700  0.47705100  0.49639500  1
  C  96  1  0.56729300  0.49426300  0.51695900  1
  C  97  1  0.58606100  0.50391600  0.54395100  1
  C  98  1  0.64487400  0.49674500  0.55015700  1
  C  99  1  0.73165400  0.43232400  0.53899100  1
  C  100  1  0.73913900  0.41833800  0.55312900  1
  C  101  1  0.76716000  0.43106100  0.57894500  1
  C  102  1  0.78685000  0.45809800  0.59041700  1
  C  103  1  0.77848300  0.47214400  0.57641100  1
  C  116  1  0.77917100  0.41703300  0.59216100  1
  C  117  1  0.51014400  0.50332000  0.51182300  1
  C  118  1  0.97468300  0.50756500  0.50985100  1
  C  123  1  0.68534800  0.04856300  0.51995700  1
  C  124  1  0.80158400  0.04499800  0.51745900  1
  C  125  1  0.75142400  0.08916900  0.53774900  1
  C  126  1  0.84739900  0.04701600  0.53625800  1
  C  127  1  0.90422500  0.03223300  0.52763400  1
  C  128  1  0.91622100  0.01441900  0.49997100  1
  C  129  1  0.86960300  0.01247000  0.48129400  1
  C  130  1  0.81328200  0.02761500  0.48987500  1
  C  131  1  0.66595400  0.03235800  0.53067900  1
  C  132  1  0.60773900  0.01850500  0.52297600  1
  C  133  1  0.56630100  0.02102600  0.50488800  1
  C  134  1  0.58615300  0.03763000  0.49450400  1
  C  135  1  0.64488300  0.05104400  0.50176900  1
  C  136  1  0.73580800  0.10657500  0.56494000  1
  C  137  1  0.74376100  0.13454400  0.57656300  1
  C  138  1  0.76764000  0.14574100  0.56123900  1
  C  139  1  0.78268800  0.12808400  0.53390300  1
  C  140  1  0.77447900  0.10018800  0.52228500  1
  C  153  1  0.77877300  0.17308000  0.57226900  1
  C  154  1  0.50945000  0.00664600  0.49559400  1
  C  155  1  0.97304100  0.00009900  0.49048000  1
  C  160  1  0.68770700  0.46931900  0.94985300  1
  C  161  1  0.80390000  0.47052800  0.95374300  1
  C  162  1  0.75434800  0.44660800  0.90943500  1
  C  163  1  0.84966100  0.48736300  0.95178300  1
  C  164  1  0.90626700  0.49365200  0.96671800  1
  C  165  1  0.91804100  0.48392600  0.98466300  1
  C  166  1  0.87145400  0.46716000  0.98656800  1
  C  167  1  0.81536900  0.46044700  0.97125600  1
  C  168  1  0.66812700  0.49622400  0.96591000  1
  C  169  1  0.60962800  0.50235600  0.97955200  1
  C  170  1  0.56816200  0.48174500  0.97700100  1
  C  171  1  0.58818900  0.45477700  0.96053200  1
  C  172  1  0.64717500  0.44865000  0.94731500  1
  C  173  1  0.73903400  0.45647400  0.89205800  1
  C  174  1  0.74690200  0.44015600  0.86408600  1
  C  175  1  0.77033000  0.41356600  0.85283200  1
  C  176  1  0.78521300  0.40384500  0.87049000  1
  C  177  1  0.77717500  0.42010500  0.89839600  1
  C  190  1  0.78060500  0.39714900  0.82542000  1
  C  191  1  0.51114400  0.48682300  0.99127200  1
  C  192  1  0.97478700  0.48880300  0.99904100  1
  C  197  1  0.18649800  0.51835300  0.46972400  1
  C  198  1  0.30281200  0.51632500  0.47076700  1
  C  199  1  0.25153200  0.53848400  0.44878200  1
  C  200  1  0.34710600  0.53537600  0.48839500  1
  C  201  1  0.40403800  0.52703800  0.49479800  1
  C  202  1  0.41762000  0.49939700  0.48436100  1
  C  203  1  0.37249000  0.48046700  0.46679000  1
  C  204  1  0.31608400  0.48877900  0.45998300  1
  C  205  1  0.16822800  0.52832700  0.49667000  1
  C  206  1  0.10993000  0.52072400  0.50284900  1
  C  207  1  0.06730600  0.50351000  0.48228500  1
  C  208  1  0.08606000  0.49386200  0.45529100  1
  C  209  1  0.14487200  0.50103300  0.44908400  1
  C  210  1  0.23166600  0.56545400  0.46024800  1
  C  211  1  0.23920200  0.57944500  0.44611800  1
  C  212  1  0.26720200  0.56671600  0.42029800  1
  C  213  1  0.28686200  0.53967500  0.40882000  1
  C  214  1  0.27846800  0.52562800  0.42282300  1
  C  227  1  0.27918800  0.58073800  0.40707100  1
  C  228  1  0.01016400  0.49444900  0.48742200  1
  C  229  1  0.47467000  0.49020500  0.48939400  1
  C  234  1  0.18535000  0.94921800  0.47929600  1
  C  235  1  0.30158800  0.95277700  0.48178900  1
  C  236  1  0.25141800  0.90860700  0.46149800  1
  C  237  1  0.34740600  0.95076000  0.46299000  1
  C  238  1  0.40422800  0.96554100  0.47161300  1
  C  239  1  0.41622400  0.98335300  0.49927700  1
  C  240  1  0.36961000  0.98530400  0.51795400  1
  C  241  1  0.31328600  0.97015900  0.50937200  1
  C  242  1  0.16595600  0.96542300  0.46857300  1
  C  243  1  0.10774700  0.97928100  0.47628200  1
  C  244  1  0.06630400  0.97675600  0.49436800  1
  C  245  1  0.08616000  0.96015100  0.50475000  1
  C  246  1  0.14489000  0.94673700  0.49748600  1
  C  247  1  0.23579000  0.89120300  0.43430900  1
  C  248  1  0.24374800  0.86323400  0.42268200  1
  C  249  1  0.26762400  0.85203500  0.43800700  1
  C  250  1  0.28267600  0.86969100  0.46534100  1
  C  251  1  0.27447200  0.89758500  0.47695900  1
  C  264  1  0.27878000  0.82469900  0.42697100  1
  C  265  1  0.00945400  0.99113400  0.50365900  1
  C  266  1  0.47305200  0.99766900  0.50876700  1
  C  271  1  0.18770400  0.52844800  0.04939600  1
  C  272  1  0.30389800  0.52723600  0.04549900  1
  C  273  1  0.25435600  0.55115800  0.08980700  1
  C  274  1  0.34966000  0.51039900  0.04745600  1
  C  275  1  0.40625400  0.50410300  0.03251500  1
  C  276  1  0.41805000  0.51385100  0.01459000  1
  C  277  1  0.37145000  0.53060600  0.01267300  1
  C  278  1  0.31535800  0.53731500  0.02798300  1
  C  279  1  0.16811400  0.50154300  0.03334300  1
  C  280  1  0.10962200  0.49541300  0.01969700  1
  C  281  1  0.06816000  0.51602500  0.02224400  1
  C  282  1  0.08819000  0.54299100  0.03871600  1
  C  283  1  0.14716800  0.54911900  0.05193600  1
  C  284  1  0.23905000  0.54129500  0.10718800  1
  C  285  1  0.24689000  0.55761800  0.13515900  1
  C  286  1  0.27030400  0.58421100  0.14641300  1
  C  287  1  0.28521000  0.59392600  0.12875000  1
  C  288  1  0.27717600  0.57766200  0.10084400  1
  C  301  1  0.28057800  0.60062900  0.17382300  1
  C  302  1  0.01114800  0.51094600  0.00797100  1
  C  303  1  0.47478400  0.50896900  0.00020400  1
  C  613  1  0.45385300  0.36259300  0.88238300  1
  C  614  1  0.46081300  0.35995000  0.96704300  1
  C  615  1  0.45966000  0.27529700  0.87962900  1
  C  616  1  0.50530100  0.35214900  0.98032100  1
  C  617  1  0.50827300  0.36536500  0.00853100  1
  C  618  1  0.46660300  0.38683500  0.02446500  1
  C  619  1  0.42256800  0.39482300  0.01130300  1
  C  620  1  0.41975100  0.38165600  0.98306200  1
  C  621  1  0.40896400  0.38332000  0.88905500  1
  C  622  1  0.40772400  0.39778200  0.87522300  1
  C  623  1  0.45236600  0.39239700  0.85486400  1
  C  624  1  0.49709800  0.37163300  0.84799300  1
  C  625  1  0.49772300  0.35691900  0.86154600  1
  C  626  1  0.50108900  0.26175000  0.85743000  1
  C  627  1  0.50312300  0.23352500  0.84247700  1
  C  628  1  0.46363100  0.21783000  0.84920400  1
  C  629  1  0.42227300  0.23126200  0.87131900  1
  C  630  1  0.42040400  0.25951900  0.88634700  1
  C  642  1  0.45778200  0.30397900  0.89469800  1
  C  643  1  0.45603000  0.31926500  0.88158700  1
  C  644  1  0.45464800  0.34765900  0.89609900  1
  C  645  1  0.45518500  0.36083400  0.92448100  1
  C  646  1  0.45775700  0.34632300  0.93838600  1
  C  647  1  0.45866800  0.31791500  0.92310900  1
  C  655  1  0.95386440  0.63518300  0.60409600  1
  C  656  1  0.96079640  0.63783100  0.51943900  1
  C  657  1  0.95966240  0.72248100  0.60685500  1
  C  658  1  0.00528100  0.64563400  0.50615900  1
  C  659  1  0.00826200  0.63241100  0.47795000  1
  C  660  1  0.96657640  0.61094600  0.46201800  1
  C  661  1  0.92253440  0.60296500  0.47518000  1
  C  662  1  0.91971040  0.61613700  0.50342300  1
  C  663  1  0.90899440  0.61444800  0.59741900  1
  C  664  1  0.90772840  0.59999900  0.61126330  1
  C  665  1  0.95237840  0.60538300  0.63162130  1
  C  666  1  0.99711436  0.62614400  0.63848830  1
  C  667  1  0.99772236  0.64086400  0.62494000  1
  C  668  1  0.00109600  0.73602900  0.62905200  1
  C  669  1  0.00311200  0.76425200  0.64400900  1
  C  670  1  0.96363040  0.77994700  0.63728100  1
  C  671  1  0.92227240  0.76651600  0.61516400  1
  C  672  1  0.92040540  0.73825800  0.60013600  1
  C  684  1  0.95778440  0.69380000  0.59178700  1
  C  685  1  0.95601840  0.67851300  0.60489400  1
  C  686  1  0.95465640  0.65011900  0.59038300  1
  C  687  1  0.95518840  0.63694300  0.56200000  1
  C  688  1  0.95775440  0.65145700  0.54809700  1
  C  689  1  0.95867040  0.67986500  0.56337400  1
  C  698  1  0.40176400  0.47942500  0.77313500  1
  C  699  1  0.51807700  0.48144900  0.77208500  1
  C  700  1  0.46679700  0.45929200  0.79407500  1
  C  701  1  0.56235500  0.46239800  0.75445000  1
  C  702  1  0.61929900  0.47073400  0.74805300  1
  C  703  1  0.63289500  0.49837600  0.75849500  1
  C  704  1  0.58775900  0.51730700  0.77606100  1
  C  705  1  0.53135100  0.50899500  0.78286600  1
  C  706  1  0.38348900  0.46944800  0.74619100  1
  C  707  1  0.32518500  0.47705100  0.74001400  1
  C  708  1  0.28256100  0.49426300  0.76057800  1
  C  709  1  0.30132900  0.50391600  0.78757000  1
  C  710  1  0.36014200  0.49674500  0.79377600  1
  C  711  1  0.44692200  0.43232400  0.78261000  1
  C  712  1  0.45440700  0.41833800  0.79674800  1
  C  713  1  0.48242800  0.43106100  0.82256400  1
  C  714  1  0.50211800  0.45809800  0.83403600  1
  C  715  1  0.49375100  0.47214400  0.82003000  1
  C  728  1  0.49443900  0.41703300  0.83578000  1
  C  729  1  0.22541200  0.50332000  0.75544200  1
  C  730  1  0.68995100  0.50756500  0.75347000  1
  C  735  1  0.40061600  0.04856300  0.76357600  1
  C  736  1  0.51685200  0.04499800  0.76107800  1
  C  737  1  0.46669200  0.08916900  0.78136800  1
  C  738  1  0.56266700  0.04701600  0.77987700  1
  C  739  1  0.61949300  0.03223300  0.77125300  1
  C  740  1  0.63148900  0.01441900  0.74359000  1
  C  741  1  0.58487100  0.01247000  0.72491300  1
  C  742  1  0.52855000  0.02761500  0.73349400  1
  C  743  1  0.38122200  0.03235800  0.77429800  1
  C  744  1  0.32300700  0.01850500  0.76659500  1
  C  745  1  0.28156900  0.02102600  0.74850700  1
  C  746  1  0.30142100  0.03763000  0.73812300  1
  C  747  1  0.36015100  0.05104400  0.74538800  1
  C  748  1  0.45107600  0.10657500  0.80855900  1
  C  749  1  0.45902900  0.13454400  0.82018200  1
  C  750  1  0.48290800  0.14574100  0.80485800  1
  C  751  1  0.49795600  0.12808400  0.77752200  1
  C  752  1  0.48974700  0.10018800  0.76590400  1
  C  765  1  0.49404100  0.17308000  0.81588800  1
  C  766  1  0.22471800  0.00664600  0.73921300  1
  C  767  1  0.68830900  0.00009900  0.73409900  1
  C  772  1  0.40297500  0.46931900  0.19347200  1
  C  773  1  0.51916800  0.47052800  0.19736200  1
  C  774  1  0.46961600  0.44660800  0.15305400  1
  C  775  1  0.56492900  0.48736300  0.19540200  1
  C  776  1  0.62153500  0.49365200  0.21033700  1
  C  777  1  0.63330900  0.48392600  0.22828200  1
  C  778  1  0.58672200  0.46716000  0.23018700  1
  C  779  1  0.53063700  0.46044700  0.21487500  1
  C  780  1  0.38339500  0.49622400  0.20952900  1
  C  781  1  0.32489600  0.50235600  0.22317100  1
  C  782  1  0.28343000  0.48174500  0.22062000  1
  C  783  1  0.30345700  0.45477700  0.20415100  1
  C  784  1  0.36244300  0.44865000  0.19093400  1
  C  785  1  0.45430200  0.45647400  0.13567700  1
  C  786  1  0.46217000  0.44015600  0.10770500  1
  C  787  1  0.48559800  0.41356600  0.09645100  1
  C  788  1  0.50048100  0.40384500  0.11410900  1
  C  789  1  0.49244300  0.42010500  0.14201500  1
  C  802  1  0.49587300  0.39714900  0.06903900  1
  C  803  1  0.22641200  0.48682300  0.23489100  1
  C  804  1  0.69005500  0.48880300  0.24266000  1
  C  809  1  0.90176640  0.51835300  0.71334300  1
  C  810  1  0.01808000  0.51632500  0.71438600  1
  C  811  1  0.96680040  0.53848400  0.69240100  1
  C  812  1  0.06237400  0.53537600  0.73201400  1
  C  813  1  0.11930600  0.52703800  0.73841700  1
  C  814  1  0.13288800  0.49939700  0.72798000  1
  C  815  1  0.08775800  0.48046700  0.71040900  1
  C  816  1  0.03135200  0.48877900  0.70360200  1
  C  817  1  0.88349640  0.52832700  0.74028900  1
  C  818  1  0.82519840  0.52072400  0.74646800  1
  C  819  1  0.78257400  0.50351000  0.72590400  1
  C  820  1  0.80132840  0.49386200  0.69891000  1
  C  821  1  0.86014040  0.50103300  0.69270300  1
  C  822  1  0.94693440  0.56545400  0.70386700  1
  C  823  1  0.95447040  0.57944500  0.68973700  1
  C  824  1  0.98247036  0.56671600  0.66391730  1
  C  825  1  0.00213000  0.53967500  0.65243900  1
  C  826  1  0.99373636  0.52562800  0.66644200  1
  C  839  1  0.99445636  0.58073800  0.65069030  1
  C  840  1  0.72543200  0.49444900  0.73104100  1
  C  841  1  0.18993800  0.49020500  0.73301300  1
  C  846  1  0.90061840  0.94921800  0.72291500  1
  C  847  1  0.01685600  0.95277700  0.72540800  1
  C  848  1  0.96668640  0.90860700  0.70511700  1
  C  849  1  0.06267400  0.95076000  0.70660900  1
  C  850  1  0.11949600  0.96554100  0.71523200  1
  C  851  1  0.13149200  0.98335300  0.74289600  1
  C  852  1  0.08487800  0.98530400  0.76157300  1
  C  853  1  0.02855400  0.97015900  0.75299100  1
  C  854  1  0.88122440  0.96542300  0.71219200  1
  C  855  1  0.82301540  0.97928100  0.71990100  1
  C  856  1  0.78157200  0.97675600  0.73798700  1
  C  857  1  0.80142840  0.96015100  0.74836900  1
  C  858  1  0.86015840  0.94673700  0.74110500  1
  C  859  1  0.95105840  0.89120300  0.67792800  1
  C  860  1  0.95901640  0.86323400  0.66630100  1
  C  861  1  0.98289236  0.85203500  0.68162600  1
  C  862  1  0.99794436  0.86969100  0.70896000  1
  C  863  1  0.98974036  0.89758500  0.72057800  1
  C  876  1  0.99404836  0.82469900  0.67059000  1
  C  877  1  0.72472200  0.99113400  0.74727800  1
  C  878  1  0.18832000  0.99766900  0.75238600  1
  C  883  1  0.90297240  0.52844800  0.29301500  1
  C  884  1  0.01916600  0.52723600  0.28911800  1
  C  885  1  0.96962440  0.55115800  0.33342600  1
  C  886  1  0.06492800  0.51039900  0.29107500  1
  C  887  1  0.12152200  0.50410300  0.27613400  1
  C  888  1  0.13331800  0.51385100  0.25820900  1
  C  889  1  0.08671800  0.53060600  0.25629200  1
  C  890  1  0.03062600  0.53731500  0.27160200  1
  C  891  1  0.88338240  0.50154300  0.27696200  1
  C  892  1  0.82489040  0.49541300  0.26331600  1
  C  893  1  0.78342800  0.51602500  0.26586300  1
  C  894  1  0.80345840  0.54299100  0.28233500  1
  C  895  1  0.86243640  0.54911900  0.29555500  1
  C  896  1  0.95431840  0.54129500  0.35080700  1
  C  897  1  0.96215840  0.55761800  0.37877800  1
  C  898  1  0.98557236  0.58421100  0.39003200  1
  C  899  1  0.00047800  0.59392600  0.37236900  1
  C  900  1  0.99244436  0.57766200  0.34446300  1
  C  913  1  0.99584636  0.60062900  0.41744200  1
  C  914  1  0.72641600  0.51094600  0.25159000  1
  C  915  1  0.19005200  0.50896900  0.24382300  1
  H  19  1  0.67638400  0.41024800  0.77862200  1
  H  20  1  0.67107900  0.38774000  0.73067600  1
  H  21  1  0.82604900  0.35907900  0.77357600  1
  H  22  1  0.81589300  0.34219500  0.61262700  1
  H  23  1  0.66053800  0.38769500  0.66007200  1
  H  24  1  0.65910000  0.41250600  0.63671400  1
  H  25  1  0.81389500  0.36695100  0.58929800  1
  H  26  1  0.81580100  0.27233800  0.60850300  1
  H  27  1  0.67755300  0.22051400  0.63301900  1
  H  28  1  0.67379300  0.26847600  0.65837700  1
  H  29  1  0.81850200  0.22468300  0.58300600  1
  H  36  1  0.74112100  0.38139900  0.69156700  1
  H  37  1  0.73871200  0.30951500  0.61741600  1
  H  38  1  0.74529500  0.30713500  0.68926900  1
  H  39  1  0.82149200  0.33691800  0.72591900  1
  H  61  1  0.17635300  0.58753700  0.22062500  1
  H  62  1  0.17106600  0.61004400  0.26857400  1
  H  63  1  0.32605600  0.63869000  0.22566700  1
  H  64  1  0.31591400  0.65557900  0.38661100  1
  H  65  1  0.16053200  0.61008900  0.33917900  1
  H  66  1  0.15909800  0.58527900  0.36254100  1
  H  67  1  0.31391600  0.63082400  0.40994300  1
  H  68  1  0.31578600  0.72544000  0.39074800  1
  H  69  1  0.17754800  0.77726400  0.36622800  1
  H  70  1  0.17379600  0.72930000  0.34086900  1
  H  71  1  0.31847600  0.77309600  0.41624800  1
  H  78  1  0.24112000  0.61637800  0.30767500  1
  H  79  1  0.23872400  0.68826000  0.38182800  1
  H  80  1  0.24530000  0.69064500  0.30997700  1
  H  81  1  0.32151000  0.66084900  0.27332400  1
  H  104  1  0.83875200  0.44233300  0.50312100  1
  H  105  1  0.88059700  0.53749300  0.54079200  1
  H  106  1  0.78485300  0.52313600  0.55227700  1
  H  107  1  0.93590300  0.45626500  0.49242500  1
  H  108  1  0.65756500  0.50444800  0.56983600  1
  H  109  1  0.69827500  0.45724900  0.48733000  1
  H  110  1  0.59984300  0.47026400  0.47662600  1
  H  111  1  0.55736100  0.51670200  0.55951900  1
  H  112  1  0.71273900  0.42261900  0.52007200  1
  H  113  1  0.80790600  0.46773700  0.60895600  1
  H  114  1  0.79361700  0.49161500  0.58493800  1
  H  115  1  0.72567900  0.39859800  0.54409700  1
  H  119  1  0.82363700  0.41621400  0.59757500  1
  H  120  1  0.49399400  0.52087300  0.52635300  1
  H  121  1  0.98936600  0.52560700  0.52396400  1
  H  141  1  0.84026600  0.05984700  0.55632300  1
  H  142  1  0.87652300  0.00016800  0.46109000  1
  H  143  1  0.78099800  0.02608900  0.47588900  1
  H  144  1  0.93719800  0.03511100  0.54188500  1
  H  145  1  0.65845000  0.06234300  0.49340700  1
  H  146  1  0.69526200  0.02983200  0.54343900  1
  H  147  1  0.59690700  0.00604600  0.53032400  1
  H  148  1  0.55844900  0.03975100  0.48103200  1
  H  149  1  0.71957300  0.09887900  0.57648900  1
  H  150  1  0.80021300  0.13534400  0.52213800  1
  H  151  1  0.78619600  0.08787500  0.50255100  1
  H  152  1  0.73317700  0.14658400  0.59648300  1
  H  156  1  0.81200200  0.17879500  0.56389900  1
  H  157  1  0.49419400  0.00320500  0.47777000  1
  H  158  1  0.98668100  0.99577900  0.47218900  1
  H  178  1  0.84268500  0.49452100  0.93887100  1
  H  179  1  0.87827100  0.45930800  0.99893100  1
  H  180  1  0.78311500  0.44795200  0.97274200  1
  H  181  1  0.93924800  0.50504300  0.96386500  1
  H  182  1  0.66085100  0.42900500  0.93610200  1
  H  183  1  0.69742000  0.51150900  0.96842900  1
  H  184  1  0.59865200  0.52215100  0.99191100  1
  H  185  1  0.56045500  0.43918800  0.95839100  1
  H  186  1  0.72294700  0.47573200  0.89976900  1
  H  187  1  0.80234800  0.38476700  0.86321700  1
  H  188  1  0.78861900  0.41262300  0.91069500  1
  H  189  1  0.73634400  0.44808800  0.85208100  1
  H  193  1  0.81127500  0.38209800  0.81947700  1
  H  194  1  0.49583600  0.47246900  0.99475300  1
  H  195  1  0.98848300  0.47484100  0.00337100  1
  H  215  1  0.33873000  0.55544300  0.49613500  1
  H  216  1  0.38059000  0.46028000  0.45844200  1
  H  217  1  0.28485400  0.47463900  0.44695700  1
  H  218  1  0.43588000  0.54150800  0.50683200  1
  H  219  1  0.15756000  0.49333200  0.42940600  1
  H  220  1  0.19829200  0.54052400  0.51191100  1
  H  221  1  0.09986400  0.52750300  0.52261600  1
  H  222  1  0.05736400  0.48107400  0.43972600  1
  H  223  1  0.21273200  0.57515800  0.47916400  1
  H  224  1  0.30790400  0.53003300  0.39027900  1
  H  225  1  0.29361000  0.50615800  0.41430200  1
  H  226  1  0.22567400  0.59917800  0.45513500  1
  H  230  1  0.32364400  0.58154200  0.40163700  1
  H  231  1  0.99400300  0.47690100  0.47288800  1
  H  232  1  0.48934800  0.47216100  0.47528100  1
  H  252  1  0.34026800  0.93792800  0.44292500  1
  H  253  1  0.37653400  0.99760300  0.53815900  1
  H  254  1  0.28100200  0.97168500  0.52335800  1
  H  255  1  0.43721000  0.96266000  0.45736400  1
  H  256  1  0.15845800  0.93543700  0.50584400  1
  H  257  1  0.19526000  0.96794500  0.45581000  1
  H  258  1  0.09690400  0.99173100  0.46892700  1
  H  259  1  0.05845600  0.95802900  0.51822100  1
  H  260  1  0.21959000  0.89890200  0.42275800  1
  H  261  1  0.30020900  0.86242900  0.47710400  1
  H  262  1  0.28619200  0.90989800  0.49669400  1
  H  263  1  0.23318600  0.85119800  0.40276100  1
  H  267  1  0.31206600  0.81898700  0.43532000  1
  H  268  1  0.99419700  0.99457700  0.52148500  1
  H  269  1  0.48668600  0.00198900  0.52705900  1
  H  289  1  0.34268400  0.50324300  0.06037000  1
  H  290  1  0.37827000  0.53846000  0.00031400  1
  H  291  1  0.28310400  0.54980700  0.02649600  1
  H  292  1  0.43925400  0.49273000  0.03538400  1
  H  293  1  0.16085800  0.56876100  0.06313900  1
  H  294  1  0.19742800  0.48625900  0.03080800  1
  H  295  1  0.09866400  0.47561900  0.00732600  1
  H  296  1  0.06045800  0.55858100  0.04085100  1
  H  297  1  0.22294400  0.52203800  0.09947900  1
  H  298  1  0.30234600  0.61300300  0.13602300  1
  H  299  1  0.28863600  0.58514000  0.08854400  1
  H  300  1  0.23632600  0.54969000  0.14716700  1
  H  304  1  0.31122600  0.61568900  0.17976800  1
  H  305  1  0.99583900  0.52530200  0.00449100  1
  H  306  1  0.48848400  0.52293000  0.99587700  1
  H  631  1  0.39165200  0.41024800  0.02224100  1
  H  632  1  0.38634700  0.38774000  0.97429500  1
  H  633  1  0.54131700  0.35907900  0.01719500  1
  H  634  1  0.53116100  0.34219500  0.85624600  1
  H  635  1  0.37580600  0.38769500  0.90369100  1
  H  636  1  0.37436800  0.41250600  0.88033300  1
  H  637  1  0.52916300  0.36695100  0.83291700  1
  H  638  1  0.53106900  0.27233800  0.85212200  1
  H  639  1  0.39282100  0.22051400  0.87663800  1
  H  640  1  0.38906100  0.26847600  0.90199600  1
  H  641  1  0.53377000  0.22468300  0.82662500  1
  H  648  1  0.45638900  0.38139900  0.93518600  1
  H  649  1  0.45398000  0.30951500  0.86103500  1
  H  650  1  0.46056300  0.30713500  0.93288800  1
  H  651  1  0.53676000  0.33691800  0.96953800  1
  H  673  1  0.89162140  0.58753700  0.46424400  1
  H  674  1  0.88633440  0.61004400  0.51219300  1
  H  675  1  0.04132400  0.63869000  0.46928600  1
  H  676  1  0.03118200  0.65557900  0.63023000  1
  H  677  1  0.87580040  0.61008900  0.58279800  1
  H  678  1  0.87436640  0.58527900  0.60616030  1
  H  679  1  0.02918400  0.63082400  0.65356230  1
  H  680  1  0.03105400  0.72544000  0.63436700  1
  H  681  1  0.89281640  0.77726400  0.60984700  1
  H  682  1  0.88906440  0.72930000  0.58448800  1
  H  683  1  0.03374400  0.77309600  0.65986700  1
  H  690  1  0.95638840  0.61637800  0.55129400  1
  H  691  1  0.95399240  0.68826000  0.62544700  1
  H  692  1  0.96056840  0.69064500  0.55359600  1
  H  693  1  0.03677800  0.66084900  0.51694300  1
  H  716  1  0.55402000  0.44233300  0.74674000  1
  H  717  1  0.59586500  0.53749300  0.78441100  1
  H  718  1  0.50012100  0.52313600  0.79589600  1
  H  719  1  0.65117100  0.45626500  0.73604400  1
  H  720  1  0.37283300  0.50444800  0.81345500  1
  H  721  1  0.41354300  0.45724900  0.73094900  1
  H  722  1  0.31511100  0.47026400  0.72024500  1
  H  723  1  0.27262900  0.51670200  0.80313800  1
  H  724  1  0.42800700  0.42261900  0.76369100  1
  H  725  1  0.52317400  0.46773700  0.85257500  1
  H  726  1  0.50888500  0.49161500  0.82855700  1
  H  727  1  0.44094700  0.39859800  0.78771600  1
  H  731  1  0.53890500  0.41621400  0.84119400  1
  H  732  1  0.20926200  0.52087300  0.76997200  1
  H  733  1  0.70463400  0.52560700  0.76758300  1
  H  753  1  0.55553400  0.05984700  0.79994200  1
  H  754  1  0.59179100  0.00016800  0.70470900  1
  H  755  1  0.49626600  0.02608900  0.71950800  1
  H  756  1  0.65246600  0.03511100  0.78550400  1
  H  757  1  0.37371800  0.06234300  0.73702600  1
  H  758  1  0.41053000  0.02983200  0.78705800  1
  H  759  1  0.31217500  0.00604600  0.77394300  1
  H  760  1  0.27371700  0.03975100  0.72465100  1
  H  761  1  0.43484100  0.09887900  0.82010800  1
  H  762  1  0.51548100  0.13534400  0.76575700  1
  H  763  1  0.50146400  0.08787500  0.74617000  1
  H  764  1  0.44844500  0.14658400  0.84010200  1
  H  768  1  0.52727000  0.17879500  0.80751800  1
  H  769  1  0.20946200  0.00320500  0.72138900  1
  H  770  1  0.70194900  0.99577900  0.71580800  1
  H  790  1  0.55795300  0.49452100  0.18249000  1
  H  791  1  0.59353900  0.45930800  0.24255000  1
  H  792  1  0.49838300  0.44795200  0.21636100  1
  H  793  1  0.65451600  0.50504300  0.20748400  1
  H  794  1  0.37611900  0.42900500  0.17972100  1
  H  795  1  0.41268800  0.51150900  0.21204800  1
  H  796  1  0.31392000  0.52215100  0.23553000  1
  H  797  1  0.27572300  0.43918800  0.20201000  1
  H  798  1  0.43821500  0.47573200  0.14338800  1
  H  799  1  0.51761600  0.38476700  0.10683600  1
  H  800  1  0.50388700  0.41262300  0.15431400  1
  H  801  1  0.45161200  0.44808800  0.09570000  1
  H  805  1  0.52654300  0.38209800  0.06309600  1
  H  806  1  0.21110400  0.47246900  0.23837200  1
  H  807  1  0.70375100  0.47484100  0.24699000  1
  H  827  1  0.05399800  0.55544300  0.73975400  1
  H  828  1  0.09585800  0.46028000  0.70206100  1
  H  829  1  0.00012200  0.47463900  0.69057600  1
  H  830  1  0.15114800  0.54150800  0.75045100  1
  H  831  1  0.87282840  0.49333200  0.67302500  1
  H  832  1  0.91356040  0.54052400  0.75553000  1
  H  833  1  0.81513240  0.52750300  0.76623500  1
  H  834  1  0.77263200  0.48107400  0.68334500  1
  H  835  1  0.92800040  0.57515800  0.72278300  1
  H  836  1  0.02317200  0.53003300  0.63389800  1
  H  837  1  0.00887800  0.50615800  0.65792100  1
  H  838  1  0.94094240  0.59917800  0.69875430  1
  H  842  1  0.03891200  0.58154200  0.64525630  1
  H  843  1  0.70927100  0.47690100  0.71650700  1
  H  844  1  0.20461600  0.47216100  0.71890000  1
  H  864  1  0.05553600  0.93792800  0.68654400  1
  H  865  1  0.09180200  0.99760300  0.78177800  1
  H  866  1  0.99627036  0.97168500  0.76697700  1
  H  867  1  0.15247800  0.96266000  0.70098300  1
  H  868  1  0.87372640  0.93543700  0.74946300  1
  H  869  1  0.91052840  0.96794500  0.69942900  1
  H  870  1  0.81217240  0.99173100  0.71254600  1
  H  871  1  0.77372400  0.95802900  0.76184000  1
  H  872  1  0.93485840  0.89890200  0.66637700  1
  H  873  1  0.01547700  0.86242900  0.72072300  1
  H  874  1  0.00146000  0.90989800  0.74031300  1
  H  875  1  0.94845440  0.85119800  0.64638000  1
  H  879  1  0.02733400  0.81898700  0.67893900  1
  H  880  1  0.70946500  0.99457700  0.76510400  1
  H  881  1  0.20195400  0.00198900  0.77067800  1
  H  901  1  0.05795200  0.50324300  0.30398900  1
  H  902  1  0.09353800  0.53846000  0.24393300  1
  H  903  1  0.99837236  0.54980700  0.27011500  1
  H  904  1  0.15452200  0.49273000  0.27900300  1
  H  905  1  0.87612640  0.56876100  0.30675800  1
  H  906  1  0.91269640  0.48625900  0.27442700  1
  H  907  1  0.81393240  0.47561900  0.25094500  1
  H  908  1  0.77572600  0.55858100  0.28447000  1
  H  909  1  0.93821240  0.52203800  0.34309800  1
  H  910  1  0.01761400  0.61300300  0.37964200  1
  H  911  1  0.00390400  0.58514000  0.33216300  1
  H  912  1  0.95159440  0.54969000  0.39078600  1
  H  916  1  0.02649400  0.61568900  0.42338700  1
  H  917  1  0.71110700  0.52530200  0.24811000  1
  H  918  1  0.20375200  0.52293000  0.23949600  1
  N  40  1  0.74679500  0.19104700  0.59227200  1
  N  41  1  0.73374900  0.40630000  0.59848400  1
  N  42  1  0.75038000  0.40013700  0.80762600  1
  N  82  1  0.24677200  0.80673200  0.40698000  1
  N  83  1  0.23376400  0.59148400  0.40076700  1
  N  84  1  0.25036200  0.59764100  0.19161700  1
  N  85  1  0.74671700  0.47298700  0.53574800  1
  N  122  1  0.74588300  0.06096800  0.52629300  1
  N  159  1  0.74844100  0.46326600  0.93762600  1
  N  196  1  0.24671400  0.52479100  0.46349100  1
  N  233  1  0.24588400  0.93680900  0.47295600  1
  N  270  1  0.24844200  0.53449900  0.06161800  1
  N  652  1  0.46206300  0.19104700  0.83589100  1
  N  653  1  0.44901700  0.40630000  0.84210300  1
  N  654  1  0.46564800  0.40013700  0.05124500  1
  N  694  1  0.96204040  0.80673200  0.65059900  1
  N  695  1  0.94903240  0.59148400  0.64438630  1
  N  696  1  0.96563040  0.59764100  0.43523600  1
  N  697  1  0.46198500  0.47298700  0.77936700  1
  N  734  1  0.46115100  0.06096800  0.76991200  1
  N  771  1  0.46370900  0.46326600  0.18124500  1
  N  808  1  0.96198240  0.52479100  0.70711000  1
  N  845  1  0.96115240  0.93680900  0.71657500  1
  N  882  1  0.96371040  0.53449900  0.30523700  1
