# generated using pymatgen
data_H36C43(N2O)4
_symmetry_space_group_name_H-M   'P 1'
_cell_length_a   39.22990000
_cell_length_b   39.22990000
_cell_length_c   39.22990000
_cell_angle_alpha   90.00000000
_cell_angle_beta   90.00000000
_cell_angle_gamma   90.00000000
_symmetry_Int_Tables_number   1
_chemical_formula_structural   H36C43(N2O)4
_chemical_formula_sum   'H288 C344 N64 O32'
_cell_volume   60374.22977031
_cell_formula_units_Z   8
loop_
 _symmetry_equiv_pos_site_id
 _symmetry_equiv_pos_as_xyz
  1  'x, y, z'
loop_
 _atom_site_type_symbol
 _atom_site_label
 _atom_site_symmetry_multiplicity
 _atom_site_fract_x
 _atom_site_fract_y
 _atom_site_fract_z
 _atom_site_occupancy
  H  25  1  0.08386400  0.89442600  0.00484700  1
  H  26  1  0.04450100  0.89980700  0.95851200  1
  H  27  1  0.95277400  0.96044200  0.89788500  1
  H  28  1  0.91451000  0.00753800  0.89161900  1
  H  29  1  0.95045900  0.04971500  0.98316700  1
  H  30  1  0.04434400  0.98321000  0.04957600  1
  H  31  1  0.95050500  0.95209600  0.01860300  1
  H  32  1  0.91439200  0.99427800  0.11008600  1
  H  33  1  0.95260800  0.04141500  0.10384500  1
  H  34  1  0.04437200  0.01871400  0.95226200  1
  H  35  1  0.04438800  0.10209000  0.04335000  1
  H  36  1  0.08379900  0.10750400  0.99706400  1
  H  39  1  0.01352000  0.94725500  0.92341100  1
  H  40  1  0.98218500  0.92411700  0.94635800  1
  H  42  1  0.98206300  0.07774500  0.05541100  1
  H  43  1  0.01338200  0.05463500  0.07840300  1
  H  45  1  0.88941700  0.06076200  0.95185400  1
  H  47  1  0.10458200  0.95547600  0.06217800  1
  H  49  1  0.88945700  0.94096700  0.04985600  1
  H  51  1  0.10455900  0.04648400  0.93966700  1
  H  76  1  0.41806900  0.10751400  0.50479900  1
  H  77  1  0.45747300  0.10209400  0.45850800  1
  H  78  1  0.54924200  0.04141200  0.39800800  1
  H  79  1  0.58746300  0.99427800  0.39177000  1
  H  80  1  0.55135500  0.95210100  0.48325700  1
  H  81  1  0.45749300  0.01872000  0.54959900  1
  H  82  1  0.55139600  0.04971500  0.51868400  1
  H  83  1  0.58735100  0.00753700  0.61022900  1
  H  84  1  0.54908900  0.96043900  0.60396600  1
  H  85  1  0.45751100  0.98320700  0.45228000  1
  H  86  1  0.45735800  0.89980400  0.54334400  1
  H  87  1  0.41799300  0.89442300  0.49700900  1
  H  90  1  0.48847200  0.05463300  0.42345000  1
  H  91  1  0.51979000  0.07774300  0.44644000  1
  H  93  1  0.51967300  0.92411700  0.55549500  1
  H  94  1  0.48834200  0.94725300  0.57844400  1
  H  96  1  0.61240300  0.94096900  0.45200500  1
  H  98  1  0.39730700  0.04649400  0.56219900  1
  H  100  1  0.61243900  0.06076300  0.54999700  1
  H  102  1  0.39727100  0.95547300  0.43968000  1
  H  127  1  0.35918800  0.83953600  0.25983300  1
  H  128  1  0.35569100  0.79931200  0.21401500  1
  H  129  1  0.29594000  0.70774100  0.15146600  1
  H  130  1  0.24762700  0.67161300  0.14270300  1
  H  131  1  0.20126600  0.71138400  0.23052600  1
  H  132  1  0.26617500  0.80402000  0.29898900  1
  H  133  1  0.30059200  0.71138400  0.27132900  1
  H  134  1  0.25422500  0.67160600  0.35914500  1
  H  135  1  0.20591200  0.70773100  0.35038100  1
  H  136  1  0.23568600  0.80402300  0.20286900  1
  H  137  1  0.14616000  0.79930400  0.28783400  1
  H  138  1  0.14266700  0.83953400  0.24201900  1
  H  141  1  0.30979500  0.76870800  0.17633400  1
  H  142  1  0.33017400  0.73735900  0.20172800  1
  H  144  1  0.17168100  0.73735400  0.30011800  1
  H  145  1  0.19205500  0.76870000  0.32552000  1
  H  147  1  0.17666700  0.66415000  0.20000000  1
  H  149  1  0.29594500  0.86578200  0.30951200  1
  H  151  1  0.32518800  0.66414700  0.30185400  1
  H  153  1  0.20591100  0.86578400  0.19234100  1
  H  178  1  0.14265900  0.16238600  0.75977300  1
  H  179  1  0.14615100  0.20265400  0.71399200  1
  H  180  1  0.20597200  0.29418400  0.65144200  1
  H  181  1  0.25432400  0.33026100  0.64266800  1
  H  182  1  0.30062300  0.29050600  0.73053000  1
  H  183  1  0.23568600  0.19785200  0.79894000  1
  H  184  1  0.20123000  0.29050300  0.77132000  1
  H  185  1  0.24752400  0.33026400  0.85918200  1
  H  186  1  0.29587700  0.29418900  0.85040800  1
  H  187  1  0.26617000  0.19784800  0.70291800  1
  H  188  1  0.35570100  0.20265400  0.78787200  1
  H  189  1  0.35919600  0.16238500  0.74209300  1
  H  192  1  0.19204700  0.23325700  0.67632100  1
  H  193  1  0.17170400  0.26461200  0.70173600  1
  H  195  1  0.33014900  0.26461500  0.80012200  1
  H  196  1  0.30980200  0.23326300  0.82553700  1
  H  198  1  0.32522700  0.33776000  0.69999700  1
  H  200  1  0.20590900  0.13605300  0.80936000  1
  H  202  1  0.17662100  0.33776000  0.80185100  1
  H  204  1  0.29595300  0.13604600  0.69250300  1
  H  229  1  0.64157200  0.16923900  0.73927800  1
  H  230  1  0.64601500  0.20735200  0.78675000  1
  H  231  1  0.70648700  0.29673100  0.85183300  1
  H  232  1  0.75324000  0.33529000  0.85934300  1
  H  233  1  0.79883500  0.29835200  0.76993100  1
  H  234  1  0.73538900  0.20420700  0.70161100  1
  H  235  1  0.70302300  0.29835400  0.73192400  1
  H  236  1  0.74862100  0.33528800  0.64251000  1
  H  237  1  0.79537100  0.29672300  0.65002000  1
  H  238  1  0.76646200  0.20420500  0.80024200  1
  H  239  1  0.85583500  0.20733800  0.71510300  1
  H  240  1  0.86027300  0.16922600  0.76257400  1
  H  243  1  0.69346400  0.23572700  0.82550400  1
  H  244  1  0.67195700  0.26769100  0.80187900  1
  H  246  1  0.82989800  0.26767900  0.69997200  1
  H  247  1  0.80838700  0.23571800  0.67634900  1
  H  249  1  0.80859800  0.35957000  0.79995400  1
  H  251  1  0.70368800  0.14292300  0.68931400  1
  H  253  1  0.69326500  0.35957800  0.70189600  1
  H  255  1  0.79816000  0.14291900  0.81254400  1
  H  280  1  0.86027000  0.83268900  0.23920500  1
  H  281  1  0.85588600  0.79454500  0.28665700  1
  H  282  1  0.79547500  0.70517200  0.35178800  1
  H  283  1  0.74872000  0.66666667  0.35935100  1
  H  284  1  0.70303100  0.70357900  0.26999100  1
  H  285  1  0.76641100  0.79774200  0.20162700  1
  H  286  1  0.79883000  0.70358100  0.23187000  1
  H  287  1  0.75313300  0.66666667  0.14252000  1
  H  288  1  0.70637500  0.70515900  0.15008700  1
  H  289  1  0.73545200  0.79774900  0.30023300  1
  H  290  1  0.64596700  0.79453700  0.21521200  1
  H  291  1  0.64159000  0.83269200  0.26265700  1
  H  294  1  0.80848100  0.76616900  0.32545100  1
  H  295  1  0.82995400  0.73420300  0.30179300  1
  H  297  1  0.67190400  0.73419300  0.20008200  1
  H  298  1  0.69336700  0.76615900  0.17641600  1
  H  300  1  0.69328800  0.64235700  0.30002600  1
  H  302  1  0.79809600  0.85906700  0.18938400  1
  H  304  1  0.80856800  0.64236000  0.20183700  1
  H  306  1  0.70376700  0.85907500  0.31247900  1
  H  331  1  0.58617300  0.39138500  0.51429200  1
  H  332  1  0.54747300  0.39476800  0.46722000  1
  H  333  1  0.45499800  0.45208400  0.40402400  1
  H  334  1  0.41893800  0.50004200  0.39381700  1
  H  335  1  0.46087600  0.55028000  0.47846700  1
  H  336  1  0.55159500  0.48601700  0.55036400  1
  H  337  1  0.46087300  0.45153100  0.52328700  1
  H  338  1  0.41900700  0.50172200  0.60799600  1
  H  339  1  0.45504900  0.54969300  0.59777900  1
  H  340  1  0.55160800  0.51578800  0.45140100  1
  H  341  1  0.54747800  0.60703700  0.53454400  1
  H  342  1  0.58619400  0.61041500  0.48748300  1
  H  345  1  0.51704500  0.43982000  0.42805900  1
  H  346  1  0.48599200  0.42003700  0.45428400  1
  H  348  1  0.48600000  0.58176300  0.54749100  1
  H  349  1  0.51706000  0.56198200  0.57370300  1
  H  351  1  0.41706500  0.57626000  0.44588200  1
  H  353  1  0.61093500  0.45443200  0.56581600  1
  H  355  1  0.41702100  0.42557100  0.55586500  1
  H  357  1  0.61097800  0.54735300  0.43599700  1
  H  382  1  0.91566700  0.61042000  0.01436500  1
  H  383  1  0.95438200  0.60704000  0.96730600  1
  H  384  1  0.04681500  0.54968600  0.90407900  1
  H  385  1  0.08284800  0.50171200  0.89386000  1
  H  386  1  0.04097400  0.45152600  0.97857100  1
  H  387  1  0.95024800  0.51579600  0.05045500  1
  H  388  1  0.04097500  0.55028200  0.02339300  1
  H  389  1  0.08291700  0.50004200  0.10803800  1
  H  390  1  0.04686300  0.45208400  0.09783100  1
  H  391  1  0.95026100  0.48601700  0.95149200  1
  H  392  1  0.95438800  0.39476500  0.03463500  1
  H  393  1  0.91568500  0.39138300  0.98756600  1
  H  396  1  0.98480600  0.56198000  0.92815000  1
  H  397  1  0.01586300  0.58176300  0.95437000  1
  H  399  1  0.01586500  0.42004000  0.04756600  1
  H  400  1  0.98481800  0.43981800  0.07380000  1
  H  402  1  0.08482300  0.42555800  0.94599100  1
  H  404  1  0.89087500  0.54736300  0.06585500  1
  H  406  1  0.08478800  0.57626200  0.05597700  1
  H  408  1  0.89092100  0.45443200  0.93603700  1
  H  415  1  0.89893700  0.91431600  0.14501900  1
  H  420  1  0.83272800  0.73611300  0.09299400  1
  H  421  1  0.80872800  0.75852700  0.06218300  1
  H  422  1  0.80231500  0.76642900  0.10652000  1
  H  424  1  0.94319700  0.91028800  0.09372400  1
  H  425  1  0.92688000  0.89508600  0.05463300  1
  H  427  1  0.83468500  0.80239900  0.15603600  1
  H  428  1  0.79863100  0.82543700  0.14166300  1
  H  435  1  0.60323200  0.08735200  0.64494000  1
  H  440  1  0.67082600  0.26588200  0.59439900  1
  H  441  1  0.69367500  0.24348500  0.56271700  1
  H  442  1  0.70076400  0.23460800  0.60675400  1
  H  444  1  0.55868100  0.09157600  0.59374900  1
  H  445  1  0.57502100  0.10667300  0.55462300  1
  H  447  1  0.66695100  0.19960500  0.65615600  1
  H  448  1  0.70304100  0.17668200  0.64167400  1
  H  455  1  0.33247400  0.63861000  0.40883600  1
  H  460  1  0.47803400  0.55182900  0.30940500  1
  H  461  1  0.46357800  0.58223700  0.27948100  1
  H  462  1  0.43377400  0.55777600  0.30371200  1
  H  464  1  0.31690900  0.68775700  0.37334600  1
  H  465  1  0.34684000  0.70276800  0.34347000  1
  H  467  1  0.45331300  0.58808000  0.39842900  1
  H  468  1  0.42978500  0.55814600  0.37398000  1
  H  475  1  0.16957600  0.36343000  0.90856800  1
  H  480  1  0.02435600  0.44982300  0.80878400  1
  H  481  1  0.03885200  0.41897700  0.77932700  1
  H  482  1  0.06862000  0.44339900  0.80364800  1
  H  484  1  0.18476400  0.31393200  0.87329100  1
  H  485  1  0.15487500  0.29904500  0.84331900  1
  H  487  1  0.04847700  0.41359600  0.89866500  1
  H  488  1  0.07185000  0.44354500  0.87409700  1
  H  495  1  0.60293300  0.91432900  0.35684300  1
  H  500  1  0.66912800  0.73611000  0.40883600  1
  H  501  1  0.69312000  0.75851400  0.43966000  1
  H  502  1  0.69954300  0.76642900  0.39532600  1
  H  504  1  0.55866400  0.91029100  0.40813300  1
  H  505  1  0.57498000  0.89508800  0.44722600  1
  H  507  1  0.66717300  0.80240400  0.34581600  1
  H  508  1  0.70322700  0.82543700  0.36019500  1
  H  515  1  0.89862100  0.08734800  0.85691300  1
  H  520  1  0.83103000  0.26587900  0.90745100  1
  H  521  1  0.80818300  0.24348500  0.93913600  1
  H  522  1  0.80109100  0.23460600  0.89509900  1
  H  524  1  0.94317400  0.09157400  0.90810400  1
  H  525  1  0.92683500  0.10667100  0.94722700  1
  H  527  1  0.83489900  0.19960100  0.84569700  1
  H  528  1  0.79881000  0.17667800  0.86018400  1
  H  535  1  0.16937700  0.63862000  0.09301600  1
  H  540  1  0.02381500  0.55182900  0.19244700  1
  H  541  1  0.03827500  0.58223200  0.22237700  1
  H  542  1  0.06807600  0.55776900  0.19814200  1
  H  544  1  0.18494500  0.68776200  0.12851100  1
  H  545  1  0.15501600  0.70277100  0.15838700  1
  H  547  1  0.04854300  0.58807700  0.10343400  1
  H  548  1  0.07207500  0.55814600  0.12788000  1
  H  555  1  0.33227500  0.36343700  0.59328500  1
  H  560  1  0.47750300  0.44982000  0.69306600  1
  H  561  1  0.46300900  0.41897700  0.72252300  1
  H  562  1  0.43324100  0.44340200  0.69820800  1
  H  564  1  0.31709300  0.31393200  0.62855400  1
  H  565  1  0.34698000  0.29904800  0.65852900  1
  H  567  1  0.45337400  0.41360100  0.60318800  1
  H  568  1  0.43000100  0.44355000  0.62775900  1
  H  575  1  0.10414300  0.07728100  0.84668900  1
  H  580  1  0.16002100  0.25658800  0.90448700  1
  H  581  1  0.18255500  0.23520700  0.93706400  1
  H  582  1  0.19274600  0.22771100  0.89337000  1
  H  584  1  0.06713000  0.06285800  0.89593500  1
  H  585  1  0.05666400  0.10105500  0.91742100  1
  H  587  1  0.16685600  0.19080000  0.84292700  1
  H  588  1  0.20224500  0.16743300  0.85840500  1
  H  595  1  0.39759200  0.92471600  0.34665200  1
  H  600  1  0.33966700  0.74539600  0.40384800  1
  H  601  1  0.31826300  0.76706900  0.43698300  1
  H  602  1  0.30760000  0.77529400  0.39354400  1
  H  604  1  0.43463300  0.93926100  0.39586400  1
  H  605  1  0.44529100  0.90108400  0.41728900  1
  H  607  1  0.33513700  0.81103800  0.34292200  1
  H  608  1  0.29975900  0.83435400  0.35851500  1
  H  615  1  0.67371900  0.36234600  0.61081500  1
  H  620  1  0.54862500  0.47362900  0.69496000  1
  H  621  1  0.55075900  0.43669800  0.72068300  1
  H  622  1  0.58726400  0.45059500  0.69725700  1
  H  624  1  0.66440700  0.30794900  0.65443000  1
  H  625  1  0.64823800  0.32081400  0.69446300  1
  H  627  1  0.55426900  0.41334600  0.59398100  1
  H  628  1  0.57418000  0.44997100  0.61133500  1
  H  635  1  0.82815200  0.63964000  0.11068100  1
  H  640  1  0.95317900  0.52788300  0.19446300  1
  H  641  1  0.95004400  0.56448800  0.22054900  1
  H  642  1  0.91425200  0.55048100  0.19610800  1
  H  644  1  0.83736200  0.69397600  0.15430700  1
  H  645  1  0.85355600  0.68117000  0.19435200  1
  H  647  1  0.94751800  0.58842100  0.09409400  1
  H  648  1  0.92754300  0.55182400  0.11143600  1
  H  655  1  0.39772800  0.07728800  0.65517400  1
  H  660  1  0.34182600  0.25658800  0.59737400  1
  H  661  1  0.31929200  0.23520300  0.56479900  1
  H  662  1  0.30910400  0.22770800  0.60849300  1
  H  664  1  0.43474000  0.06286900  0.60592600  1
  H  665  1  0.44520200  0.10106700  0.58444000  1
  H  667  1  0.33499700  0.19079900  0.65893700  1
  H  668  1  0.29961100  0.16742600  0.64345900  1
  H  675  1  0.10426400  0.92471600  0.15520500  1
  H  680  1  0.16219100  0.74539600  0.09801200  1
  H  681  1  0.18359300  0.76706900  0.06487400  1
  H  682  1  0.19425700  0.77529700  0.10831300  1
  H  684  1  0.06722100  0.93926100  0.10599500  1
  H  685  1  0.05656600  0.90108400  0.08457000  1
  H  687  1  0.16671700  0.81103800  0.15893800  1
  H  688  1  0.20209800  0.83435100  0.14334200  1
  H  695  1  0.82813900  0.36234600  0.89103800  1
  H  700  1  0.95323300  0.47362100  0.80689300  1
  H  701  1  0.95110400  0.43668500  0.78117800  1
  H  702  1  0.91459600  0.45058500  0.80459900  1
  H  704  1  0.83745900  0.30794600  0.84742800  1
  H  705  1  0.85362800  0.32081200  0.80739500  1
  H  707  1  0.94758900  0.41333600  0.90789000  1
  H  708  1  0.92768600  0.44996600  0.89052800  1
  H  715  1  0.67370300  0.63963500  0.39117900  1
  H  720  1  0.54866900  0.52788300  0.30739600  1
  H  721  1  0.55181400  0.56448300  0.28130600  1
  H  722  1  0.58759800  0.55047300  0.30575200  1
  H  724  1  0.66449900  0.69397600  0.34755700  1
  H  725  1  0.64830400  0.68117200  0.30751100  1
  H  727  1  0.55433800  0.58840900  0.40775300  1
  H  728  1  0.57431700  0.55181700  0.39041200  1
  C  1  1  0.02067800  0.03176300  0.99925900  1
  C  2  1  0.02089400  0.05657800  0.02563600  1
  C  3  1  0.97461400  0.02489500  0.05716200  1
  C  4  1  0.97427000  0.99898400  0.03185100  1
  C  5  1  0.95145100  0.97111200  0.03640800  1
  C  6  1  0.92954900  0.96901200  0.06495000  1
  C  7  1  0.93017900  0.99520800  0.08933900  1
  C  8  1  0.95255500  0.02278000  0.08557300  1
  C  9  1  0.04398100  0.08421900  0.02433600  1
  C  10  1  0.06716300  0.08741300  0.99736200  1
  C  11  1  0.06713900  0.06355200  0.97067600  1
  C  12  1  0.04381700  0.03614400  0.97163700  1
  C  13  1  0.02070100  0.97012800  0.00256100  1
  C  14  1  0.02096300  0.94530800  0.97619000  1
  C  15  1  0.97469900  0.97696200  0.94460700  1
  C  16  1  0.97430100  0.00286600  0.96992400  1
  C  17  1  0.95267500  0.97906800  0.91616400  1
  C  18  1  0.93027300  0.00661800  0.91238400  1
  C  19  1  0.92957000  0.03279300  0.93679400  1
  C  20  1  0.95144800  0.03071000  0.96535400  1
  C  21  1  0.04381000  0.96576700  0.03021200  1
  C  22  1  0.06715100  0.93837700  0.03120000  1
  C  23  1  0.06721900  0.91451000  0.00452100  1
  C  24  1  0.04405700  0.91767600  0.97752500  1
  C  37  1  0.99737800  0.00093600  0.00089800  1
  C  38  1  0.99782100  0.94721400  0.94647300  1
  C  41  1  0.99771700  0.05465900  0.05532200  1
  C  52  1  0.48115400  0.97012800  0.49929600  1
  C  53  1  0.48089100  0.94531000  0.52566800  1
  C  54  1  0.52715700  0.97696200  0.55724600  1
  C  55  1  0.52755700  0.00286600  0.53193100  1
  C  56  1  0.55040500  0.03071200  0.53649900  1
  C  57  1  0.57228300  0.03279500  0.56505900  1
  C  58  1  0.57158700  0.00661700  0.58946400  1
  C  59  1  0.54918600  0.97906800  0.58568600  1
  C  60  1  0.45779400  0.91767800  0.52433300  1
  C  61  1  0.43464100  0.91450500  0.49733300  1
  C  62  1  0.43470200  0.93837700  0.47065900  1
  C  63  1  0.45803900  0.96577200  0.47165100  1
  C  64  1  0.48117900  0.03176200  0.50259700  1
  C  65  1  0.48096000  0.05657700  0.47621900  1
  C  66  1  0.52724100  0.02489400  0.44469200  1
  C  67  1  0.52758300  0.99898100  0.47000200  1
  C  68  1  0.54929800  0.02277700  0.41628000  1
  C  69  1  0.57167700  0.99520600  0.41251500  1
  C  70  1  0.57231400  0.96901700  0.43690900  1
  C  71  1  0.55040200  0.97110900  0.46544600  1
  C  72  1  0.45803600  0.03614300  0.53021600  1
  C  73  1  0.43472500  0.06355900  0.53118500  1
  C  74  1  0.43469900  0.08741800  0.50449600  1
  C  75  1  0.45787300  0.08421700  0.47751900  1
  C  88  1  0.50447800  0.00093500  0.50095500  1
  C  89  1  0.50413900  0.05465800  0.44653200  1
  C  92  1  0.50403400  0.94721400  0.55538300  1
  C  103  1  0.22010500  0.77891700  0.24832100  1
  C  104  1  0.19360000  0.77775200  0.27297300  1
  C  105  1  0.22451900  0.73152700  0.30541800  1
  C  106  1  0.25191200  0.73255900  0.28178800  1
  C  107  1  0.28039100  0.71088400  0.28779100  1
  C  108  1  0.28208100  0.68894200  0.31633000  1
  C  109  1  0.25396600  0.68764200  0.33858100  1
  C  110  1  0.22567400  0.70883200  0.33337400  1
  C  111  1  0.16535600  0.79995700  0.27016700  1
  C  112  1  0.16323400  0.82355400  0.24342700  1
  C  113  1  0.18901500  0.82504200  0.21863300  1
  C  114  1  0.21703300  0.80260800  0.22103300  1
  C  115  1  0.28175200  0.77891400  0.25353400  1
  C  116  1  0.30825700  0.77775200  0.22888100  1
  C  117  1  0.27733700  0.73152900  0.19643500  1
  C  118  1  0.24994400  0.73255900  0.22006700  1
  C  119  1  0.27618000  0.70883700  0.16847800  1
  C  120  1  0.24788900  0.68764700  0.16326900  1
  C  121  1  0.21977600  0.68894200  0.18552500  1
  C  122  1  0.22146800  0.71088200  0.21406700  1
  C  123  1  0.28482600  0.80260500  0.28082700  1
  C  124  1  0.31284600  0.82503700  0.28322500  1
  C  125  1  0.33862500  0.82355100  0.25843100  1
  C  126  1  0.33650400  0.79995400  0.23169000  1
  C  139  1  0.25092900  0.75577400  0.25092700  1
  C  140  1  0.30767900  0.75372900  0.19976900  1
  C  143  1  0.19417400  0.75372400  0.30208100  1
  C  154  1  0.28175200  0.22300000  0.74834300  1
  C  155  1  0.30825500  0.22418800  0.77299500  1
  C  156  1  0.27730700  0.27040400  0.80542400  1
  C  157  1  0.24992300  0.26935900  0.78178400  1
  C  158  1  0.22143200  0.29102100  0.78778000  1
  C  159  1  0.21970800  0.31293800  0.81633700  1
  C  160  1  0.24781000  0.31424300  0.83860600  1
  C  161  1  0.27612600  0.29308500  0.83339000  1
  C  162  1  0.33650600  0.20198900  0.77020400  1
  C  163  1  0.33863200  0.17837000  0.74348400  1
  C  164  1  0.31284300  0.17684600  0.71870000  1
  C  165  1  0.28482100  0.19927900  0.72108100  1
  C  166  1  0.22010100  0.22300300  0.75351500  1
  C  167  1  0.19359600  0.22418800  0.72886300  1
  C  168  1  0.22454700  0.27039600  0.69642600  1
  C  169  1  0.25193300  0.26935300  0.72006400  1
  C  170  1  0.22572900  0.29307500  0.66845700  1
  C  171  1  0.25404600  0.31422700  0.66323700  1
  C  172  1  0.28214500  0.31293000  0.68550800  1
  C  173  1  0.28042700  0.29100800  0.71406300  1
  C  174  1  0.21702900  0.19928800  0.78078300  1
  C  175  1  0.18901300  0.17685000  0.78316300  1
  C  176  1  0.16322400  0.17837000  0.75837900  1
  C  177  1  0.16534500  0.20198900  0.73165900  1
  C  190  1  0.25092700  0.24614300  0.75092800  1
  C  191  1  0.19418300  0.24822400  0.69976300  1
  C  194  1  0.30766900  0.24822700  0.80209300  1
  C  205  1  0.78174100  0.22816000  0.75405300  1
  C  206  1  0.80814200  0.22877000  0.72928100  1
  C  207  1  0.77711700  0.27430900  0.69584000  1
  C  208  1  0.75020100  0.27445700  0.72004300  1
  C  209  1  0.72261500  0.29744700  0.71475400  1
  C  210  1  0.72171300  0.31982500  0.68656900  1
  C  211  1  0.74869700  0.31919300  0.66303600  1
  C  212  1  0.77600800  0.29657500  0.66751400  1
  C  213  1  0.83670200  0.20707900  0.73284700  1
  C  214  1  0.83939900  0.18474500  0.76061200  1
  C  215  1  0.81369400  0.18366700  0.78551400  1
  C  216  1  0.78510800  0.20529200  0.78205700  1
  C  217  1  0.72011200  0.22816500  0.74780300  1
  C  218  1  0.69370900  0.22877800  0.77257200  1
  C  219  1  0.72474100  0.27431100  0.80601600  1
  C  220  1  0.75165900  0.27445400  0.78181500  1
  C  221  1  0.72584700  0.29658000  0.83433900  1
  C  222  1  0.75316300  0.31919600  0.83882000  1
  C  223  1  0.78015300  0.31981800  0.81529200  1
  C  224  1  0.77925300  0.29743400  0.78710900  1
  C  225  1  0.71674200  0.20529600  0.71979800  1
  C  226  1  0.68815400  0.18367500  0.71634200  1
  C  227  1  0.66244900  0.18475500  0.74124400  1
  C  228  1  0.66514900  0.20709100  0.76900600  1
  C  241  1  0.75092800  0.25125500  0.75092800  1
  C  242  1  0.69474600  0.25162500  0.80262800  1
  C  245  1  0.80710700  0.25161700  0.69922500  1
  C  256  1  0.72011700  0.77375500  0.25408100  1
  C  257  1  0.69368300  0.77312500  0.22934400  1
  C  258  1  0.72468200  0.72759400  0.19587500  1
  C  259  1  0.75162900  0.72746100  0.22004400  1
  C  260  1  0.77921700  0.70448100  0.21472400  1
  C  261  1  0.78009200  0.68210000  0.18653900  1
  C  262  1  0.75307700  0.68271400  0.16304200  1
  C  263  1  0.72576300  0.70532700  0.16755000  1
  C  264  1  0.66512100  0.79481000  0.23293300  1
  C  265  1  0.66245900  0.81717100  0.26067900  1
  C  266  1  0.68820300  0.81827700  0.28554300  1
  C  267  1  0.71678300  0.79664300  0.28207300  1
  C  268  1  0.78174400  0.77375500  0.24778200  1
  C  269  1  0.80817500  0.77312800  0.27252200  1
  C  270  1  0.77717300  0.72759600  0.30599100  1
  C  271  1  0.75022900  0.72746100  0.28182100  1
  C  272  1  0.77609200  0.70533000  0.33431700  1
  C  273  1  0.74877900  0.68271700  0.33882300  1
  C  274  1  0.72176900  0.68209800  0.31532100  1
  C  275  1  0.72264100  0.70448100  0.28714100  1
  C  276  1  0.78508000  0.79663800  0.21978800  1
  C  277  1  0.81366300  0.81826400  0.21631300  1
  C  278  1  0.83940100  0.81716600  0.24118000  1
  C  279  1  0.83673500  0.79481300  0.26893300  1
  C  292  1  0.75093000  0.75066300  0.25093200  1
  C  293  1  0.80716800  0.75027500  0.30257300  1
  C  296  1  0.69468500  0.75026800  0.19929500  1
  C  307  1  0.52766900  0.53170700  0.49736100  1
  C  308  1  0.52644600  0.55889800  0.52126600  1
  C  309  1  0.47985100  0.52917100  0.55422100  1
  C  310  1  0.48125800  0.50089400  0.53169200  1
  C  311  1  0.45987100  0.47245100  0.53879300  1
  C  312  1  0.43768900  0.47168400  0.56721600  1
  C  313  1  0.43546200  0.50103100  0.58778400  1
  C  314  1  0.45657600  0.52919400  0.58170200  1
  C  315  1  0.54824000  0.58733600  0.51744800  1
  C  316  1  0.57096000  0.58938800  0.48996800  1
  C  317  1  0.57202800  0.56328500  0.46549200  1
  C  318  1  0.55057300  0.53464100  0.46938000  1
  C  319  1  0.52766700  0.47010300  0.50439600  1
  C  320  1  0.52644300  0.44291200  0.48049400  1
  C  321  1  0.47983800  0.47263000  0.44754900  1
  C  322  1  0.48125600  0.50091400  0.47006800  1
  C  323  1  0.45654200  0.47259400  0.42008500  1
  C  324  1  0.43542100  0.50074900  0.41401100  1
  C  325  1  0.43766600  0.53011100  0.43455900  1
  C  326  1  0.45987100  0.52935700  0.46296100  1
  C  327  1  0.55056500  0.46716700  0.53238300  1
  C  328  1  0.57201100  0.43851800  0.53627500  1
  C  329  1  0.57095000  0.41241800  0.51179600  1
  C  330  1  0.54823800  0.41447200  0.48431500  1
  C  343  1  0.50458700  0.50090700  0.50087900  1
  C  344  1  0.50224200  0.44254300  0.45154100  1
  C  347  1  0.50225000  0.55926000  0.55022400  1
  C  358  1  0.97418400  0.47010600  0.99746400  1
  C  359  1  0.97540700  0.44291500  0.02136900  1
  C  360  1  0.02201900  0.47263000  0.05430800  1
  C  361  1  0.02059800  0.50091700  0.03179200  1
  C  362  1  0.04198200  0.52935900  0.03889800  1
  C  363  1  0.06418700  0.53011400  0.06730100  1
  C  364  1  0.06643900  0.50074900  0.08784500  1
  C  365  1  0.04531600  0.47259600  0.08177000  1
  C  366  1  0.95360700  0.41448000  0.01755300  1
  C  367  1  0.93089300  0.41242600  0.99007200  1
  C  368  1  0.92983700  0.43852300  0.96558800  1
  C  369  1  0.95128800  0.46716700  0.96947600  1
  C  370  1  0.97418600  0.53171000  0.00449400  1
  C  371  1  0.97540700  0.55889600  0.98058200  1
  C  372  1  0.02201000  0.52917100  0.94763800  1
  C  373  1  0.02059900  0.50089100  0.97016600  1
  C  374  1  0.04529300  0.52919100  0.92016400  1
  C  375  1  0.06640800  0.50102900  0.91408700  1
  C  376  1  0.06416100  0.47167400  0.93464200  1
  C  377  1  0.04198200  0.47244600  0.96306500  1
  C  378  1  0.95128300  0.53464600  0.03247600  1
  C  379  1  0.92982500  0.56329000  0.03635500  1
  C  380  1  0.93089800  0.58939000  0.01187900  1
  C  381  1  0.95361800  0.58733600  0.98440000  1
  C  394  1  0.99726800  0.50090700  0.00098000  1
  C  395  1  0.99961100  0.55926000  0.95162900  1
  C  398  1  0.99961600  0.44254300  0.05031500  1
  C  409  1  0.84660500  0.84913100  0.13341200  1
  C  411  1  0.88690300  0.89521100  0.13204000  1
  C  412  1  0.89455600  0.88826200  0.09764300  1
  C  414  1  0.85352300  0.84258200  0.09843800  1
  C  416  1  0.83702800  0.81746900  0.07999200  1
  C  419  1  0.82131300  0.76070300  0.08696600  1
  C  423  1  0.92005700  0.90824400  0.07825300  1
  C  426  1  0.82328600  0.82780000  0.15448000  1
  C  429  1  0.65512800  0.15290500  0.63341300  1
  C  431  1  0.61512300  0.10656300  0.63198500  1
  C  432  1  0.60731800  0.11359800  0.59764200  1
  C  434  1  0.64803400  0.15957200  0.59849000  1
  C  436  1  0.66423600  0.18482700  0.58004500  1
  C  439  1  0.68152700  0.24114500  0.58770000  1
  C  443  1  0.58183000  0.09357200  0.57828100  1
  C  446  1  0.67840900  0.17423700  0.65451400  1
  C  449  1  0.40462500  0.60407000  0.38210200  1
  C  451  1  0.35286900  0.63486100  0.39309100  1
  C  452  1  0.35686800  0.65350200  0.36270600  1
  C  454  1  0.40931600  0.62310400  0.35142400  1
  C  456  1  0.43584100  0.61995600  0.32792900  1
  C  459  1  0.45840300  0.57083300  0.30436500  1
  C  463  1  0.33260100  0.68018600  0.35156600  1
  C  466  1  0.42806200  0.57691800  0.39443700  1
  C  469  1  0.09715200  0.39769400  0.88221300  1
  C  471  1  0.14905400  0.36706500  0.89296000  1
  C  472  1  0.14486900  0.34827300  0.86269000  1
  C  474  1  0.09232000  0.37853000  0.85164700  1
  C  476  1  0.06563500  0.38144100  0.82837900  1
  C  479  1  0.04385900  0.43058500  0.80415300  1
  C  483  1  0.16912000  0.32158900  0.85150900  1
  C  486  1  0.07368800  0.42480900  0.89457800  1
  C  489  1  0.65525600  0.84913400  0.36844400  1
  C  491  1  0.61496200  0.89521800  0.36982000  1
  C  492  1  0.60730800  0.88826700  0.40421500  1
  C  494  1  0.64833200  0.84258000  0.40341700  1
  C  496  1  0.66482200  0.81745900  0.42186000  1
  C  499  1  0.68054000  0.76069800  0.41487500  1
  C  503  1  0.58180700  0.90824700  0.42360600  1
  C  506  1  0.67857500  0.82780500  0.34737600  1
  C  509  1  0.84672500  0.15290200  0.86844300  1
  C  511  1  0.88673000  0.10656100  0.86986800  1
  C  512  1  0.89453800  0.11359700  0.90420900  1
  C  514  1  0.85382100  0.15957000  0.90336300  1
  C  516  1  0.83761900  0.18482700  0.92180800  1
  C  519  1  0.82033200  0.24114400  0.91415300  1
  C  523  1  0.92002600  0.09357100  0.92357200  1
  C  526  1  0.82344100  0.17423400  0.84733900  1
  C  529  1  0.09723100  0.60407300  0.11975800  1
  C  531  1  0.14898400  0.63486600  0.10876300  1
  C  532  1  0.14498500  0.65350700  0.13915000  1
  C  534  1  0.09254200  0.62310400  0.15043600  1
  C  536  1  0.06601800  0.61995400  0.17393500  1
  C  539  1  0.04344800  0.57082800  0.19749100  1
  C  543  1  0.16925300  0.68019100  0.15028900  1
  C  546  1  0.07379400  0.57691800  0.10742300  1
  C  549  1  0.40469700  0.39769900  0.61964300  1
  C  551  1  0.35279700  0.36707200  0.60889300  1
  C  552  1  0.35698300  0.34827500  0.63916300  1
  C  554  1  0.40953200  0.37853300  0.65020600  1
  C  556  1  0.43621600  0.38144400  0.67347400  1
  C  559  1  0.45800000  0.43058500  0.69769800  1
  C  563  1  0.33273400  0.32158900  0.65034100  1
  C  566  1  0.42816100  0.42481400  0.60727700  1
  C  569  1  0.15407000  0.14328600  0.86321500  1
  C  571  1  0.11483400  0.09631100  0.86087700  1
  C  572  1  0.10457000  0.10258700  0.89468000  1
  C  574  1  0.14436000  0.14933800  0.89758100  1
  C  576  1  0.15827400  0.17509600  0.91727000  1
  C  579  1  0.17204500  0.23253000  0.91139200  1
  C  583  1  0.07737700  0.08313200  0.91211900  1
  C  586  1  0.17831400  0.16540700  0.84423200  1
  C  589  1  0.34791100  0.85854000  0.36325600  1
  C  591  1  0.38698300  0.90565700  0.36086300  1
  C  592  1  0.39735000  0.89938600  0.39463300  1
  C  594  1  0.35774000  0.85247500  0.39759000  1
  C  596  1  0.34399300  0.82674200  0.41735500  1
  C  599  1  0.32843800  0.76970900  0.41117600  1
  C  603  1  0.42449800  0.91893000  0.41204300  1
  C  606  1  0.32365400  0.83641600  0.34429100  1
  C  609  1  0.60029300  0.40313900  0.61885700  1
  C  611  1  0.65142700  0.36962100  0.62215300  1
  C  612  1  0.64108500  0.35589000  0.65367300  1
  C  614  1  0.58993300  0.38966700  0.65092200  1
  C  616  1  0.55969100  0.39677700  0.66760100  1
  C  619  1  0.55949700  0.44812300  0.69682100  1
  C  623  1  0.66154200  0.32972800  0.67162300  1
  C  626  1  0.57879100  0.42614200  0.59765900  1
  C  629  1  0.90147100  0.59868700  0.11890100  1
  C  631  1  0.85039500  0.63230900  0.12207700  1
  C  632  1  0.86070600  0.64604100  0.15360900  1
  C  634  1  0.91180000  0.61217900  0.15096500  1
  C  636  1  0.94191200  0.60494700  0.16772800  1
  C  639  1  0.94199400  0.55325200  0.19635800  1
  C  643  1  0.84024700  0.67222000  0.17152700  1
  C  646  1  0.92297800  0.57565100  0.09774000  1
  C  649  1  0.34779100  0.14328700  0.63864900  1
  C  651  1  0.38703400  0.09631800  0.64098600  1
  C  652  1  0.39729700  0.10259500  0.60718000  1
  C  654  1  0.35750100  0.14934000  0.60428200  1
  C  656  1  0.34358300  0.17509500  0.58459300  1
  C  659  1  0.32980500  0.23252800  0.59046800  1
  C  663  1  0.42449000  0.08314200  0.58974200  1
  C  666  1  0.32354400  0.16540500  0.65763200  1
  C  669  1  0.15394500  0.85854000  0.13860000  1
  C  671  1  0.11487300  0.90565700  0.14099500  1
  C  672  1  0.10450600  0.89938600  0.10722400  1
  C  674  1  0.14411400  0.85247300  0.10426800  1
  C  676  1  0.15786200  0.82674200  0.08450200  1
  C  679  1  0.17341800  0.76970900  0.09068100  1
  C  683  1  0.07735900  0.91893000  0.08981500  1
  C  686  1  0.17820100  0.83641600  0.15756600  1
  C  689  1  0.90156800  0.40313400  0.88300300  1
  C  691  1  0.85043400  0.36962100  0.87970500  1
  C  692  1  0.86077800  0.35588700  0.84818300  1
  C  694  1  0.91193000  0.38966200  0.85093800  1
  C  696  1  0.94217200  0.39677200  0.83426500  1
  C  699  1  0.94236400  0.44811300  0.80503700  1
  C  703  1  0.84032100  0.32972600  0.83023500  1
  C  706  1  0.92307000  0.42613700  0.90420600  1
  C  709  1  0.60038700  0.59868200  0.38295100  1
  C  711  1  0.65146000  0.63230400  0.37978200  1
  C  712  1  0.64115200  0.64604100  0.34825200  1
  C  714  1  0.59005800  0.61217600  0.35088800  1
  C  716  1  0.55994800  0.60494700  0.33412300  1
  C  719  1  0.55985900  0.55324900  0.30549900  1
  C  723  1  0.66161300  0.67222200  0.33033500  1
  C  726  1  0.57888000  0.57564300  0.40410800  1
  N  44  1  0.90588600  0.05942200  0.93154000  1
  N  46  1  0.09098600  0.93354900  0.05772900  1
  N  48  1  0.90589100  0.94236100  0.07019500  1
  N  50  1  0.09098900  0.06841900  0.94416600  1
  N  95  1  0.59596900  0.94236400  0.43166300  1
  N  97  1  0.41087800  0.06842700  0.55769500  1
  N  99  1  0.59596900  0.05942300  0.57031300  1
  N  101  1  0.41086800  0.93354600  0.44412800  1
  N  146  1  0.19126700  0.66767200  0.17853500  1
  N  148  1  0.31638100  0.84942200  0.30943300  1
  N  150  1  0.31058700  0.66767000  0.32332000  1
  N  152  1  0.18547600  0.84942400  0.19242300  1
  N  197  1  0.31066900  0.33417600  0.67851600  1
  N  199  1  0.18549000  0.15243400  0.80934200  1
  N  201  1  0.19118100  0.33417900  0.82333200  1
  N  203  1  0.31636900  0.15243100  0.69252100  1
  N  248  1  0.80651000  0.34378900  0.82074400  1
  N  250  1  0.68401200  0.16019000  0.68930900  1
  N  252  1  0.69535300  0.34379200  0.68111100  1
  N  254  1  0.81783600  0.16018500  0.81254900  1
  N  299  1  0.69540600  0.65814100  0.32081200  1
  N  301  1  0.81776200  0.84178700  0.18930800  1
  N  303  1  0.80645200  0.65814100  0.18105000  1
  N  305  1  0.68410400  0.84179500  0.31255000  1
  N  350  1  0.41721300  0.55896700  0.42621100  1
  N  352  1  0.59447300  0.43415400  0.56405000  1
  N  354  1  0.41724100  0.44282800  0.57556400  1
  N  356  1  0.59451900  0.56763400  0.43773800  1
  N  401  1  0.08460800  0.44281800  0.92629400  1
  N  403  1  0.90733700  0.56764400  0.06411200  1
  N  405  1  0.08464100  0.55896900  0.07564600  1
  N  407  1  0.90738000  0.43415100  0.93780800  1
  N  410  1  0.86384400  0.87531000  0.14838500  1
  N  413  1  0.87727500  0.86235800  0.08250200  1
  N  430  1  0.63810600  0.12655000  0.64833000  1
  N  433  1  0.62437400  0.13968400  0.58256100  1
  N  450  1  0.37652400  0.61109600  0.40123000  1
  N  453  1  0.38480100  0.64648900  0.34353400  1
  N  470  1  0.12540400  0.39081400  0.90117300  1
  N  473  1  0.11679100  0.35513800  0.84367300  1
  N  490  1  0.63802100  0.87531800  0.35347300  1
  N  493  1  0.62458300  0.86235800  0.41935400  1
  N  510  1  0.86374700  0.12654700  0.85352300  1
  N  513  1  0.87748400  0.13968400  0.91928900  1
  N  530  1  0.12532900  0.61110300  0.10062500  1
  N  533  1  0.11705500  0.64649200  0.15832500  1
  N  550  1  0.37644500  0.39082000  0.60068300  1
  N  553  1  0.38506100  0.35514000  0.65817700  1
  N  570  1  0.13863000  0.11693000  0.84665800  1
  N  573  1  0.11989700  0.12884100  0.91131800  1
  N  590  1  0.36322600  0.88496300  0.34668500  1
  N  593  1  0.38214800  0.87306900  0.41127800  1
  N  610  1  0.63069800  0.39215000  0.60616800  1
  N  613  1  0.61072100  0.36661300  0.66646200  1
  N  630  1  0.87111700  0.60973900  0.10614100  1
  N  633  1  0.89102500  0.63526600  0.16646200  1
  N  650  1  0.36323300  0.11693300  0.65520500  1
  N  653  1  0.38196400  0.12884600  0.59054500  1
  N  670  1  0.13862900  0.88496300  0.15517200  1
  N  673  1  0.11971000  0.87306900  0.09057900  1
  N  690  1  0.87116000  0.39214800  0.89569000  1
  N  693  1  0.89114200  0.36661100  0.83539900  1
  N  710  1  0.63073900  0.60973400  0.39571400  1
  N  713  1  0.61083600  0.63526800  0.33539500  1
  O  417  1  0.83076500  0.82405800  0.05012800  1
  O  418  1  0.84808100  0.78581400  0.08625400  1
  O  437  1  0.66950300  0.17922800  0.54977500  1
  O  438  1  0.65415200  0.21668400  0.58705500  1
  O  457  1  0.44592500  0.64606600  0.31413300  1
  O  458  1  0.45972900  0.59588300  0.33110500  1
  O  477  1  0.05457700  0.35506400  0.81589600  1
  O  478  1  0.04199900  0.40582600  0.83112700  1
  O  497  1  0.67108000  0.82404000  0.45172700  1
  O  498  1  0.65377200  0.78580900  0.41558600  1
  O  517  1  0.83235800  0.17922800  0.95208100  1
  O  518  1  0.84770400  0.21668400  0.91479500  1
  O  537  1  0.05594000  0.64605900  0.18774100  1
  O  538  1  0.04212900  0.59588300  0.17075600  1
  O  557  1  0.44727100  0.35506600  0.68595900  1
  O  558  1  0.45985400  0.40582600  0.67072400  1
  O  577  1  0.16218200  0.16878100  0.94758700  1
  O  578  1  0.14644000  0.20626300  0.91003400  1
  O  597  1  0.34109700  0.83227600  0.44795500  1
  O  598  1  0.35476000  0.79525900  0.40967000  1
  O  617  1  0.53757500  0.37508200  0.66446600  1
  O  618  1  0.54817400  0.42884700  0.66779200  1
  O  637  1  0.96428000  0.62644900  0.16498000  1
  O  638  1  0.95379400  0.57298900  0.16783100  1
  O  657  1  0.33967200  0.16877900  0.55427700  1
  O  658  1  0.35541300  0.20626500  0.59182700  1
  O  677  1  0.16075800  0.83227600  0.05390400  1
  O  678  1  0.14709700  0.79525900  0.09218800  1
  O  697  1  0.96429100  0.37507900  0.83740800  1
  O  698  1  0.95368700  0.42884200  0.83406800  1
  O  717  1  0.53758300  0.62645100  0.33686300  1
  O  718  1  0.54805900  0.57299200  0.33402400  1
