# generated using pymatgen
data_Co3H8C14(NO)6
_symmetry_space_group_name_H-M   'P 1'
_cell_length_a   10.69446474
_cell_length_b   10.73290461
_cell_length_c   10.91077079
_cell_angle_alpha   90.50634015
_cell_angle_beta   119.03156853
_cell_angle_gamma   92.16431694
_symmetry_Int_Tables_number   1
_chemical_formula_structural   Co3H8C14(NO)6
_chemical_formula_sum   'Co6 H16 C28 N12 O12'
_cell_volume   1093.70039576
_cell_formula_units_Z   2
loop_
 _symmetry_equiv_pos_site_id
 _symmetry_equiv_pos_as_xyz
  1  'x, y, z'
loop_
 _atom_site_type_symbol
 _atom_site_label
 _atom_site_symmetry_multiplicity
 _atom_site_fract_x
 _atom_site_fract_y
 _atom_site_fract_z
 _atom_site_occupancy
  Co  Co1  1  0.08425121  0.25183366  0.09165910  1.0
  Co  Co2  1  0.98458863  0.00383332  0.14843689  1.0
  Co  Co3  1  0.83746065  0.49640249  0.99161538  1.0
  Co  Co4  1  0.91574857  0.74816628  0.90834076  1.0
  Co  Co5  1  0.01541137  0.99616681  0.85156309  1.0
  Co  Co6  1  0.16253953  0.50359737  0.00838474  1.0
  H  H1  1  0.21545067  0.06398143  0.13846811  1.0
  H  H2  1  0.11500871  0.45221369  0.21345806  1.0
  H  H3  1  0.47393889  0.09261587  0.20733019  1.0
  H  H4  1  0.66047065  0.98523907  0.17690165  1.0
  H  H5  1  0.56840968  0.44018044  0.06622655  1.0
  H  H6  1  0.16107804  0.52662569  0.67496063  1.0
  H  H7  1  0.16376381  0.42726407  0.46896402  1.0
  H  H8  1  0.06401138  0.06221013  0.57251990  1.0
  H  H9  1  0.78454914  0.93601864  0.86153178  1.0
  H  H10  1  0.88499125  0.54778623  0.78654176  1.0
  H  H11  1  0.52606110  0.90738413  0.79266981  1.0
  H  H12  1  0.33952934  0.01476093  0.82309835  1.0
  H  H13  1  0.43159032  0.55981956  0.93377344  1.0
  H  H14  1  0.83892195  0.47337430  0.32503936  1.0
  H  H15  1  0.83623619  0.57273593  0.53103597  1.0
  H  H16  1  0.93598861  0.93778986  0.42748009  1.0
  C  C1  1  0.69417680  0.28267918  0.07361314  1.0
  C  C2  1  0.71940120  0.15465417  0.10339240  1.0
  C  C3  1  0.53720085  0.14337242  0.16867847  1.0
  C  C4  1  0.64064059  0.08322875  0.15246451  1.0
  C  C5  1  0.50934681  0.27119586  0.13621231  1.0
  C  C6  1  0.58842381  0.34235619  0.08938628  1.0
  C  C7  1  0.38569807  0.32661800  0.14234232  1.0
  C  C8  1  0.08221255  0.21776189  0.70932300  1.0
  C  C9  1  0.10905354  0.34817921  0.73816858  1.0
  C  C10  1  0.14023332  0.42656122  0.65304738  1.0
  C  C11  1  0.14173964  0.37067971  0.53922686  1.0
  C  C12  1  0.11368759  0.23998640  0.50884134  1.0
  C  C13  1  0.08517612  0.16196408  0.59442737  1.0
  C  C14  1  0.10638819  0.18825418  0.37729016  1.0
  C  C15  1  0.30582318  0.71732078  0.92638686  1.0
  C  C16  1  0.28059880  0.84534583  0.89660762  1.0
  C  C17  1  0.46279914  0.85662759  0.83132152  1.0
  C  C18  1  0.35935942  0.91677127  0.84753549  1.0
  C  C19  1  0.49065319  0.72880411  0.86378770  1.0
  C  C20  1  0.41157619  0.65764378  0.91061372  1.0
  C  C21  1  0.61430182  0.67338193  0.85765777  1.0
  C  C22  1  0.91778743  0.78223808  0.29067701  1.0
  C  C23  1  0.89094643  0.65182083  0.26183146  1.0
  C  C24  1  0.85976667  0.57343880  0.34695260  1.0
  C  C25  1  0.85826036  0.62932031  0.46077315  1.0
  C  C26  1  0.88631241  0.76001358  0.49115865  1.0
  C  C27  1  0.91482388  0.83803591  0.40557262  1.0
  C  C28  1  0.89361180  0.81174578  0.62270982  1.0
  N  N1  1  0.82946357  0.12669557  0.07942613  1.0
  N  N2  1  0.87025610  0.23105466  0.03955345  1.0
  N  N3  1  0.79123071  0.32644719  0.03399084  1.0
  N  N4  1  0.05692933  0.16861757  0.81169007  1.0
  N  N5  1  0.06687348  0.26370344  0.89605885  1.0
  N  N6  1  0.09786418  0.37200868  0.85550864  1.0
  N  N7  1  0.17053646  0.87330443  0.92057375  1.0
  N  N8  1  0.12974439  0.76894531  0.96044651  1.0
  N  N9  1  0.20876933  0.67355275  0.96600919  1.0
  N  N10  1  0.94307067  0.83138241  0.18830996  1.0
  N  N11  1  0.93312637  0.73629651  0.10394131  1.0
  N  N12  1  0.90213579  0.62799141  0.14449144  1.0
  O  O1  1  0.11193900  0.06472918  0.07881979  1.0
  O  O2  1  0.06883030  0.44036806  0.11183921  1.0
  O  O3  1  0.36082757  0.44096972  0.10794310  1.0
  O  O4  1  0.31012414  0.25554499  0.17562445  1.0
  O  O5  1  0.07459326  0.07125702  0.34773604  1.0
  O  O6  1  0.12822276  0.26508746  0.30120218  1.0
  O  O7  1  0.88806119  0.93527138  0.92118036  1.0
  O  O8  1  0.93116984  0.55963160  0.88816091  1.0
  O  O9  1  0.63917231  0.55903032  0.89205686  1.0
  O  O10  1  0.68987563  0.74445502  0.82437548  1.0
  O  O11  1  0.92540682  0.92874297  0.65226407  1.0
  O  O12  1  0.87177733  0.73491260  0.69879768  1.0
