# generated using pymatgen
data_H38C55(N3O2)2
_symmetry_space_group_name_H-M   'P 1'
_cell_length_a   26.56630000
_cell_length_b   26.56630000
_cell_length_c   41.59370000
_cell_angle_alpha   90.00000000
_cell_angle_beta   90.00000000
_cell_angle_gamma   120.00000000
_symmetry_Int_Tables_number   1
_chemical_formula_structural   H38C55(N3O2)2
_chemical_formula_sum   'H228 C330 N36 O24'
_cell_volume   25422.62152371
_cell_formula_units_Z   6
loop_
 _symmetry_equiv_pos_site_id
 _symmetry_equiv_pos_as_xyz
  1  'x, y, z'
loop_
 _atom_site_type_symbol
 _atom_site_label
 _atom_site_symmetry_multiplicity
 _atom_site_fract_x
 _atom_site_fract_y
 _atom_site_fract_z
 _atom_site_occupancy
  C  1  1  0.61923500  0.51693700  0.97725200  1
  C  2  1  0.65579700  0.49272500  0.97401800  1
  C  3  1  0.70994850  0.54609450  0.02451900  1
  C  4  1  0.68649250  0.58335850  0.02155000  1
  C  5  1  0.70373650  0.62936850  0.04393000  1
  C  6  1  0.73543050  0.63408050  0.07228300  1
  C  7  1  0.75140950  0.59113350  0.07671400  1
  C  8  1  0.74261750  0.55063750  0.05232600  1
  C  9  1  0.65068650  0.46024050  0.94603800  1
  C  10  1  0.61018450  0.45219450  0.92179850  1
  C  11  1  0.56770000  0.46870800  0.92653200  1
  C  12  1  0.57310900  0.50037100  0.95502300  1
  C  13  1  0.58492000  0.55261000  0.02155200  1
  C  14  1  0.56152750  0.58993250  0.02451200  1
  C  15  1  0.61566050  0.64322150  0.97398600  1
  C  16  1  0.65217750  0.61894650  0.97721000  1
  C  17  1  0.62078650  0.67572650  0.94601000  1
  C  18  1  0.66127050  0.68376350  0.92176300  1
  C  19  1  0.70367150  0.66713550  0.92647400  1
  C  20  1  0.69826250  0.63547250  0.95496100  1
  C  21  1  0.56760850  0.50657850  0.04392600  1
  C  22  1  0.53607450  0.50203650  0.07232200  1
  C  23  1  0.52014400  0.54502500  0.07674100  1
  C  24  1  0.52891200  0.58547200  0.05232800  1
  C  37  1  0.63570050  0.56796850  0.99940200  1
  C  38  1  0.57182900  0.63378900  0.99917200  1
  C  41  1  0.69967800  0.50223600  0.99918700  1
  C  44  1  0.52528500  0.46257300  0.90299800  1
  C  45  1  0.74231050  0.67646650  0.09600800  1
  C  46  1  0.74612550  0.67331750  0.90295250  1
  C  47  1  0.52924550  0.45971950  0.09607000  1
  C  52  1  0.10112500  0.58438500  0.31055700  1
  C  53  1  0.04034100  0.54786300  0.30733500  1
  C  54  1  0.03958100  0.49374100  0.35785300  1
  C  55  1  0.10031200  0.51720600  0.35489500  1
  C  56  1  0.12904100  0.49990500  0.37726700  1
  C  57  1  0.10206100  0.46831700  0.40564800  1
  C  58  1  0.04311600  0.45227800  0.41006200  1
  C  59  1  0.01144650  0.46111650  0.38567200  1
  C  60  1  0.01293750  0.55297550  0.27937000  1
  C  61  1  0.04537100  0.59345300  0.25511800  1
  C  62  1  0.10438550  0.63590350  0.25982800  1
  C  63  1  0.13065050  0.63049650  0.28831300  1
  C  64  1  0.17106500  0.61877100  0.35488300  1
  C  65  1  0.23178850  0.64223050  0.35785300  1
  C  66  1  0.23104300  0.58808900  0.30735200  1
  C  67  1  0.17026200  0.55154500  0.31057600  1
  C  68  1  0.25843150  0.58301850  0.27936700  1
  C  69  1  0.22600700  0.54250100  0.25513000  1
  C  70  1  0.16701050  0.50002450  0.25985700  1
  C  71  1  0.14074750  0.50538750  0.28835700  1
  C  72  1  0.14230450  0.63605250  0.37724300  1
  C  73  1  0.16929200  0.66778200  0.40558600  1
  C  74  1  0.22823900  0.68383300  0.41001700  1
  C  75  1  0.25989500  0.67487600  0.38566900  1
  C  88  1  0.13568800  0.56797600  0.33273300  1
  C  89  1  0.26539550  0.63196650  0.33252700  1
  C  92  1  0.00598550  0.50399750  0.33251500  1
  C  95  1  0.14066700  0.67827900  0.23627700  1
  C  96  1  0.13755550  0.46138250  0.42935400  1
  C  97  1  0.13073850  0.45763250  0.23631300  1
  C  98  1  0.13380900  0.67492900  0.42921200  1
  C  103  1  0.68687350  0.10257550  0.64389300  1
  C  104  1  0.71107800  0.16335400  0.64067900  1
  C  105  1  0.65771900  0.16408900  0.69119600  1
  C  106  1  0.62046950  0.10336750  0.68821500  1
  C  107  1  0.57441900  0.07458700  0.71056900  1
  C  108  1  0.56961750  0.10155750  0.73890300  1
  C  109  1  0.61250700  0.16050700  0.74334400  1
  C  110  1  0.65315350  0.19217750  0.71901300  1
  C  111  1  0.74350500  0.19074500  0.61268700  1
  C  112  1  0.75155500  0.15832600  0.58842600  1
  C  113  1  0.73493750  0.09929850  0.59312100  1
  C  114  1  0.70345350  0.07303550  0.62165400  1
  C  115  1  0.65125350  0.03258050  0.68819600  1
  C  116  1  0.61395400  0.97186100  0.69115300  1
  C  117  1  0.56060150  0.97269350  0.64065000  1
  C  118  1  0.58487500  0.03348500  0.64387200  1
  C  119  1  0.52805300  0.94530800  0.61268700  1
  C  120  1  0.51997450  0.97775050  0.58845200  1
  C  121  1  0.53663050  0.03678450  0.59316200  1
  C  122  1  0.56827450  0.06303050  0.62165400  1
  C  123  1  0.69729950  0.06131450  0.71055700  1
  C  124  1  0.70183450  0.03432750  0.73895600  1
  C  125  1  0.65891950  0.97538350  0.74336400  1
  C  126  1  0.61846250  0.94370650  0.71895500  1
  C  139  1  0.63586550  0.06798950  0.66605300  1
  C  140  1  0.57008650  0.93830250  0.66581700  1
  C  143  1  0.70158900  0.19770100  0.66587500  1
  C  146  1  0.74103500  0.06301400  0.56957700  1
  C  147  1  0.52694650  0.06608050  0.76251500  1
  C  148  1  0.53041200  0.07305800  0.56965100  1
  C  149  1  0.74424750  0.06981250  0.76267400  1
  C  154  1  0.50209250  0.12876450  0.79742500  1
  C  155  1  0.51513000  0.17747100  0.77812400  1
  C  156  1  0.52162650  0.22977650  0.79122200  1
  C  157  1  0.50501550  0.23051950  0.82393200  1
  C  158  1  0.48639450  0.17940650  0.84237200  1
  C  159  1  0.48676750  0.13072150  0.82977000  1
  C  162  1  0.50278150  0.27847750  0.83860300  1
  C  163  1  0.48109050  0.30955250  0.82143600  1
  C  164  1  0.48140300  0.35810700  0.83496900  1
  C  165  1  0.49923050  0.37566050  0.86715200  1
  C  166  1  0.51306700  0.33965100  0.88566300  1
  C  167  1  0.51749700  0.29392700  0.87136400  1
  C  180  1  0.83008350  0.70169050  0.13080200  1
  C  181  1  0.86567650  0.68855250  0.11150100  1
  C  182  1  0.91150950  0.68206750  0.12458000  1
  C  183  1  0.92895450  0.69879050  0.15727000  1
  C  184  1  0.89649550  0.71743750  0.17571900  1
  C  185  1  0.84742950  0.71706950  0.16313300  1
  C  188  1  0.97912550  0.70095250  0.17193000  1
  C  189  1  0.03182050  0.72244450  0.15471600  1
  C  190  1  0.08003800  0.72205500  0.16823000  1
  C  191  1  0.07980000  0.70430500  0.20042700  1
  C  192  1  0.03003550  0.69063550  0.21897100  1
  C  193  1  0.97990650  0.68631250  0.20470000  1
  C  206  1  0.07502800  0.37360600  0.46415200  1
  C  207  1  0.02630300  0.33802500  0.44484200  1
  C  208  1  0.97401250  0.29212750  0.45789900  1
  C  209  1  0.97326550  0.27468550  0.49058900  1
  C  210  1  0.02436800  0.30712500  0.50904600  1
  C  211  1  0.07306100  0.35621400  0.49647500  1
  C  214  1  0.92525550  0.22451550  0.50524300  1
  C  215  1  0.89415300  0.17178200  0.48805000  1
  C  216  1  0.84556550  0.12354050  0.50156200  1
  C  217  1  0.82800750  0.12378650  0.53374700  1
  C  218  1  0.86401250  0.17360450  0.55227600  1
  C  219  1  0.90979900  0.22374100  0.53800500  1
  C  232  1  0.76928850  0.00722050  0.79754800  1
  C  233  1  0.75629600  0.95853900  0.77823400  1
  C  234  1  0.74988000  0.90625400  0.79131200  1
  C  235  1  0.76650300  0.90550400  0.82401800  1
  C  236  1  0.78508550  0.95659850  0.84247000  1
  C  237  1  0.78467050  0.00526950  0.82988200  1
  C  240  1  0.76876600  0.85755600  0.83868000  1
  C  241  1  0.79049050  0.82651850  0.82150600  1
  C  242  1  0.79024550  0.77799350  0.83503600  1
  C  243  1  0.77239950  0.76041150  0.86721300  1
  C  244  1  0.75845850  0.79634250  0.88572300  1
  C  245  1  0.75401450  0.84206150  0.87143200  1
  C  258  1  0.44156600  0.43459800  0.13092400  1
  C  259  1  0.40591100  0.44763700  0.11160600  1
  C  260  1  0.36001850  0.45402850  0.12467300  1
  C  261  1  0.34258300  0.43732700  0.15736600  1
  C  262  1  0.37504850  0.41868350  0.17581300  1
  C  263  1  0.42417250  0.41915250  0.16324400  1
  C  266  1  0.29236050  0.43505950  0.17201500  1
  C  267  1  0.23962200  0.41337400  0.15482200  1
  C  268  1  0.19136250  0.41368850  0.16833100  1
  C  269  1  0.19159850  0.43151550  0.20051200  1
  C  270  1  0.24141400  0.44533400  0.21904600  1
  C  271  1  0.29158100  0.44975800  0.20477200  1
  C  284  1  0.19645500  0.76250700  0.46411100  1
  C  285  1  0.24518100  0.79814100  0.44481500  1
  C  286  1  0.29750950  0.84392750  0.45790900  1
  C  287  1  0.29824800  0.86130200  0.49061500  1
  C  288  1  0.24714850  0.82879450  0.50906800  1
  C  289  1  0.19844450  0.77976250  0.49646300  1
  C  292  1  0.34624950  0.91146150  0.50529100  1
  C  293  1  0.37743650  0.96418050  0.48809300  1
  C  294  1  0.42601450  0.01240650  0.50162200  1
  C  295  1  0.44350450  0.01215050  0.53382200  1
  C  296  1  0.40742850  0.96235650  0.55234800  1
  C  297  1  0.36166250  0.91222250  0.53806000  1
  C  1237  1  0.61923500  0.51693700  0.54449400  1
  C  1238  1  0.65579700  0.49272500  0.54126000  1
  C  1239  1  0.70994850  0.54609450  0.59176100  1
  C  1240  1  0.68649250  0.58335850  0.58879200  1
  C  1241  1  0.70373650  0.62936850  0.61117200  1
  C  1242  1  0.73543050  0.63408050  0.63952500  1
  C  1243  1  0.75140950  0.59113350  0.64395600  1
  C  1244  1  0.74261750  0.55063750  0.61956800  1
  C  1245  1  0.65068650  0.46024050  0.51328000  1
  C  1246  1  0.61018450  0.45219450  0.48904050  1
  C  1247  1  0.56770000  0.46870800  0.49377400  1
  C  1248  1  0.57310900  0.50037100  0.52226500  1
  C  1249  1  0.58492000  0.55261000  0.58879400  1
  C  1250  1  0.56152750  0.58993250  0.59175400  1
  C  1251  1  0.61566050  0.64322150  0.54122800  1
  C  1252  1  0.65217750  0.61894650  0.54445200  1
  C  1253  1  0.62078650  0.67572650  0.51325200  1
  C  1254  1  0.66127050  0.68376350  0.48900500  1
  C  1255  1  0.70367150  0.66713550  0.49371600  1
  C  1256  1  0.69826250  0.63547250  0.52220300  1
  C  1257  1  0.56760850  0.50657850  0.61116800  1
  C  1258  1  0.53607450  0.50203650  0.63956400  1
  C  1259  1  0.52014400  0.54502500  0.64398300  1
  C  1260  1  0.52891200  0.58547200  0.61957000  1
  C  1273  1  0.63570050  0.56796850  0.56664400  1
  C  1274  1  0.57182900  0.63378900  0.56641400  1
  C  1277  1  0.69967800  0.50223600  0.56642900  1
  C  1280  1  0.52528500  0.46257300  0.47024000  1
  C  1281  1  0.74231050  0.67646650  0.66325000  1
  C  1282  1  0.74612550  0.67331750  0.47019450  1
  C  1283  1  0.52924550  0.45971950  0.66331200  1
  C  1288  1  0.10112500  0.58438500  0.87779900  1
  C  1289  1  0.04034100  0.54786300  0.87457700  1
  C  1290  1  0.03958100  0.49374100  0.92509520  1
  C  1291  1  0.10031200  0.51720600  0.92213720  1
  C  1292  1  0.12904100  0.49990500  0.94450920  1
  C  1293  1  0.10206100  0.46831700  0.97289020  1
  C  1294  1  0.04311600  0.45227800  0.97730420  1
  C  1295  1  0.01144650  0.46111650  0.95291420  1
  C  1296  1  0.01293750  0.55297550  0.84661200  1
  C  1297  1  0.04537100  0.59345300  0.82236000  1
  C  1298  1  0.10438550  0.63590350  0.82707000  1
  C  1299  1  0.13065050  0.63049650  0.85555500  1
  C  1300  1  0.17106500  0.61877100  0.92212520  1
  C  1301  1  0.23178850  0.64223050  0.92509520  1
  C  1302  1  0.23104300  0.58808900  0.87459400  1
  C  1303  1  0.17026200  0.55154500  0.87781800  1
  C  1304  1  0.25843150  0.58301850  0.84660900  1
  C  1305  1  0.22600700  0.54250100  0.82237200  1
  C  1306  1  0.16701050  0.50002450  0.82709900  1
  C  1307  1  0.14074750  0.50538750  0.85559900  1
  C  1308  1  0.14230450  0.63605250  0.94448520  1
  C  1309  1  0.16929200  0.66778200  0.97282820  1
  C  1310  1  0.22823900  0.68383300  0.97725920  1
  C  1311  1  0.25989500  0.67487600  0.95291120  1
  C  1324  1  0.13568800  0.56797600  0.89997500  1
  C  1325  1  0.26539550  0.63196650  0.89976900  1
  C  1328  1  0.00598550  0.50399750  0.89975700  1
  C  1331  1  0.14066700  0.67827900  0.80351900  1
  C  1332  1  0.13755550  0.46138250  0.99659615  1
  C  1333  1  0.13073850  0.45763250  0.80355500  1
  C  1334  1  0.13380900  0.67492900  0.99645415  1
  C  1339  1  0.68687350  0.10257550  0.21113500  1
  C  1340  1  0.71107800  0.16335400  0.20792100  1
  C  1341  1  0.65771900  0.16408900  0.25843800  1
  C  1342  1  0.62046950  0.10336750  0.25545700  1
  C  1343  1  0.57441900  0.07458700  0.27781100  1
  C  1344  1  0.56961750  0.10155750  0.30614500  1
  C  1345  1  0.61250700  0.16050700  0.31058600  1
  C  1346  1  0.65315350  0.19217750  0.28625500  1
  C  1347  1  0.74350500  0.19074500  0.17992900  1
  C  1348  1  0.75155500  0.15832600  0.15566800  1
  C  1349  1  0.73493750  0.09929850  0.16036300  1
  C  1350  1  0.70345350  0.07303550  0.18889600  1
  C  1351  1  0.65125350  0.03258050  0.25543800  1
  C  1352  1  0.61395400  0.97186100  0.25839500  1
  C  1353  1  0.56060150  0.97269350  0.20789200  1
  C  1354  1  0.58487500  0.03348500  0.21111400  1
  C  1355  1  0.52805300  0.94530800  0.17992900  1
  C  1356  1  0.51997450  0.97775050  0.15569400  1
  C  1357  1  0.53663050  0.03678450  0.16040400  1
  C  1358  1  0.56827450  0.06303050  0.18889600  1
  C  1359  1  0.69729950  0.06131450  0.27779900  1
  C  1360  1  0.70183450  0.03432750  0.30619800  1
  C  1361  1  0.65891950  0.97538350  0.31060600  1
  C  1362  1  0.61846250  0.94370650  0.28619700  1
  C  1375  1  0.63586550  0.06798950  0.23329500  1
  C  1376  1  0.57008650  0.93830250  0.23305900  1
  C  1379  1  0.70158900  0.19770100  0.23311700  1
  C  1382  1  0.74103500  0.06301400  0.13681900  1
  C  1383  1  0.52694650  0.06608050  0.32975700  1
  C  1384  1  0.53041200  0.07305800  0.13689300  1
  C  1385  1  0.74424750  0.06981250  0.32991600  1
  C  1390  1  0.50209250  0.12876450  0.36466700  1
  C  1391  1  0.51513000  0.17747100  0.34536600  1
  C  1392  1  0.52162650  0.22977650  0.35846400  1
  C  1393  1  0.50501550  0.23051950  0.39117400  1
  C  1394  1  0.48639450  0.17940650  0.40961400  1
  C  1395  1  0.48676750  0.13072150  0.39701200  1
  C  1398  1  0.50278150  0.27847750  0.40584500  1
  C  1399  1  0.48109050  0.30955250  0.38867800  1
  C  1400  1  0.48140300  0.35810700  0.40221100  1
  C  1401  1  0.49923050  0.37566050  0.43439400  1
  C  1402  1  0.51306700  0.33965100  0.45290500  1
  C  1403  1  0.51749700  0.29392700  0.43860600  1
  C  1416  1  0.83008350  0.70169050  0.69804400  1
  C  1417  1  0.86567650  0.68855250  0.67874300  1
  C  1418  1  0.91150950  0.68206750  0.69182200  1
  C  1419  1  0.92895450  0.69879050  0.72451200  1
  C  1420  1  0.89649550  0.71743750  0.74296100  1
  C  1421  1  0.84742950  0.71706950  0.73037500  1
  C  1424  1  0.97912550  0.70095250  0.73917200  1
  C  1425  1  0.03182050  0.72244450  0.72195800  1
  C  1426  1  0.08003800  0.72205500  0.73547200  1
  C  1427  1  0.07980000  0.70430500  0.76766900  1
  C  1428  1  0.03003550  0.69063550  0.78621300  1
  C  1429  1  0.97990650  0.68631250  0.77194200  1
  C  1442  1  0.07502800  0.37360600  0.03139400  1
  C  1443  1  0.02630300  0.33802500  0.01208400  1
  C  1444  1  0.97401250  0.29212750  0.02514100  1
  C  1445  1  0.97326550  0.27468550  0.05783100  1
  C  1446  1  0.02436800  0.30712500  0.07628800  1
  C  1447  1  0.07306100  0.35621400  0.06371700  1
  C  1450  1  0.92525550  0.22451550  0.07248500  1
  C  1451  1  0.89415300  0.17178200  0.05529200  1
  C  1452  1  0.84556550  0.12354050  0.06880400  1
  C  1453  1  0.82800750  0.12378650  0.10098900  1
  C  1454  1  0.86401250  0.17360450  0.11951800  1
  C  1455  1  0.90979900  0.22374100  0.10524700  1
  C  1468  1  0.76928850  0.00722050  0.36479000  1
  C  1469  1  0.75629600  0.95853900  0.34547600  1
  C  1470  1  0.74988000  0.90625400  0.35855400  1
  C  1471  1  0.76650300  0.90550400  0.39126000  1
  C  1472  1  0.78508550  0.95659850  0.40971200  1
  C  1473  1  0.78467050  0.00526950  0.39712400  1
  C  1476  1  0.76876600  0.85755600  0.40592200  1
  C  1477  1  0.79049050  0.82651850  0.38874800  1
  C  1478  1  0.79024550  0.77799350  0.40227800  1
  C  1479  1  0.77239950  0.76041150  0.43445500  1
  C  1480  1  0.75845850  0.79634250  0.45296500  1
  C  1481  1  0.75401450  0.84206150  0.43867400  1
  C  1494  1  0.44156600  0.43459800  0.69816600  1
  C  1495  1  0.40591100  0.44763700  0.67884800  1
  C  1496  1  0.36001850  0.45402850  0.69191500  1
  C  1497  1  0.34258300  0.43732700  0.72460800  1
  C  1498  1  0.37504850  0.41868350  0.74305500  1
  C  1499  1  0.42417250  0.41915250  0.73048600  1
  C  1502  1  0.29236050  0.43505950  0.73925700  1
  C  1503  1  0.23962200  0.41337400  0.72206400  1
  C  1504  1  0.19136250  0.41368850  0.73557300  1
  C  1505  1  0.19159850  0.43151550  0.76775400  1
  C  1506  1  0.24141400  0.44533400  0.78628800  1
  C  1507  1  0.29158100  0.44975800  0.77201400  1
  C  1520  1  0.19645500  0.76250700  0.03135300  1
  C  1521  1  0.24518100  0.79814100  0.01205700  1
  C  1522  1  0.29750950  0.84392750  0.02515100  1
  C  1523  1  0.29824800  0.86130200  0.05785700  1
  C  1524  1  0.24714850  0.82879450  0.07631000  1
  C  1525  1  0.19844450  0.77976250  0.06370500  1
  C  1528  1  0.34624950  0.91146150  0.07253300  1
  C  1529  1  0.37743650  0.96418050  0.05533500  1
  C  1530  1  0.42601450  0.01240650  0.06886400  1
  C  1531  1  0.44350450  0.01215050  0.10106400  1
  C  1532  1  0.40742850  0.96235650  0.11959000  1
  C  1533  1  0.36166250  0.91222250  0.10530200  1
  H  25  1  0.50223700  0.54777200  0.09790500  1
  H  26  1  0.51484450  0.61452250  0.05601600  1
  H  27  1  0.59225200  0.69037900  0.94213400  1
  H  28  1  0.65883850  0.70148250  0.90047100  1
  H  29  1  0.72543550  0.61907750  0.95847800  1
  H  30  1  0.58353150  0.47894150  0.04067300  1
  H  31  1  0.68789350  0.65706350  0.04062500  1
  H  32  1  0.76937850  0.58844950  0.09786900  1
  H  33  1  0.75673600  0.52163000  0.05601900  1
  H  34  1  0.54595100  0.51678900  0.95852500  1
  H  35  1  0.67926700  0.44566100  0.94212500  1
  H  36  1  0.61264300  0.43451900  0.90049600  1
  H  39  1  0.53002750  0.62006150  0.98754400  1
  H  40  1  0.58608150  0.67579250  0.01067300  1
  H  42  1  0.74147550  0.51600550  0.98754500  1
  H  43  1  0.68549100  0.46025100  0.01069700  1
  H  76  1  0.24891650  0.70190650  0.43114700  1
  H  77  1  0.30307350  0.68917550  0.38931700  1
  H  78  1  0.30161950  0.61155050  0.27548900  1
  H  79  1  0.24616000  0.54496000  0.23383400  1
  H  80  1  0.09715750  0.47827150  0.29183100  1
  H  81  1  0.09876800  0.62022000  0.37392700  1
  H  82  1  0.17259950  0.51583850  0.37398700  1
  H  83  1  0.02244850  0.43429450  0.43121000  1
  H  84  1  0.96829050  0.44690450  0.38931900  1
  H  85  1  0.17423000  0.65765400  0.29180400  1
  H  86  1  0.96976150  0.52441150  0.27547700  1
  H  87  1  0.02521400  0.59100000  0.23382700  1
  H  90  1  0.29343100  0.67376600  0.32089000  1
  H  91  1  0.29318700  0.61777800  0.34404500  1
  H  93  1  0.97795450  0.46219250  0.32088100  1
  H  94  1  0.97818800  0.51819000  0.34402400  1
  H  127  1  0.65620450  0.95472050  0.76451800  1
  H  128  1  0.58944300  0.90057700  0.72263600  1
  H  129  1  0.51340150  0.90212150  0.60880900  1
  H  130  1  0.50225050  0.95759650  0.56716300  1
  H  131  1  0.58477050  0.10661850  0.62516000  1
  H  132  1  0.72492500  0.10487700  0.70730200  1
  H  133  1  0.54672050  0.03105450  0.70724400  1
  H  134  1  0.61508900  0.18117700  0.76447300  1
  H  135  1  0.68202400  0.23535600  0.72266500  1
  H  136  1  0.68694300  0.02943700  0.62512100  1
  H  137  1  0.75817550  0.23393750  0.60881800  1
  H  138  1  0.76921100  0.17847700  0.56712200  1
  H  141  1  0.58382550  0.91025250  0.65417400  1
  H  142  1  0.52809500  0.91052500  0.67732900  1
  H  144  1  0.68784500  0.22576500  0.65425300  1
  H  145  1  0.74357700  0.22546300  0.67739100  1
  H  160  1  0.47213450  0.17663050  0.86550900  1
  H  161  1  0.47453650  0.09568450  0.84457500  1
  H  168  1  0.46584400  0.29798200  0.79846700  1
  H  169  1  0.46791650  0.38071650  0.82086900  1
  H  170  1  0.52058400  0.34657600  0.90974400  1
  H  171  1  0.52225150  0.17567150  0.75415000  1
  H  172  1  0.53145450  0.27173050  0.88542600  1
  H  174  1  0.55938300  0.27619700  0.75030800  1
  H  175  1  0.56053150  0.31634750  0.78077400  1
  H  177  1  0.47200300  0.43269300  0.86609100  1
  H  179  1  0.47403050  0.04435050  0.79956800  1
  H  186  1  0.90801850  0.73172850  0.19884800  1
  H  187  1  0.82462700  0.72928700  0.17795300  1
  H  194  1  0.03547100  0.73761500  0.13173200  1
  H  195  1  0.11609050  0.73542450  0.15410600  1
  H  196  1  0.02949500  0.68318900  0.24305900  1
  H  197  1  0.85671150  0.68138550  0.08753300  1
  H  198  1  0.94379950  0.67246950  0.21879100  1
  H  200  1  0.91961350  0.64373350  0.08382100  1
  H  201  1  0.95861650  0.64264050  0.11432800  1
  H  203  1  0.16405450  0.73147850  0.19933100  1
  H  205  1  0.77351000  0.72947200  0.13301600  1
  H  212  1  0.02712150  0.29558650  0.53217500  1
  H  213  1  0.10807050  0.37901250  0.51130400  1
  H  220  1  0.90574850  0.16811650  0.46508500  1
  H  221  1  0.82293750  0.08746950  0.48744400  1
  H  222  1  0.85707300  0.17416400  0.57635900  1
  H  223  1  0.02811550  0.34701450  0.42087700  1
  H  224  1  0.93201900  0.25986900  0.55208400  1
  H  226  1  0.92759950  0.28364050  0.41700800  1
  H  227  1  0.88744250  0.24451150  0.44743800  1
  H  229  1  0.77072150  0.03959150  0.53259300  1
  H  231  1  0.15935750  0.43026250  0.46640300  1
  H  238  1  0.79934550  0.95936550  0.86560700  1
  H  239  1  0.79682550  0.04027150  0.84470600  1
  H  246  1  0.80579300  0.83814400  0.79855000  1
  H  247  1  0.80377050  0.75541650  0.82093500  1
  H  248  1  0.75090450  0.78937550  0.90979900  1
  H  249  1  0.74916100  0.96034300  0.75426300  1
  H  250  1  0.74001000  0.86422100  0.88549300  1
  H  252  1  0.71216350  0.85985250  0.75038500  1
  H  253  1  0.71107500  0.81969800  0.78083500  1
  H  255  1  0.79962750  0.70337950  0.86614400  1
  H  257  1  0.79708650  0.09158250  0.79976000  1
  H  264  1  0.36350800  0.40436900  0.19893900  1
  H  265  1  0.44697050  0.40693050  0.17806600  1
  H  272  1  0.23598050  0.39814450  0.13185200  1
  H  273  1  0.15528600  0.40021100  0.15421600  1
  H  274  1  0.24197350  0.45285250  0.24312600  1
  H  275  1  0.41488750  0.45482350  0.08764100  1
  H  276  1  0.32771900  0.46371100  0.21884900  1
  H  278  1  0.35142150  0.49184850  0.08376800  1
  H  279  1  0.31229700  0.49286700  0.11420500  1
  H  281  1  0.10735100  0.40436400  0.19939800  1
  H  283  1  0.49823500  0.40693300  0.13317700  1
  H  290  1  0.24438900  0.84027100  0.53220800  1
  H  291  1  0.16342600  0.75693200  0.51128000  1
  H  298  1  0.36591750  0.96785150  0.46511200  1
  H  299  1  0.44867600  0.04848200  0.48751400  1
  H  300  1  0.41432250  0.96180650  0.57643900  1
  H  301  1  0.24336700  0.78922100  0.42084100  1
  H  302  1  0.33941250  0.87609850  0.55213900  1
  H  304  1  0.34393100  0.85210500  0.41713300  1
  H  305  1  0.38404050  0.89102650  0.44765700  1
  H  307  1  0.50038050  0.09645250  0.53280500  1
  H  309  1  0.11207300  0.70606700  0.46628500  1
  H  1261  1  0.50223700  0.54777200  0.66514700  1
  H  1262  1  0.51484450  0.61452250  0.62325800  1
  H  1263  1  0.59225200  0.69037900  0.50937600  1
  H  1264  1  0.65883850  0.70148250  0.46771300  1
  H  1265  1  0.72543550  0.61907750  0.52572000  1
  H  1266  1  0.58353150  0.47894150  0.60791500  1
  H  1267  1  0.68789350  0.65706350  0.60786700  1
  H  1268  1  0.76937850  0.58844950  0.66511100  1
  H  1269  1  0.75673600  0.52163000  0.62326100  1
  H  1270  1  0.54595100  0.51678900  0.52576700  1
  H  1271  1  0.67926700  0.44566100  0.50936700  1
  H  1272  1  0.61264300  0.43451900  0.46773800  1
  H  1275  1  0.53002750  0.62006150  0.55478600  1
  H  1276  1  0.58608150  0.67579250  0.57791500  1
  H  1278  1  0.74147550  0.51600550  0.55478700  1
  H  1279  1  0.68549100  0.46025100  0.57793900  1
  H  1312  1  0.24891650  0.70190650  0.99838915  1
  H  1313  1  0.30307350  0.68917550  0.95655920  1
  H  1314  1  0.30161950  0.61155050  0.84273100  1
  H  1315  1  0.24616000  0.54496000  0.80107600  1
  H  1316  1  0.09715750  0.47827150  0.85907300  1
  H  1317  1  0.09876800  0.62022000  0.94116920  1
  H  1318  1  0.17259950  0.51583850  0.94122920  1
  H  1319  1  0.02244850  0.43429450  0.99845215  1
  H  1320  1  0.96829050  0.44690450  0.95656120  1
  H  1321  1  0.17423000  0.65765400  0.85904600  1
  H  1322  1  0.96976150  0.52441150  0.84271900  1
  H  1323  1  0.02521400  0.59100000  0.80106900  1
  H  1326  1  0.29343100  0.67376600  0.88813200  1
  H  1327  1  0.29318700  0.61777800  0.91128720  1
  H  1329  1  0.97795450  0.46219250  0.88812300  1
  H  1330  1  0.97818800  0.51819000  0.91126620  1
  H  1363  1  0.65620450  0.95472050  0.33176000  1
  H  1364  1  0.58944300  0.90057700  0.28987800  1
  H  1365  1  0.51340150  0.90212150  0.17605100  1
  H  1366  1  0.50225050  0.95759650  0.13440500  1
  H  1367  1  0.58477050  0.10661850  0.19240200  1
  H  1368  1  0.72492500  0.10487700  0.27454400  1
  H  1369  1  0.54672050  0.03105450  0.27448600  1
  H  1370  1  0.61508900  0.18117700  0.33171500  1
  H  1371  1  0.68202400  0.23535600  0.28990700  1
  H  1372  1  0.68694300  0.02943700  0.19236300  1
  H  1373  1  0.75817550  0.23393750  0.17606000  1
  H  1374  1  0.76921100  0.17847700  0.13436400  1
  H  1377  1  0.58382550  0.91025250  0.22141600  1
  H  1378  1  0.52809500  0.91052500  0.24457100  1
  H  1380  1  0.68784500  0.22576500  0.22149500  1
  H  1381  1  0.74357700  0.22546300  0.24463300  1
  H  1396  1  0.47213450  0.17663050  0.43275100  1
  H  1397  1  0.47453650  0.09568450  0.41181700  1
  H  1404  1  0.46584400  0.29798200  0.36570900  1
  H  1405  1  0.46791650  0.38071650  0.38811100  1
  H  1406  1  0.52058400  0.34657600  0.47698600  1
  H  1407  1  0.52225150  0.17567150  0.32139200  1
  H  1408  1  0.53145450  0.27173050  0.45266800  1
  H  1410  1  0.55938300  0.27619700  0.31755000  1
  H  1411  1  0.56053150  0.31634750  0.34801600  1
  H  1413  1  0.47200300  0.43269300  0.43333300  1
  H  1415  1  0.47403050  0.04435050  0.36681000  1
  H  1422  1  0.90801850  0.73172850  0.76609000  1
  H  1423  1  0.82462700  0.72928700  0.74519500  1
  H  1430  1  0.03547100  0.73761500  0.69897400  1
  H  1431  1  0.11609050  0.73542450  0.72134800  1
  H  1432  1  0.02949500  0.68318900  0.81030100  1
  H  1433  1  0.85671150  0.68138550  0.65477500  1
  H  1434  1  0.94379950  0.67246950  0.78603300  1
  H  1436  1  0.91961350  0.64373350  0.65106300  1
  H  1437  1  0.95861650  0.64264050  0.68157000  1
  H  1439  1  0.16405450  0.73147850  0.76657300  1
  H  1441  1  0.77351000  0.72947200  0.70025800  1
  H  1448  1  0.02712150  0.29558650  0.09941700  1
  H  1449  1  0.10807050  0.37901250  0.07854600  1
  H  1456  1  0.90574850  0.16811650  0.03232700  1
  H  1457  1  0.82293750  0.08746950  0.05468600  1
  H  1458  1  0.85707300  0.17416400  0.14360100  1
  H  1459  1  0.02811550  0.34701450  0.98811920  1
  H  1460  1  0.93201900  0.25986900  0.11932600  1
  H  1462  1  0.92759950  0.28364050  0.98425020  1
  H  1463  1  0.88744250  0.24451150  0.01468000  1
  H  1465  1  0.77072150  0.03959150  0.09983500  1
  H  1467  1  0.15935750  0.43026250  0.03364500  1
  H  1474  1  0.79934550  0.95936550  0.43284900  1
  H  1475  1  0.79682550  0.04027150  0.41194800  1
  H  1482  1  0.80579300  0.83814400  0.36579200  1
  H  1483  1  0.80377050  0.75541650  0.38817700  1
  H  1484  1  0.75090450  0.78937550  0.47704100  1
  H  1485  1  0.74916100  0.96034300  0.32150500  1
  H  1486  1  0.74001000  0.86422100  0.45273500  1
  H  1488  1  0.71216350  0.85985250  0.31762700  1
  H  1489  1  0.71107500  0.81969800  0.34807700  1
  H  1491  1  0.79962750  0.70337950  0.43338600  1
  H  1493  1  0.79708650  0.09158250  0.36700200  1
  H  1500  1  0.36350800  0.40436900  0.76618100  1
  H  1501  1  0.44697050  0.40693050  0.74530800  1
  H  1508  1  0.23598050  0.39814450  0.69909400  1
  H  1509  1  0.15528600  0.40021100  0.72145800  1
  H  1510  1  0.24197350  0.45285250  0.81036800  1
  H  1511  1  0.41488750  0.45482350  0.65488300  1
  H  1512  1  0.32771900  0.46371100  0.78609100  1
  H  1514  1  0.35142150  0.49184850  0.65101000  1
  H  1515  1  0.31229700  0.49286700  0.68144700  1
  H  1517  1  0.10735100  0.40436400  0.76664000  1
  H  1519  1  0.49823500  0.40693300  0.70041900  1
  H  1526  1  0.24438900  0.84027100  0.09945000  1
  H  1527  1  0.16342600  0.75693200  0.07852200  1
  H  1534  1  0.36591750  0.96785150  0.03235400  1
  H  1535  1  0.44867600  0.04848200  0.05475600  1
  H  1536  1  0.41432250  0.96180650  0.14368100  1
  H  1537  1  0.24336700  0.78922100  0.98808320  1
  H  1538  1  0.33941250  0.87609850  0.11938100  1
  H  1540  1  0.34393100  0.85210500  0.98437520  1
  H  1541  1  0.38404050  0.89102650  0.01489900  1
  H  1543  1  0.50038050  0.09645250  0.10004700  1
  H  1545  1  0.11207300  0.70606700  0.03352700  1
  N  173  1  0.54648550  0.27775950  0.77201700  1
  N  176  1  0.49786100  0.42378900  0.87853900  1
  N  178  1  0.50001850  0.07855250  0.78676000  1
  N  199  1  0.93464150  0.65720150  0.10537500  1
  N  202  1  0.12930200  0.70567600  0.21180400  1
  N  204  1  0.78182050  0.70358150  0.12018200  1
  N  225  1  0.92603250  0.26909750  0.43869400  1
  N  228  1  0.77976600  0.07434100  0.54509500  1
  N  230  1  0.12515950  0.42191550  0.45355200  1
  N  251  1  0.72507250  0.85828850  0.77209200  1
  N  254  1  0.77373550  0.71225350  0.87858200  1
  N  256  1  0.77121900  0.05738700  0.78691500  1
  N  277  1  0.33690400  0.47888700  0.10546400  1
  N  280  1  0.14209800  0.43016700  0.21187600  1
  N  282  1  0.48985100  0.43273900  0.12031200  1
  N  303  1  0.34550500  0.86708900  0.43869900  1
  N  306  1  0.49156850  0.06168450  0.54522500  1
  N  308  1  0.14627100  0.71431700  0.45346300  1
  N  1409  1  0.54648550  0.27775950  0.33925900  1
  N  1412  1  0.49786100  0.42378900  0.44578100  1
  N  1414  1  0.50001850  0.07855250  0.35400200  1
  N  1435  1  0.93464150  0.65720150  0.67261700  1
  N  1438  1  0.12930200  0.70567600  0.77904600  1
  N  1440  1  0.78182050  0.70358150  0.68742400  1
  N  1461  1  0.92603250  0.26909750  0.00593600  1
  N  1464  1  0.77976600  0.07434100  0.11233700  1
  N  1466  1  0.12515950  0.42191550  0.02079400  1
  N  1487  1  0.72507250  0.85828850  0.33933400  1
  N  1490  1  0.77373550  0.71225350  0.44582400  1
  N  1492  1  0.77121900  0.05738700  0.35415700  1
  N  1513  1  0.33690400  0.47888700  0.67270600  1
  N  1516  1  0.14209800  0.43016700  0.77911800  1
  N  1518  1  0.48985100  0.43273900  0.68755400  1
  N  1539  1  0.34550500  0.86708900  0.00594100  1
  N  1542  1  0.49156850  0.06168450  0.11246700  1
  N  1544  1  0.14627100  0.71431700  0.02070500  1
  O  48  1  0.70006150  0.69108950  0.09567900  1
  O  49  1  0.51105450  0.50510050  0.90384100  1
  O  50  1  0.76040450  0.63082450  0.90380200  1
  O  51  1  0.57162200  0.44526600  0.09580100  1
  O  99  1  0.19438200  0.50376000  0.42909900  1
  O  100  1  0.19741350  0.69247550  0.23710900  1
  O  101  1  0.07400100  0.44347300  0.23712300  1
  O  102  1  0.07695150  0.63262550  0.42895500  1
  O  150  1  0.51230750  0.00919750  0.76223000  1
  O  151  1  0.69824700  0.00635700  0.57029800  1
  O  152  1  0.57277250  0.12987450  0.57056300  1
  O  153  1  0.75879450  0.12666850  0.76238300  1
  O  1284  1  0.70006150  0.69108950  0.66292100  1
  O  1285  1  0.51105450  0.50510050  0.47108300  1
  O  1286  1  0.76040450  0.63082450  0.47104400  1
  O  1287  1  0.57162200  0.44526600  0.66304300  1
  O  1335  1  0.19438200  0.50376000  0.99634115  1
  O  1336  1  0.19741350  0.69247550  0.80435100  1
  O  1337  1  0.07400100  0.44347300  0.80436500  1
  O  1338  1  0.07695150  0.63262550  0.99619715  1
  O  1386  1  0.51230750  0.00919750  0.32947200  1
  O  1387  1  0.69824700  0.00635700  0.13754000  1
  O  1388  1  0.57277250  0.12987450  0.13780500  1
  O  1389  1  0.75879450  0.12666850  0.32962500  1
