# generated using pymatgen
data_VH11(C3O)5
_symmetry_space_group_name_H-M   'P 1'
_cell_length_a   7.24734000
_cell_length_b   14.77231000
_cell_length_c   21.41063000
_cell_angle_alpha   105.59772000
_cell_angle_beta   90.12556000
_cell_angle_gamma   90.49689000
_symmetry_Int_Tables_number   1
_chemical_formula_structural   VH11(C3O)5
_chemical_formula_sum   'V4 H44 C60 O20'
_cell_volume   2207.69866242
_cell_formula_units_Z   4
loop_
 _symmetry_equiv_pos_site_id
 _symmetry_equiv_pos_as_xyz
  1  'x, y, z'
loop_
 _atom_site_type_symbol
 _atom_site_label
 _atom_site_symmetry_multiplicity
 _atom_site_fract_x
 _atom_site_fract_y
 _atom_site_fract_z
 _atom_site_occupancy
  V  V0  1  0.93540000  0.99170000  0.50331000  1
  V  V1  1  0.43540000  0.00830000  0.49669000  1
  V  V2  1  0.34750000  0.00829000  0.99669000  1
  V  V3  1  0.84750000  0.99171000  0.00331000  1
  H  H4  1  0.17960000  0.73787000  0.83453000  1
  H  H5  1  0.57719000  0.26375000  0.16508000  1
  H  H6  1  0.07184000  0.69184000  0.01906000  1
  H  H7  1  0.71481000  0.30556000  0.98156000  1
  H  H8  1  0.05345000  0.38749000  0.87680000  1
  H  H9  1  0.76355000  0.60895000  0.12418000  1
  H  H10  1  0.23217000  0.47795000  0.52926000  1
  H  H11  1  0.52307000  0.52573000  0.46975000  1
  H  H12  1  0.21023000  0.30797000  0.48089000  1
  H  H13  1  0.56691000  0.69463000  0.51848000  1
  H  H14  1  0.10314000  0.26198000  0.66546000  1
  H  H15  1  0.70395000  0.73644000  0.33492000  1
  H  H16  1  0.20962000  0.68052000  0.73642000  1
  H  H17  1  0.54256000  0.32222000  0.26283000  1
  H  H18  1  0.07759000  0.31910000  0.76374000  1
  H  H19  1  0.73390000  0.67838000  0.23693000  1
  H  H20  1  0.05180000  0.52180000  0.97077000  1
  H  H21  1  0.75669000  0.47461000  0.03019000  1
  H  H22  1  0.37235000  0.09679000  0.21150000  1
  H  H23  1  0.92279000  0.05533000  0.81638000  1
  H  H24  1  0.15185000  0.15260000  0.22323000  1
  H  H25  1  0.90543000  0.92944000  0.79382000  1
  H  H26  1  0.38153000  0.09877000  0.31872000  1
  H  H27  1  0.93265000  0.05351000  0.70999000  1
  H  H28  1  0.39073000  0.91649000  0.17913000  1
  H  H29  1  0.62984000  0.15450000  0.83117000  1
  H  H30  1  0.40005000  0.91810000  0.28626000  1
  H  H31  1  0.63957000  0.15262000  0.72352000  1
  H  H32  1  0.86791000  0.92742000  0.18677000  1
  H  H33  1  0.38240000  0.91793000  0.78597000  1
  H  H34  1  0.85506000  0.05331000  0.20936000  1
  H  H35  1  0.58772000  0.84897000  0.77628000  1
  H  H36  1  0.86462000  0.05506000  0.31576000  1
  H  H37  1  0.59749000  0.84716000  0.66863000  1
  H  H38  1  0.87772000  0.92918000  0.29320000  1
  H  H39  1  0.39227000  0.91633000  0.67886000  1
  H  H40  1  0.18299000  0.84721000  0.16845000  1
  H  H41  1  0.40731000  0.09858000  0.81848000  1
  H  H42  1  0.19224000  0.84900000  0.27611000  1
  H  H43  1  0.41707000  0.09666000  0.71129000  1
  H  H44  1  0.23293000  0.61216000  0.62333000  1
  H  H45  1  0.51375000  0.39158000  0.37563000  1
  H  H46  1  0.16099000  0.15454000  0.33092000  1
  H  H47  1  0.91537000  0.92763000  0.68739000  1
  C  C48  1  0.65600000  0.99795000  0.61633000  1
  C  C49  1  0.15539000  0.00197000  0.38368000  1
  C  C50  1  0.65349000  0.82567000  0.45626000  1
  C  C51  1  0.15548000  0.17442000  0.54378000  1
  C  C52  1  0.15231000  0.27611000  0.57151000  1
  C  C53  1  0.64064000  0.72419000  0.42836000  1
  C  C54  1  0.12994000  0.72373000  0.92846000  1
  C  C55  1  0.64097000  0.27599000  0.07166000  1
  C  C56  1  0.20312000  0.43251000  0.56031000  1
  C  C57  1  0.56323000  0.57000000  0.43900000  1
  C  C58  1  0.18970000  0.33605000  0.53259000  1
  C  C59  1  0.58888000  0.66582000  0.46692000  1
  C  C60  1  0.12901000  0.31248000  0.63835000  1
  C  C61  1  0.66625000  0.68702000  0.36172000  1
  C  C62  1  0.14648000  0.41016000  0.66819000  1
  C  C63  1  0.63755000  0.59009000  0.33170000  1
  C  C64  1  0.18366000  0.46987000  0.62755000  1
  C  C65  1  0.58561000  0.53189000  0.37195000  1
  C  C66  1  0.13154000  0.45017000  0.73676000  1
  C  C67  1  0.65604000  0.54946000  0.26333000  1
  C  C68  1  0.15375000  0.54955000  0.76333000  1
  C  C69  1  0.62244000  0.45095000  0.23654000  1
  C  C70  1  0.19012000  0.60553000  0.72049000  1
  C  C71  1  0.57129000  0.39645000  0.27897000  1
  C  C72  1  0.20414000  0.56632000  0.65415000  1
  C  C73  1  0.55387000  0.43627000  0.34512000  1
  C  C74  1  0.09601000  0.39414000  0.77963000  1
  C  C75  1  0.70631000  0.60404000  0.22085000  1
  C  C76  1  0.08172000  0.43337000  0.84595000  1
  C  C77  1  0.72399000  0.56421000  0.15471000  1
  C  C78  1  0.10105000  0.52987000  0.87252000  1
  C  C79  1  0.69345000  0.46848000  0.12795000  1
  C  C80  1  0.13802000  0.58961000  0.83187000  1
  C  C81  1  0.64174000  0.41025000  0.16821000  1
  C  C82  1  0.08066000  0.56726000  0.93971000  1
  C  C83  1  0.71675000  0.43031000  0.06094000  1
  C  C84  1  0.09290000  0.66377000  0.96739000  1
  C  C85  1  0.69233000  0.33440000  0.03308000  1
  C  C86  1  0.15419000  0.68735000  0.86166000  1
  C  C87  1  0.61440000  0.31321000  0.13825000  1
  C  C88  1  0.22937000  0.09056000  0.22886000  1
  C  C89  1  0.84014000  0.99441000  0.78757000  1
  C  C90  1  0.23557000  0.09189000  0.30172000  1
  C  C91  1  0.84679000  0.99316000  0.71528000  1
  C  C92  1  0.24737000  0.91417000  0.19720000  1
  C  C93  1  0.55312000  0.09182000  0.80180000  1
  C  C94  1  0.93881000  0.99301000  0.21476000  1
  C  C95  1  0.52882000  0.91534000  0.77006000  1
  C  C96  1  0.13648000  0.99879000  0.18740000  1
  C  C97  1  0.63801000  0.00101000  0.81266000  1
  C  C98  1  0.14736000  0.00101000  0.31241000  1
  C  C99  1  0.64948000  0.99880000  0.68765000  1
  C  C100  1  0.25362000  0.91541000  0.27003000  1
  C  C101  1  0.55973000  0.09052000  0.72896000  1
  C  C102  1  0.94518000  0.99423000  0.28706000  1
  C  C103  1  0.53546000  0.91410000  0.69724000  1
  C  C104  1  0.62840000  0.17450000  0.04378000  1
  C  C105  1  0.12646000  0.82541000  0.95618000  1
  C  C106  1  0.63011000  0.00200000  0.88399000  1
  C  C107  1  0.12996000  0.99790000  0.11602000  1
  O  O108  1  0.49333000  0.86993000  0.46416000  1
  O  O109  1  0.99333000  0.13007000  0.53584000  1
  O  O110  1  0.82092000  0.99329000  0.58971000  1
  O  O111  1  0.32092000  0.00671000  0.41029000  1
  O  O112  1  0.82278000  0.86199000  0.46794000  1
  O  O113  1  0.32278000  0.13801000  0.53206000  1
  O  O114  1  0.99719000  0.99783000  0.41320000  1
  O  O115  1  0.49719000  0.00217000  0.58680000  1
  O  O116  1  0.66215000  0.04472000  0.48218000  1
  O  O117  1  0.16215000  0.95528000  0.51782000  1
  O  O118  1  0.79145000  0.99789000  0.91321000  1
  O  O119  1  0.29145000  0.00211000  0.08679000  1
  O  O120  1  0.46004000  0.13802000  0.03206000  1
  O  O121  1  0.96004000  0.86198000  0.96794000  1
  O  O122  1  0.46198000  0.00672000  0.91029000  1
  O  O123  1  0.96198000  0.99328000  0.08971000  1
  O  O124  1  0.28766000  0.86991000  0.96416000  1
  O  O125  1  0.78766000  0.13009000  0.03584000  1
  O  O126  1  0.62079000  0.95531000  0.01782000  1
  O  O127  1  0.12079000  0.04469000  0.98218000  1
