# generated using pymatgen
data_LiH49(C15O4)2
_symmetry_space_group_name_H-M   'P 1'
_cell_length_a   8.29427000
_cell_length_b   12.43651000
_cell_length_c   33.22301000
_cell_angle_alpha   90.07815000
_cell_angle_beta   90.00452000
_cell_angle_gamma   89.96682000
_symmetry_Int_Tables_number   1
_chemical_formula_structural   LiH49(C15O4)2
_chemical_formula_sum   'Li4 H196 C120 O32'
_cell_volume   3427.00857301
_cell_formula_units_Z   4
loop_
 _symmetry_equiv_pos_site_id
 _symmetry_equiv_pos_as_xyz
  1  'x, y, z'
loop_
 _atom_site_type_symbol
 _atom_site_label
 _atom_site_symmetry_multiplicity
 _atom_site_fract_x
 _atom_site_fract_y
 _atom_site_fract_z
 _atom_site_occupancy
  Li  Li0  1  0.98556000  0.83717000  0.96832000  1
  Li  Li1  1  0.51816000  0.16346000  0.46718000  1
  Li  Li2  1  0.01634000  0.33524000  0.53115000  1
  Li  Li3  1  0.48542000  0.66535000  0.03165000  1
  H  H4  1  0.69036000  0.51610000  0.79386000  1
  H  H5  1  0.56265000  0.42326000  0.84846000  1
  H  H6  1  0.49476000  0.54259000  0.87102000  1
  H  H7  1  0.31444000  0.41080000  0.81321000  1
  H  H8  1  0.25349000  0.53470000  0.83391000  1
  H  H9  1  0.45755000  0.49455000  0.75931000  1
  H  H10  1  0.18131000  0.65218000  0.76922000  1
  H  H11  1  0.20369000  0.42932000  0.73093000  1
  H  H12  1  0.07754000  0.46744000  0.77086000  1
  H  H13  1  0.91526000  0.58382000  0.72743000  1
  H  H14  1  0.92874000  0.45637000  0.70480000  1
  H  H15  1  0.96541000  0.61254000  0.65707000  1
  H  H16  1  0.25270000  0.45794000  0.66400000  1
  H  H17  1  0.06866000  0.43145000  0.64007000  1
  H  H18  1  0.12190000  0.57559000  0.59039000  1
  H  H19  1  0.38412000  0.67362000  0.59157000  1
  H  H20  1  0.44171000  0.60432000  0.63538000  1
  H  H21  1  0.14487000  0.75178000  0.62637000  1
  H  H22  1  0.32462000  0.79021000  0.64982000  1
  H  H23  1  0.64722000  0.62287000  0.73451000  1
  H  H24  1  0.66435000  0.75244000  0.75551000  1
  H  H25  1  0.38559000  0.79800000  0.73605000  1
  H  H26  1  0.49731000  0.75557000  0.69421000  1
  H  H27  1  0.38027000  0.57468000  0.69793000  1
  H  H28  1  0.70775000  0.66691000  0.86582000  1
  H  H29  1  0.79073000  0.47635000  0.87572000  1
  H  H30  1  0.92385000  0.48566000  0.83446000  1
  H  H31  1  0.06734000  0.49798000  0.89942000  1
  H  H32  1  0.09228000  0.61935000  0.87296000  1
  H  H33  1  0.96950000  0.73289000  0.83565000  1
  H  H34  1  0.80226000  0.77083000  0.80622000  1
  H  H35  1  0.92498000  0.66137000  0.79083000  1
  H  H36  1  0.02377000  0.74696000  0.73216000  1
  H  H37  1  0.97933000  0.79210000  0.68290000  1
  H  H38  1  0.15185000  0.84094000  0.70828000  1
  H  H39  1  0.39446000  0.69992000  0.84487000  1
  H  H40  1  0.33694000  0.76985000  0.80066000  1
  H  H41  1  0.52894000  0.79226000  0.82234000  1
  H  H42  1  0.35704000  0.55844000  0.54090000  1
  H  H43  1  0.45746000  0.40919000  0.49804000  1
  H  H44  1  0.36006000  0.27185000  0.57053000  1
  H  H45  1  0.67320000  0.32075000  0.52551000  1
  H  H46  1  0.55722000  0.37440000  0.61098000  1
  H  H47  1  0.21158000  0.36723000  0.47947000  1
  H  H48  1  0.31657000  0.15043000  0.53059000  1
  H  H49  1  0.79381000  0.20966000  0.57114000  1
  H  H50  1  0.79596000  0.49067000  0.61495000  1
  H  H51  1  0.85662000  0.35413000  0.60763000  1
  H  H52  1  0.82031000  0.49820000  0.54240000  1
  H  H53  1  0.81053000  0.48434000  0.29388000  1
  H  H54  1  0.93895000  0.57726000  0.34847000  1
  H  H55  1  0.00665000  0.45788000  0.37095000  1
  H  H56  1  0.18685000  0.58928000  0.31317000  1
  H  H57  1  0.24759000  0.46530000  0.33372000  1
  H  H58  1  0.04257000  0.50568000  0.25933000  1
  H  H59  1  0.31900000  0.34811000  0.26877000  1
  H  H60  1  0.29561000  0.57101000  0.23077000  1
  H  H61  1  0.42237000  0.53299000  0.27056000  1
  H  H62  1  0.58436000  0.41683000  0.22694000  1
  H  H63  1  0.57041000  0.54424000  0.20443000  1
  H  H64  1  0.53389000  0.38770000  0.15666000  1
  H  H65  1  0.24672000  0.54242000  0.16343000  1
  H  H66  1  0.43102000  0.56859000  0.13959000  1
  H  H67  1  0.37818000  0.42367000  0.09001000  1
  H  H68  1  0.11510000  0.32636000  0.09111000  1
  H  H69  1  0.05786000  0.39624000  0.13489000  1
  H  H70  1  0.35396000  0.24805000  0.12595000  1
  H  H71  1  0.17405000  0.21023000  0.14942000  1
  H  H72  1  0.85243000  0.37720000  0.23451000  1
  H  H73  1  0.83595000  0.24762000  0.25542000  1
  H  H74  1  0.11457000  0.20240000  0.23569000  1
  H  H75  1  0.00211000  0.24455000  0.19397000  1
  H  H76  1  0.11898000  0.42567000  0.19774000  1
  H  H77  1  0.79312000  0.33407000  0.36586000  1
  H  H78  1  0.71207000  0.52509000  0.37577000  1
  H  H79  1  0.57856000  0.51603000  0.33463000  1
  H  H80  1  0.43560000  0.50531000  0.39957000  1
  H  H81  1  0.40889000  0.38381000  0.37311000  1
  H  H82  1  0.53071000  0.26859000  0.33594000  1
  H  H83  1  0.69730000  0.23014000  0.30631000  1
  H  H84  1  0.57468000  0.33974000  0.29106000  1
  H  H85  1  0.47613000  0.25383000  0.23161000  1
  H  H86  1  0.51994000  0.20831000  0.18231000  1
  H  H87  1  0.34775000  0.15966000  0.20783000  1
  H  H88  1  0.10626000  0.30016000  0.34467000  1
  H  H89  1  0.16354000  0.23035000  0.30034000  1
  H  H90  1  0.97164000  0.20795000  0.32204000  1
  H  H91  1  0.14436000  0.44114000  0.04009000  1
  H  H92  1  0.04588000  0.59225000  0.99752000  1
  H  H93  1  0.14324000  0.72627000  0.07096000  1
  H  H94  1  0.82932000  0.68161000  0.02571000  1
  H  H95  1  0.94563000  0.62385000  0.11070000  1
  H  H96  1  0.29278000  0.63491000  0.97950000  1
  H  H97  1  0.18877000  0.84970000  0.03192000  1
  H  H98  1  0.71144000  0.79086000  0.07197000  1
  H  H99  1  0.70710000  0.50885000  0.11482000  1
  H  H100  1  0.64687000  0.64556000  0.10796000  1
  H  H101  1  0.67916000  0.50265000  0.04217000  1
  H  H102  1  0.31046000  0.01574000  0.70599000  1
  H  H103  1  0.43922000  0.92230000  0.65165000  1
  H  H104  1  0.50644000  0.04136000  0.62889000  1
  H  H105  1  0.68776000  0.91082000  0.68671000  1
  H  H106  1  0.74767000  0.03491000  0.66612000  1
  H  H107  1  0.54298000  0.99432000  0.74056000  1
  H  H108  1  0.81929000  0.15177000  0.73103000  1
  H  H109  1  0.79543000  0.92938000  0.76940000  1
  H  H110  1  0.92226000  0.96655000  0.72952000  1
  H  H111  1  0.08474000  0.08295000  0.77291000  1
  H  H112  1  0.07022000  0.95590000  0.79571000  1
  H  H113  1  0.03436000  0.11335000  0.84312000  1
  H  H114  1  0.74693000  0.95893000  0.83667000  1
  H  H115  1  0.93116000  0.93287000  0.86057000  1
  H  H116  1  0.87851000  0.07844000  0.90989000  1
  H  H117  1  0.61576000  0.17619000  0.90862000  1
  H  H118  1  0.55818000  0.10583000  0.86498000  1
  H  H119  1  0.85467000  0.25363000  0.87359000  1
  H  H120  1  0.67482000  0.29142000  0.85005000  1
  H  H121  1  0.35282000  0.12283000  0.76538000  1
  H  H122  1  0.33563000  0.25229000  0.74441000  1
  H  H123  1  0.61412000  0.29798000  0.76406000  1
  H  H124  1  0.50204000  0.25580000  0.80582000  1
  H  H125  1  0.61961000  0.07499000  0.80221000  1
  H  H126  1  0.29386000  0.16640000  0.63409000  1
  H  H127  1  0.21317000  0.97501000  0.62407000  1
  H  H128  1  0.07778000  0.98477000  0.66481000  1
  H  H129  1  0.93761000  0.99596000  0.59948000  1
  H  H130  1  0.91094000  0.11765000  0.62576000  1
  H  H131  1  0.03049000  0.23120000  0.66403000  1
  H  H132  1  0.19694000  0.26981000  0.69365000  1
  H  H133  1  0.07520000  0.15983000  0.70882000  1
  H  H134  1  0.97645000  0.24632000  0.76793000  1
  H  H135  1  0.02033000  0.29252000  0.81712000  1
  H  H136  1  0.84806000  0.34092000  0.79153000  1
  H  H137  1  0.60632000  0.19937000  0.65520000  1
  H  H138  1  0.66335000  0.26961000  0.69943000  1
  H  H139  1  0.47139000  0.29182000  0.67769000  1
  H  H140  1  0.64435000  0.06147000  0.95994000  1
  H  H141  1  0.54569000  0.91031000  0.00248000  1
  H  H142  1  0.64408000  0.77639000  0.92907000  1
  H  H143  1  0.32968000  0.82085000  0.97432000  1
  H  H144  1  0.44567000  0.87879000  0.88925000  1
  H  H145  1  0.79286000  0.86760000  0.02052000  1
  H  H146  1  0.68919000  0.65301000  0.96816000  1
  H  H147  1  0.21204000  0.71176000  0.92796000  1
  H  H148  1  0.20740000  0.99402000  0.88519000  1
  H  H149  1  0.14701000  0.85732000  0.89195000  1
  H  H150  1  0.17909000  0.99977000  0.95790000  1
  H  H151  1  0.18980000  0.98423000  0.20641000  1
  H  H152  1  0.06206000  0.07763000  0.15195000  1
  H  H153  1  0.99475000  0.95851000  0.12913000  1
  H  H154  1  0.81347000  0.08943000  0.18703000  1
  H  H155  1  0.75326000  0.96559000  0.16618000  1
  H  H156  1  0.95695000  0.00541000  0.24086000  1
  H  H157  1  0.68096000  0.84788000  0.23071000  1
  H  H158  1  0.70339000  0.07031000  0.26933000  1
  H  H159  1  0.57724000  0.03278000  0.22933000  1
  H  H160  1  0.41482000  0.91616000  0.27257000  1
  H  H161  1  0.42849000  0.04328000  0.29543000  1
  H  H162  1  0.46488000  0.88642000  0.34288000  1
  H  H163  1  0.75259000  0.04056000  0.33620000  1
  H  H164  1  0.56876000  0.06719000  0.36018000  1
  H  H165  1  0.62176000  0.92250000  0.40969000  1
  H  H166  1  0.88354000  0.82396000  0.40832000  1
  H  H167  1  0.94133000  0.89358000  0.36459000  1
  H  H168  1  0.64412000  0.74657000  0.37334000  1
  H  H169  1  0.82373000  0.70811000  0.34981000  1
  H  H170  1  0.14675000  0.87702000  0.26558000  1
  H  H171  1  0.16447000  0.74763000  0.24444000  1
  H  H172  1  0.88581000  0.70166000  0.26380000  1
  H  H173  1  0.99718000  0.74394000  0.30571000  1
  H  H174  1  0.87958000  0.92462000  0.30215000  1
  H  H175  1  0.20780000  0.83429000  0.13421000  1
  H  H176  1  0.28998000  0.02542000  0.12487000  1
  H  H177  1  0.42370000  0.01500000  0.16597000  1
  H  H178  1  0.56595000  0.00429000  0.10080000  1
  H  H179  1  0.59166000  0.88245000  0.12686000  1
  H  H180  1  0.46977000  0.76817000  0.16430000  1
  H  H181  1  0.30255000  0.72965000  0.19361000  1
  H  H182  1  0.42474000  0.83900000  0.20926000  1
  H  H183  1  0.52328000  0.75301000  0.26753000  1
  H  H184  1  0.47900000  0.70699000  0.31667000  1
  H  H185  1  0.65156000  0.65860000  0.29116000  1
  H  H186  1  0.89441000  0.80065000  0.15511000  1
  H  H187  1  0.83720000  0.73030000  0.19924000  1
  H  H188  1  0.02926000  0.70821000  0.17754000  1
  H  H189  1  0.85734000  0.94050000  0.45944000  1
  H  H190  1  0.95842000  0.09248000  0.50129000  1
  H  H191  1  0.85688000  0.22590000  0.42808000  1
  H  H192  1  0.17301000  0.18175000  0.47257000  1
  H  H193  1  0.05683000  0.12006000  0.38788000  1
  H  H194  1  0.71063000  0.13284000  0.51977000  1
  H  H195  1  0.81483000  0.34965000  0.46777000  1
  H  H196  1  0.28905000  0.28908000  0.42602000  1
  H  H197  1  0.29596000  0.00498000  0.38475000  1
  H  H198  1  0.35596000  0.14189000  0.39144000  1
  H  H199  1  0.32020000  0.00075000  0.45746000  1
  C  C200  1  0.63044000  0.57048000  0.81549000  1
  C  C201  1  0.51266000  0.50275000  0.84182000  1
  C  C202  1  0.35237000  0.49437000  0.81798000  1
  C  C203  1  0.38915000  0.55186000  0.77819000  1
  C  C204  1  0.24809000  0.59026000  0.75240000  1
  C  C205  1  0.13254000  0.49703000  0.74289000  1
  C  C206  1  0.99995000  0.52791000  0.71289000  1
  C  C207  1  0.06767000  0.58017000  0.67450000  1
  C  C208  1  0.15287000  0.49638000  0.64772000  1
  C  C209  1  0.22115000  0.54460000  0.60919000  1
  C  C210  1  0.33693000  0.63632000  0.61910000  1
  C  C211  1  0.24668000  0.72059000  0.64416000  1
  C  C212  1  0.17868000  0.67776000  0.68437000  1
  C  C213  1  0.57904000  0.68652000  0.75015000  1
  C  C214  1  0.44305000  0.72712000  0.72242000  1
  C  C215  1  0.31555000  0.64042000  0.71327000  1
  C  C216  1  0.51287000  0.64032000  0.78978000  1
  C  C217  1  0.76512000  0.62281000  0.84088000  1
  C  C218  1  0.86898000  0.53190000  0.85918000  1
  C  C219  1  0.00227000  0.56894000  0.88798000  1
  C  C220  1  0.93594000  0.62950000  0.92420000  1
  C  C221  1  0.87078000  0.70136000  0.81707000  1
  C  C222  1  0.07796000  0.76895000  0.70324000  1
  C  C223  1  0.43829000  0.73014000  0.81582000  1
  C  C224  1  0.39052000  0.48073000  0.55419000  1
  C  C225  1  0.37570000  0.39038000  0.52304000  1
  C  C226  1  0.43008000  0.28462000  0.54283000  1
  C  C227  1  0.60846000  0.29946000  0.55334000  1
  C  C228  1  0.62295000  0.39421000  0.58314000  1
  C  C229  1  0.79539000  0.42276000  0.59372000  1
  C  C230  1  0.87044000  0.42998000  0.31548000  1
  C  C231  1  0.98862000  0.49767000  0.34179000  1
  C  C232  1  0.14870000  0.50578000  0.31788000  1
  C  C233  1  0.11127000  0.44833000  0.27807000  1
  C  C234  1  0.25191000  0.41005000  0.25210000  1
  C  C235  1  0.36712000  0.50338000  0.24260000  1
  C  C236  1  0.49943000  0.47263000  0.21249000  1
  C  C237  1  0.43160000  0.42019000  0.17408000  1
  C  C238  1  0.34669000  0.50378000  0.14724000  1
  C  C239  1  0.27877000  0.45515000  0.10869000  1
  C  C240  1  0.16247000  0.36383000  0.11862000  1
  C  C241  1  0.25232000  0.27962000  0.14374000  1
  C  C242  1  0.32059000  0.32265000  0.18394000  1
  C  C243  1  0.92101000  0.31365000  0.25004000  1
  C  C244  1  0.05671000  0.27317000  0.22215000  1
  C  C245  1  0.18395000  0.35995000  0.21296000  1
  C  C246  1  0.98762000  0.35991000  0.28967000  1
  C  C247  1  0.73574000  0.37820000  0.34096000  1
  C  C248  1  0.63308000  0.46972000  0.35932000  1
  C  C249  1  0.49942000  0.43378000  0.38816000  1
  C  C250  1  0.56503000  0.37309000  0.42436000  1
  C  C251  1  0.62919000  0.29980000  0.31723000  1
  C  C252  1  0.42158000  0.23160000  0.20273000  1
  C  C253  1  0.06229000  0.27007000  0.31559000  1
  C  C254  1  0.11095000  0.51886000  0.05343000  1
  C  C255  1  0.12745000  0.60975000  0.02269000  1
  C  C256  1  0.07379000  0.71501000  0.04309000  1
  C  C257  1  0.89507000  0.70086000  0.05357000  1
  C  C258  1  0.87930000  0.60508000  0.08281000  1
  C  C259  1  0.70699000  0.57690000  0.09371000  1
  C  C260  1  0.37060000  0.06996000  0.68441000  1
  C  C261  1  0.48879000  0.00201000  0.65815000  1
  C  C262  1  0.64909000  0.99425000  0.68200000  1
  C  C263  1  0.61155000  0.05169000  0.72182000  1
  C  C264  1  0.75210000  0.09008000  0.74777000  1
  C  C265  1  0.86713000  0.99669000  0.75743000  1
  C  C266  1  0.99959000  0.02758000  0.78748000  1
  C  C267  1  0.93197000  0.08075000  0.82578000  1
  C  C268  1  0.84692000  0.99768000  0.85279000  1
  C  C269  1  0.77903000  0.04692000  0.89126000  1
  C  C270  1  0.66294000  0.13829000  0.88116000  1
  C  C271  1  0.75293000  0.22197000  0.85588000  1
  C  C272  1  0.82102000  0.17827000  0.81575000  1
  C  C273  1  0.42102000  0.18641000  0.74981000  1
  C  C274  1  0.55663000  0.22718000  0.77764000  1
  C  C275  1  0.68424000  0.14059000  0.78686000  1
  C  C276  1  0.48769000  0.14003000  0.71020000  1
  C  C277  1  0.23622000  0.12200000  0.65887000  1
  C  C278  1  0.13381000  0.03078000  0.64025000  1
  C  C279  1  0.00179000  0.06718000  0.61103000  1
  C  C280  1  0.06853000  0.12733000  0.57484000  1
  C  C281  1  0.12929000  0.20007000  0.68267000  1
  C  C282  1  0.92193000  0.26899000  0.79677000  1
  C  C283  1  0.56217000  0.22978000  0.68422000  1
  C  C284  1  0.61091000  0.98373000  0.94660000  1
  C  C285  1  0.62750000  0.89282000  0.97734000  1
  C  C286  1  0.57419000  0.78758000  0.95690000  1
  C  C287  1  0.39543000  0.80166000  0.94642000  1
  C  C288  1  0.37940000  0.89744000  0.91718000  1
  C  C289  1  0.20707000  0.92586000  0.90628000  1
  C  C290  1  0.13009000  0.93003000  0.18469000  1
  C  C291  1  0.01228000  0.99801000  0.15840000  1
  C  C292  1  0.85184000  0.00596000  0.18219000  1
  C  C293  1  0.88871000  0.94820000  0.22192000  1
  C  C294  1  0.74771000  0.90958000  0.24763000  1
  C  C295  1  0.63220000  0.00281000  0.25726000  1
  C  C296  1  0.49957000  0.97175000  0.28720000  1
  C  C297  1  0.56717000  0.91887000  0.32549000  1
  C  C298  1  0.65262000  0.00211000  0.35239000  1
  C  C299  1  0.72091000  0.95333000  0.39083000  1
  C  C300  1  0.83648000  0.86155000  0.38082000  1
  C  C301  1  0.74601000  0.77780000  0.35561000  1
  C  C302  1  0.67816000  0.82132000  0.31547000  1
  C  C303  1  0.07888000  0.81342000  0.24986000  1
  C  C304  1  0.94295000  0.77250000  0.27750000  1
  C  C305  1  0.81513000  0.85901000  0.28670000  1
  C  C306  1  0.01266000  0.85989000  0.21026000  1
  C  C307  1  0.26496000  0.87811000  0.15924000  1
  C  C308  1  0.36845000  0.96940000  0.14115000  1
  C  C309  1  0.50118000  0.93306000  0.11207000  1
  C  C310  1  0.43382000  0.87305000  0.07583000  1
  C  C311  1  0.37085000  0.79934000  0.18292000  1
  C  C312  1  0.57755000  0.73050000  0.29639000  1
  C  C313  1  0.93841000  0.77021000  0.18412000  1
  C  C314  1  0.89103000  0.01764000  0.44575000  1
  C  C315  1  0.87566000  0.10932000  0.47629000  1
  C  C316  1  0.92833000  0.21449000  0.45564000  1
  C  C317  1  0.10641000  0.19957000  0.44468000  1
  C  C318  1  0.12230000  0.10236000  0.41598000  1
  C  C319  1  0.29504000  0.07364000  0.40563000  1
  O  O320  1  0.01147000  0.71533000  0.93507000  1
  O  O321  1  0.81305000  0.59168000  0.94159000  1
  O  O322  1  0.29356000  0.45501000  0.58759000  1
  O  O323  1  0.55700000  0.49166000  0.56555000  1
  O  O324  1  0.21347000  0.38689000  0.50828000  1
  O  O325  1  0.40385000  0.19496000  0.51697000  1
  O  O326  1  0.67324000  0.20166000  0.56960000  1
  O  O327  1  0.88820000  0.45035000  0.55832000  1
  O  O328  1  0.49208000  0.28538000  0.43418000  1
  O  O329  1  0.68458000  0.41259000  0.44268000  1
  O  O330  1  0.20703000  0.54454000  0.08695000  1
  O  O331  1  0.94398000  0.50808000  0.06454000  1
  O  O332  1  0.29005000  0.61301000  0.00817000  1
  O  O333  1  0.10223000  0.80519000  0.01775000  1
  O  O334  1  0.83185000  0.79862000  0.07044000  1
  O  O335  1  0.61200000  0.54983000  0.05860000  1
  O  O336  1  0.99262000  0.21303000  0.56393000  1
  O  O337  1  0.19122000  0.08931000  0.55740000  1
  O  O338  1  0.70700000  0.95791000  0.91308000  1
  O  O339  1  0.44399000  0.99444000  0.93546000  1
  O  O340  1  0.79009000  0.88961000  0.99186000  1
  O  O341  1  0.60238000  0.69731000  0.98224000  1
  O  O342  1  0.33258000  0.70398000  0.92953000  1
  O  O343  1  0.11196000  0.95283000  0.94138000  1
  O  O344  1  0.50864000  0.78696000  0.06490000  1
  O  O345  1  0.31086000  0.91134000  0.05856000  1
  O  O346  1  0.79379000  0.04267000  0.41232000  1
  O  O347  1  0.05731000  0.00592000  0.43444000  1
  O  O348  1  0.71354000  0.11119000  0.49103000  1
  O  O349  1  0.90401000  0.30583000  0.48096000  1
  O  O350  1  0.16861000  0.29620000  0.42696000  1
  O  O351  1  0.38825000  0.04727000  0.44106000  1
