# generated using pymatgen
data_H8C14NO
_symmetry_space_group_name_H-M   'P 1'
_cell_length_a   17.43250000
_cell_length_b   17.43250000
_cell_length_c   24.65320000
_cell_angle_alpha   90.00000000
_cell_angle_beta   90.00000000
_cell_angle_gamma   90.00000000
_symmetry_Int_Tables_number   1
_chemical_formula_structural   H8C14NO
_chemical_formula_sum   'H64 C112 N8 O8'
_cell_volume   7491.91164114
_cell_formula_units_Z   8
loop_
 _symmetry_equiv_pos_site_id
 _symmetry_equiv_pos_as_xyz
  1  'x, y, z'
loop_
 _atom_site_type_symbol
 _atom_site_label
 _atom_site_symmetry_multiplicity
 _atom_site_fract_x
 _atom_site_fract_y
 _atom_site_fract_z
 _atom_site_occupancy
  C  1  1  0.45369900  0.96078900  0.04304000  1
  C  2  1  0.45359700  0.87954200  0.04234500  1
  C  3  1  0.55927300  0.87960400  0.97042900  1
  C  4  1  0.55926000  0.96085000  0.96987300  1
  C  5  1  0.60490000  0.99955900  0.93062400  1
  C  6  1  0.64862800  0.96013200  0.89127500  1
  C  7  1  0.65053200  0.87933500  0.89412400  1
  C  8  1  0.60755600  0.83983400  0.93373200  1
  C  9  1  0.40534100  0.83970800  0.07901900  1
  C  10  1  0.36242100  0.87913100  0.11869300  1
  C  11  1  0.36431900  0.95990300  0.12163700  1
  C  12  1  0.40806500  0.99942700  0.08232600  1
  C  13  1  0.55948900  0.05131200  0.04293800  1
  C  14  1  0.55950200  0.13256300  0.04238300  1
  C  15  1  0.45340200  0.13264900  0.97075300  1
  C  16  1  0.45348200  0.05138900  0.97006400  1
  C  17  1  0.40495800  0.17252300  0.93420200  1
  C  18  1  0.36173400  0.13315500  0.89466200  1
  C  19  1  0.36364500  0.05240200  0.89180200  1
  C  20  1  0.40761400  0.01275700  0.93090600  1
  C  21  1  0.60542400  0.01257900  0.08200300  1
  C  22  1  0.64922700  0.05202500  0.12130900  1
  C  23  1  0.65114900  0.13282100  0.11845800  1
  C  24  1  0.60798000  0.17232300  0.07895400  1
  C  37  1  0.50648100  0.00609200  0.00647800  1
  C  38  1  0.50642700  0.17678500  0.00661400  1
  C  41  1  0.50640600  0.83538200  0.00634700  1
  C  44  1  0.34968000  0.99756800  0.17162300  1
  C  45  1  0.66329300  0.99767800  0.84124900  1
  C  46  1  0.34878500  0.01467300  0.84182900  1
  C  47  1  0.66423400  0.01433100  0.17123700  1
  C  52  1  0.05198500  0.45365500  0.54289200  1
  C  53  1  0.13322900  0.45387100  0.54218800  1
  C  54  1  0.13273600  0.55960600  0.47028900  1
  C  55  1  0.05147900  0.55935800  0.46981800  1
  C  56  1  0.01252300  0.60500500  0.43070000  1
  C  57  1  0.05179400  0.64881500  0.39134700  1
  C  58  1  0.13258100  0.65106000  0.39405800  1
  C  59  1  0.17227700  0.60800200  0.43353100  1
  C  60  1  0.17324000  0.40572600  0.57884300  1
  C  61  1  0.13397400  0.36261100  0.61849300  1
  C  62  1  0.05318800  0.36411300  0.62139900  1
  C  63  1  0.01351500  0.40777400  0.58211800  1
  C  64  1  0.96118200  0.55916400  0.54297700  1
  C  65  1  0.87992600  0.55888700  0.54254800  1
  C  66  1  0.88003500  0.45305000  0.47072500  1
  C  67  1  0.96128000  0.45334300  0.46999500  1
  C  68  1  0.84031000  0.40468800  0.43405800  1
  C  69  1  0.87981700  0.36176800  0.39442500  1
  C  70  1  0.96058600  0.36382200  0.39149400  1
  C  71  1  0.00003000  0.40764800  0.43079500  1
  C  72  1  0.99990000  0.60515200  0.58201700  1
  C  73  1  0.96035000  0.64890600  0.62125900  1
  C  74  1  0.87955300  0.65048600  0.61869800  1
  C  75  1  0.84010400  0.60705600  0.57930700  1
  C  88  1  0.00648200  0.50637800  0.50642200  1
  C  89  1  0.83579000  0.50577600  0.50674300  1
  C  92  1  0.17716900  0.50685900  0.50617700  1
  C  95  1  0.01549400  0.34945700  0.67137000  1
  C  96  1  0.01396700  0.66383300  0.34146700  1
  C  97  1  0.99843200  0.34922800  0.34157300  1
  C  98  1  0.99828600  0.66412200  0.67108600  1
  C  103  1  0.07229100  0.00514600  0.21774700  1
  C  104  1  0.04696500  0.00491600  0.16387600  1
  C  105  1  0.96691800  0.00830100  0.16386300  1
  C  106  1  0.94155200  0.00807200  0.21772000  1
  C  107  1  0.86236700  0.01119200  0.22900900  1
  C  108  1  0.80694800  0.01391100  0.18658400  1
  C  109  1  0.83451300  0.01417700  0.13238700  1
  C  110  1  0.91385700  0.01162900  0.12083100  1
  C  111  1  0.10006000  0.00157200  0.12086400  1
  C  112  1  0.17939500  0.99899100  0.13244800  1
  C  113  1  0.20689000  0.99931200  0.18666000  1
  C  114  1  0.15146400  0.00204000  0.22907500  1
  C  115  1  0.00575700  0.07193000  0.29524600  1
  C  116  1  0.00545600  0.04656200  0.34910500  1
  C  117  1  0.00850200  0.96650600  0.34908500  1
  C  118  1  0.00806500  0.94119100  0.29521000  1
  C  119  1  0.01162300  0.91339200  0.39209100  1
  C  120  1  0.01382000  0.83405200  0.38049800  1
  C  121  1  0.01340600  0.80656300  0.32628200  1
  C  122  1  0.01089300  0.86201100  0.28387600  1
  C  123  1  0.00274000  0.15111000  0.28394900  1
  C  124  1  0.00006700  0.20652200  0.32637000  1
  C  125  1  0.99991400  0.17897600  0.38057400  1
  C  126  1  0.00229000  0.09963000  0.39213800  1
  C  139  1  0.00691100  0.00658500  0.25648000  1
  C  148  1  0.00758300  0.07212000  0.71768700  1
  C  149  1  0.00780300  0.04676900  0.66382400  1
  C  150  1  0.00440000  0.96672400  0.66382800  1
  C  151  1  0.00471600  0.94138000  0.71769500  1
  C  152  1  0.00130800  0.86220900  0.72899800  1
  C  153  1  0.99845200  0.80677600  0.68658300  1
  C  154  1  0.99817600  0.83431900  0.63237800  1
  C  155  1  0.00085600  0.91365600  0.62080700  1
  C  156  1  0.01119800  0.09983100  0.62079500  1
  C  157  1  0.01386100  0.17916600  0.63235900  1
  C  158  1  0.01377300  0.20671700  0.68655900  1
  C  159  1  0.01082500  0.15129900  0.72898000  1
  C  160  1  0.94073200  0.00549600  0.79517400  1
  C  161  1  0.96604100  0.00493700  0.84904700  1
  C  162  1  0.04609100  0.00815200  0.84908400  1
  C  163  1  0.07148800  0.00799700  0.79523000  1
  C  164  1  0.09910900  0.01137000  0.89214300  1
  C  165  1  0.17846100  0.01392400  0.88062500  1
  C  166  1  0.20607600  0.01388400  0.82644100  1
  C  167  1  0.15069000  0.01115300  0.78398600  1
  C  168  1  0.86154600  0.00256400  0.78384400  1
  C  169  1  0.80611600  0.99970500  0.82625300  1
  C  170  1  0.83361000  0.99907700  0.88046300  1
  C  171  1  0.91294400  0.00145800  0.89205200  1
  C  184  1  0.00613800  0.00675800  0.75644600  1
  H  25  1  0.67807800  0.16375300  0.14818500  1
  H  26  1  0.60705000  0.23100600  0.08013000  1
  H  27  1  0.40575500  0.23121700  0.93323700  1
  H  28  1  0.33461300  0.16414900  0.86505500  1
  H  29  1  0.41201200  0.95431600  0.92764500  1
  H  30  1  0.60085000  0.95416100  0.08527000  1
  H  31  1  0.60046500  0.05800100  0.92744400  1
  H  32  1  0.67733300  0.84839300  0.86434300  1
  H  33  1  0.60662600  0.78115000  0.93256300  1
  H  34  1  0.41257600  0.05785400  0.08560100  1
  H  35  1  0.40609700  0.78101300  0.08003600  1
  H  36  1  0.33546500  0.84812400  0.14837000  1
  H  39  1  0.47114500  0.21355100  0.03247800  1
  H  40  1  0.54167100  0.21369300  0.98082500  1
  H  42  1  0.47097300  0.79861200  0.98058600  1
  H  43  1  0.54178800  0.79847400  0.03204300  1
  H  76  1  0.84861600  0.67746000  0.64840600  1
  H  77  1  0.78141400  0.60609800  0.58044900  1
  H  78  1  0.78161000  0.40521500  0.43311600  1
  H  79  1  0.84887700  0.33469700  0.36476500  1
  H  80  1  0.05843200  0.41237400  0.42747900  1
  H  81  1  0.05837600  0.60098700  0.58509400  1
  H  82  1  0.95409500  0.60034400  0.42757400  1
  H  83  1  0.16341400  0.67799200  0.36428000  1
  H  84  1  0.23096700  0.60733800  0.43240200  1
  H  85  1  0.95507300  0.41207600  0.58539800  1
  H  86  1  0.23193000  0.40672500  0.57987300  1
  H  87  1  0.16507200  0.33577500  0.64817400  1
  H  90  1  0.79921700  0.47026100  0.53258700  1
  H  91  1  0.79868400  0.54098400  0.48106900  1
  H  93  1  0.21403100  0.47156800  0.48038700  1
  H  94  1  0.21398000  0.54235600  0.53186100  1
  H  127  1  0.00099300  0.21641800  0.41237600  1
  H  128  1  0.00301800  0.08114100  0.43149100  1
  H  129  1  0.01098700  0.93185200  0.43145200  1
  H  130  1  0.01258500  0.79658800  0.41228200  1
  H  131  1  0.00986200  0.84495700  0.24416600  1
  H  132  1  0.00361400  0.16819700  0.24424400  1
  H  133  1  0.84528100  0.01025100  0.26871100  1
  H  134  1  0.79708600  0.01308500  0.10057700  1
  H  135  1  0.93235100  0.01091200  0.08148100  1
  H  136  1  0.16853600  0.00301200  0.26878000  1
  H  137  1  0.08159600  0.00227800  0.08150500  1
  H  138  1  0.21686100  0.00008100  0.10066300  1
  H  141  1  0.98646200  0.72129700  0.27581700  1
  H  143  1  0.29229300  0.02607300  0.23706800  1
  H  145  1  0.72149800  0.98772400  0.23714300  1
  H  147  1  0.02616500  0.29201800  0.27586100  1
  H  172  1  0.79614000  0.99995200  0.91225200  1
  H  173  1  0.93141000  0.00188200  0.93141400  1
  H  174  1  0.08058100  0.01063100  0.93148600  1
  H  175  1  0.21587400  0.01289700  0.91244400  1
  H  176  1  0.16781500  0.01030800  0.74429200  1
  H  177  1  0.84448000  0.00364400  0.74414200  1
  H  178  1  0.00217400  0.84514000  0.76870400  1
  H  179  1  0.99893400  0.79687700  0.60057200  1
  H  180  1  0.00146900  0.93213900  0.58145300  1
  H  181  1  0.00996500  0.16838300  0.76868400  1
  H  182  1  0.01045800  0.08134300  0.58144100  1
  H  183  1  0.01296500  0.21661800  0.60056000  1
  H  186  1  0.29161200  0.98790800  0.77590600  1
  H  188  1  0.98794200  0.29227600  0.73711800  1
  H  190  1  0.02400800  0.72126800  0.73721800  1
  H  192  1  0.72067800  0.02636900  0.77583500  1
  N  140  1  0.00673500  0.72998800  0.31228300  1
  N  142  1  0.28348800  0.00568000  0.20064600  1
  N  144  1  0.73032600  0.00739400  0.20053200  1
  N  146  1  0.00625100  0.28314400  0.31240000  1
  N  185  1  0.28271500  0.00751900  0.81252400  1
  N  187  1  0.00765300  0.28335000  0.70053100  1
  N  189  1  0.00442400  0.73012000  0.70058000  1
  N  191  1  0.72950900  0.00615600  0.81229900  1
  O  48  1  0.59824000  0.01944100  0.81528400  1
  O  49  1  0.41472000  0.01936800  0.19759100  1
  O  50  1  0.41390500  0.99380600  0.81557200  1
  O  51  1  0.59919200  0.99308200  0.19743300  1
  O  99  1  0.99207800  0.59891900  0.31537700  1
  O  100  1  0.99501000  0.41467500  0.69764900  1
  O  101  1  0.01901200  0.41445000  0.31533700  1
  O  102  1  0.01896900  0.59910000  0.69753900  1
