# generated using pymatgen
data_CuH2(C3O2)2
_symmetry_space_group_name_H-M   'P 1'
_cell_length_a   18.63499000
_cell_length_b   18.75274032
_cell_length_c   18.78050476
_cell_angle_alpha   119.87703218
_cell_angle_beta   90.03175092
_cell_angle_gamma   119.68934600
_symmetry_Int_Tables_number   1
_chemical_formula_structural   CuH2(C3O2)2
_chemical_formula_sum   'Cu12 H24 C72 O48'
_cell_volume   4669.70452536
_cell_formula_units_Z   12
loop_
 _symmetry_equiv_pos_site_id
 _symmetry_equiv_pos_as_xyz
  1  'x, y, z'
loop_
 _atom_site_type_symbol
 _atom_site_label
 _atom_site_symmetry_multiplicity
 _atom_site_fract_x
 _atom_site_fract_y
 _atom_site_fract_z
 _atom_site_occupancy
  Cu  Cu1  1  0.50314000  0.00095000  0.06722000  1.0
  Cu  Cu2  1  0.93135000  0.99773000  0.49686000  1.0
  Cu  Cu3  1  0.50384000  0.00132000  0.93712000  1.0
  Cu  Cu4  1  0.06253000  0.99737000  0.49699000  1.0
  Cu  Cu5  1  0.50143000  0.43548000  0.50123000  1.0
  Cu  Cu6  1  0.06576000  0.56589000  0.06402000  1.0
  Cu  Cu7  1  0.49890000  0.56403000  0.50021000  1.0
  Cu  Cu8  1  0.93428000  0.43712000  0.93504000  1.0
  Cu  Cu9  1  0.93633000  0.43852000  0.50254000  1.0
  Cu  Cu10  1  0.49744000  0.43077000  0.93273000  1.0
  Cu  Cu11  1  0.06725000  0.56768000  0.50187000  1.0
  Cu  Cu12  1  0.49444000  0.55870000  0.06209000  1.0
  H  H1  1  0.53068000  0.76211000  0.99751000  1.0
  H  H2  1  0.00092000  0.23221000  0.46538000  1.0
  H  H3  1  0.23885000  0.75981000  0.76489000  1.0
  H  H4  1  0.23077000  0.23599000  0.75900000  1.0
  H  H5  1  0.23239000  0.23257000  0.46647000  1.0
  H  H6  1  0.23654000  0.76009000  0.99435000  1.0
  H  H7  1  0.53228000  0.76543000  0.76972000  1.0
  H  H8  1  0.00013000  0.23719000  0.76211000  1.0
  H  H9  1  0.00846000  0.53126000  0.76481000  1.0
  H  H10  1  0.52422000  0.52972000  0.76579000  1.0
  H  H11  1  0.23291000  0.46446000  0.47094000  1.0
  H  H12  1  0.22981000  0.46141000  0.99047000  1.0
  H  H13  1  0.46868000  0.23335000  0.00362000  1.0
  H  H14  1  0.99930000  0.76966000  0.53687000  1.0
  H  H15  1  0.75992000  0.75567000  0.23286000  1.0
  H  H16  1  0.76798000  0.24558000  0.23860000  1.0
  H  H17  1  0.77028000  0.54079000  0.53762000  1.0
  H  H18  1  0.76677000  0.53519000  0.00224000  1.0
  H  H19  1  0.47133000  0.46531000  0.23252000  1.0
  H  H20  1  0.99440000  0.47915000  0.23991000  1.0
  H  H21  1  0.99533000  0.76437000  0.23160000  1.0
  H  H22  1  0.47519000  0.23897000  0.23563000  1.0
  H  H23  1  0.76572000  0.76497000  0.53129000  1.0
  H  H24  1  0.76799000  0.24491000  0.00891000  1.0
  C  C1  1  0.88632000  0.36595000  0.11907000  1.0
  C  C2  1  0.88649000  0.64611000  0.11160000  1.0
  C  C3  1  0.47218000  0.35652000  0.24383000  1.0
  C  C4  1  0.75882000  0.64891000  0.53582000  1.0
  C  C5  1  0.46886000  0.35345000  0.11287000  1.0
  C  C6  1  0.75419000  0.64160000  0.11219000  1.0
  C  C7  1  0.89032000  0.65157000  0.53887000  1.0
  C  C8  1  0.88626000  0.36661000  0.24844000  1.0
  C  C9  1  0.88777000  0.77810000  0.53582000  1.0
  C  C10  1  0.88273000  0.77035000  0.24141000  1.0
  C  C11  1  0.75852000  0.23483000  0.11861000  1.0
  C  C12  1  0.47044000  0.22579000  0.11460000  1.0
  C  C13  1  0.10964000  0.35337000  0.88195000  1.0
  C  C14  1  0.11735000  0.64151000  0.88462000  1.0
  C  C15  1  0.52909000  0.64309000  0.75787000  1.0
  C  C16  1  0.24176000  0.35249000  0.46749000  1.0
  C  C17  1  0.53351000  0.77455000  0.88892000  1.0
  C  C18  1  0.24713000  0.77062000  0.88506000  1.0
  C  C19  1  0.11132000  0.22176000  0.46434000  1.0
  C  C20  1  0.11050000  0.22685000  0.75154000  1.0
  C  C21  1  0.11133000  0.35238000  0.46661000  1.0
  C  C22  1  0.11866000  0.64163000  0.75580000  1.0
  C  C23  1  0.23945000  0.35247000  0.88008000  1.0
  C  C24  1  0.52850000  0.64180000  0.88654000  1.0
  C  C25  1  0.52224000  0.59318000  0.66389000  1.0
  C  C26  1  0.33610000  0.40277000  0.47433000  1.0
  C  C27  1  0.07241000  0.59255000  0.92871000  1.0
  C  C28  1  0.06571000  0.40292000  0.92778000  1.0
  C  C29  1  0.06735000  0.40300000  0.47283000  1.0
  C  C30  1  0.07446000  0.59305000  0.66291000  1.0
  C  C31  1  0.52115000  0.59063000  0.92954000  1.0
  C  C32  1  0.33285000  0.40063000  0.92457000  1.0
  C  C33  1  0.34054000  0.85917000  0.92978000  1.0
  C  C34  1  0.53032000  0.86423000  0.93402000  1.0
  C  C35  1  0.06687000  0.13300000  0.46867000  1.0
  C  C36  1  0.06663000  0.13963000  0.65833000  1.0
  C  C37  1  0.47872000  0.40700000  0.33776000  1.0
  C  C38  1  0.66432000  0.59732000  0.52810000  1.0
  C  C39  1  0.93178000  0.59783000  0.06745000  1.0
  C  C40  1  0.93045000  0.41392000  0.07390000  1.0
  C  C41  1  0.93041000  0.86405000  0.52764000  1.0
  C  C42  1  0.92561000  0.85645000  0.33515000  1.0
  C  C43  1  0.47579000  0.13752000  0.07106000  1.0
  C  C44  1  0.66609000  0.14422000  0.07361000  1.0
  C  C45  1  0.65977000  0.59008000  0.06813000  1.0
  C  C46  1  0.47270000  0.40169000  0.06776000  1.0
  C  C47  1  0.93494000  0.60188000  0.53288000  1.0
  C  C48  1  0.93046000  0.41532000  0.34144000  1.0
  C  C49  1  0.80119000  0.27840000  0.07570000  1.0
  C  C50  1  0.92828000  0.73071000  0.19781000  1.0
  C  C51  1  0.47215000  0.27035000  0.20119000  1.0
  C  C52  1  0.80093000  0.73421000  0.53485000  1.0
  C  C53  1  0.47035000  0.39786000  0.19947000  1.0
  C  C54  1  0.79958000  0.60179000  0.06868000  1.0
  C  C55  1  0.80361000  0.60789000  0.53823000  1.0
  C  C56  1  0.92886000  0.41034000  0.20564000  1.0
  C  C57  1  0.93255000  0.73693000  0.53796000  1.0
  C  C58  1  0.79574000  0.72597000  0.19860000  1.0
  C  C59  1  0.80119000  0.27889000  0.20502000  1.0
  C  C60  1  0.46870000  0.26721000  0.07037000  1.0
  C  C61  1  0.19590000  0.39496000  0.92401000  1.0
  C  C62  1  0.07486000  0.59860000  0.79862000  1.0
  C  C63  1  0.52758000  0.59866000  0.80020000  1.0
  C  C64  1  0.19828000  0.39577000  0.46779000  1.0
  C  C65  1  0.53236000  0.73133000  0.80249000  1.0
  C  C66  1  0.20332000  0.72759000  0.92791000  1.0
  C  C67  1  0.19822000  0.26531000  0.46557000  1.0
  C  C68  1  0.06672000  0.26903000  0.79552000  1.0
  C  C69  1  0.06784000  0.26517000  0.46477000  1.0
  C  C70  1  0.20468000  0.72757000  0.79885000  1.0
  C  C71  1  0.19679000  0.26836000  0.79372000  1.0
  C  C72  1  0.53157000  0.72984000  0.93105000  1.0
  O  O1  1  0.52395000  0.51562000  0.62837000  1.0
  O  O2  1  0.37125000  0.48075000  0.47358000  1.0
  O  O3  1  0.99395000  0.51408000  0.88575000  1.0
  O  O4  1  0.11008000  0.48211000  0.00538000  1.0
  O  O5  1  0.98885000  0.36209000  0.47442000  1.0
  O  O6  1  0.11776000  0.63528000  0.62683000  1.0
  O  O7  1  0.51724000  0.63055000  0.00671000  1.0
  O  O8  1  0.37039000  0.35993000  0.88157000  1.0
  O  O9  1  0.37572000  0.89521000  0.00856000  1.0
  O  O10  1  0.53145000  0.90113000  0.89182000  1.0
  O  O11  1  0.11062000  0.09826000  0.47062000  1.0
  O  O12  1  0.98826000  0.10525000  0.62223000  1.0
  O  O13  1  0.47910000  0.36473000  0.37416000  1.0
  O  O14  1  0.62682000  0.63878000  0.52752000  1.0
  O  O15  1  0.00994000  0.63882000  0.11059000  1.0
  O  O16  1  0.88627000  0.37227000  0.99630000  1.0
  O  O17  1  0.00847000  0.89777000  0.52488000  1.0
  O  O18  1  0.88136000  0.89046000  0.37141000  1.0
  O  O19  1  0.47547000  0.10111000  0.99240000  1.0
  O  O20  1  0.63055000  0.10776000  0.11611000  1.0
  O  O21  1  0.62457000  0.51061000  0.99056000  1.0
  O  O22  1  0.47265000  0.48031000  0.11047000  1.0
  O  O23  1  0.89159000  0.52247000  0.53148000  1.0
  O  O24  1  0.00906000  0.49372000  0.37701000  1.0
  O  O25  1  0.48489000  0.48945000  0.37471000  1.0
  O  O26  1  0.62788000  0.51428000  0.52063000  1.0
  O  O27  1  0.00839000  0.49353000  0.11680000  1.0
  O  O28  1  0.88732000  0.51717000  0.99052000  1.0
  O  O29  1  0.01170000  0.64075000  0.52687000  1.0
  O  O30  1  0.88572000  0.37535000  0.37842000  1.0
  O  O31  1  0.47773000  0.36218000  0.99100000  1.0
  O  O32  1  0.62122000  0.62847000  0.11219000  1.0
  O  O33  1  0.62919000  0.11160000  0.99655000  1.0
  O  O34  1  0.48216000  0.10661000  0.11653000  1.0
  O  O35  1  0.88473000  0.89530000  0.52172000  1.0
  O  O36  1  0.00268000  0.88811000  0.37206000  1.0
  O  O37  1  0.51343000  0.63061000  0.62595000  1.0
  O  O38  1  0.37473000  0.36523000  0.48220000  1.0
  O  O39  1  0.98790000  0.36347000  0.88493000  1.0
  O  O40  1  0.11690000  0.63225000  0.00553000  1.0
  O  O41  1  0.98920000  0.10043000  0.47233000  1.0
  O  O42  1  0.11171000  0.10715000  0.62172000  1.0
  O  O43  1  0.52443000  0.89547000  0.01043000  1.0
  O  O44  1  0.37838000  0.89066000  0.88490000  1.0
  O  O45  1  0.36835000  0.48026000  0.00204000  1.0
  O  O46  1  0.51766000  0.50982000  0.88506000  1.0
  O  O47  1  0.11262000  0.48475000  0.47807000  1.0
  O  O48  1  0.99736000  0.51219000  0.62652000  1.0
