# generated using pymatgen
data_H11C17(NO)2
_symmetry_space_group_name_H-M   'P 1'
_cell_length_a   31.28690000
_cell_length_b   36.71050000
_cell_length_c   36.71050000
_cell_angle_alpha   89.99980000
_cell_angle_beta   89.99970000
_cell_angle_gamma   89.99980000
_symmetry_Int_Tables_number   1
_chemical_formula_structural   H11C17(NO)2
_chemical_formula_sum   'H176 C272 N32 O32'
_cell_volume   42164.12900312
_cell_formula_units_Z   16
loop_
 _symmetry_equiv_pos_site_id
 _symmetry_equiv_pos_as_xyz
  1  'x, y, z'
loop_
 _atom_site_type_symbol
 _atom_site_label
 _atom_site_symmetry_multiplicity
 _atom_site_fract_x
 _atom_site_fract_y
 _atom_site_fract_z
 _atom_site_occupancy
  H  9  1  0.00153000  0.01991100  0.10720400  1
  H  17  1  0.00151900  0.02005800  0.85890600  1
  H  19  1  0.02038500  0.93038900  0.95110400  1
  H  20  1  0.02038500  0.93034600  0.01488700  1
  H  21  1  0.98261700  0.10961200  0.95122300  1
  H  22  1  0.98261400  0.10956900  0.01500300  1
  H  39  1  0.50157400  0.01998500  0.35889500  1
  H  47  1  0.50152900  0.01992600  0.60719700  1
  H  49  1  0.52047600  0.10955400  0.51496200  1
  H  50  1  0.52050500  0.10956700  0.45117600  1
  H  51  1  0.48255600  0.93035400  0.51491000  1
  H  52  1  0.48256000  0.93037400  0.45112700  1
  H  69  1  0.75154200  0.39389900  0.73310100  1
  H  77  1  0.75148400  0.14567600  0.73304600  1
  H  79  1  0.77244600  0.23768800  0.82224500  1
  H  80  1  0.77162500  0.30150900  0.82251500  1
  H  81  1  0.73060600  0.23773700  0.64386900  1
  H  82  1  0.73147500  0.30155800  0.64362600  1
  H  99  1  0.25152000  0.64609300  0.73313200  1
  H  107  1  0.25150700  0.89431800  0.73305000  1
  H  109  1  0.27240400  0.80224400  0.64388300  1
  H  110  1  0.27158600  0.73842100  0.64366000  1
  H  111  1  0.23061700  0.80231500  0.82227000  1
  H  112  1  0.23145400  0.73849100  0.82254800  1
  H  129  1  0.25153900  0.64611500  0.23305300  1
  H  137  1  0.25153900  0.89433700  0.23304700  1
  H  139  1  0.23069400  0.80230200  0.14384900  1
  H  140  1  0.23152500  0.73847700  0.14359600  1
  H  141  1  0.27238500  0.80230100  0.32225300  1
  H  142  1  0.27155400  0.73848000  0.32250400  1
  H  159  1  0.75152700  0.39388600  0.23302200  1
  H  167  1  0.75153200  0.14566300  0.23299300  1
  H  169  1  0.73061200  0.23768800  0.32219300  1
  H  170  1  0.73142900  0.30151400  0.32244900  1
  H  171  1  0.77244800  0.23771500  0.14381100  1
  H  172  1  0.77163000  0.30153600  0.14357400  1
  H  189  1  0.50155100  0.52000300  0.60712800  1
  H  197  1  0.50146200  0.51994800  0.35897500  1
  H  199  1  0.52348100  0.43094900  0.45112900  1
  H  200  1  0.52350600  0.43096300  0.51499900  1
  H  201  1  0.47952600  0.60899100  0.45109600  1
  H  202  1  0.47956100  0.60901000  0.51496900  1
  H  219  1  0.00148700  0.52001000  0.85897800  1
  H  227  1  0.00151600  0.51998800  0.10712700  1
  H  229  1  0.02339300  0.60903900  0.01499700  1
  H  230  1  0.02335400  0.60905000  0.95112700  1
  H  231  1  0.97966000  0.43095300  0.01498500  1
  H  232  1  0.97964900  0.43095900  0.95111200  1
  H  246  1  0.95720400  0.14719600  0.12123900  1
  H  248  1  0.80433800  0.13946500  0.10500800  1
  H  249  1  0.84981800  0.10184400  0.06978900  1
  H  251  1  0.95333200  0.18756000  0.16984100  1
  H  252  1  0.90675800  0.18308700  0.19642500  1
  H  253  1  0.91082300  0.21832000  0.16333600  1
  H  255  1  0.91917300  0.08554300  0.05161400  1
  H  257  1  0.83674300  0.20513300  0.16988800  1
  H  263  1  0.45716200  0.89271400  0.34492700  1
  H  265  1  0.30428700  0.90058800  0.36103400  1
  H  266  1  0.34977200  0.93818700  0.39626900  1
  H  268  1  0.45329500  0.85234400  0.29633300  1
  H  269  1  0.40675500  0.85684000  0.26971200  1
  H  270  1  0.41075000  0.82161700  0.30281900  1
  H  272  1  0.41913700  0.95441700  0.41450900  1
  H  274  1  0.33669600  0.83486000  0.29620600  1
  H  280  1  0.70725600  0.40797700  0.60592000  1
  H  282  1  0.55433100  0.39211800  0.61332200  1
  H  283  1  0.59955700  0.35682000  0.65106600  1
  H  285  1  0.70370200  0.45651100  0.56547400  1
  H  286  1  0.65727200  0.48328500  0.56989500  1
  H  287  1  0.66119300  0.45015900  0.53468200  1
  H  289  1  0.66875300  0.33860200  0.66769900  1
  H  291  1  0.58716900  0.45718100  0.54791300  1
  H  297  1  0.20715700  0.63214300  0.86029000  1
  H  299  1  0.05422700  0.64786900  0.85264900  1
  H  300  1  0.09949200  0.68315100  0.81491700  1
  H  302  1  0.20358000  0.58364800  0.90078100  1
  H  303  1  0.15717700  0.55684300  0.89635200  1
  H  304  1  0.16102200  0.59002200  0.93151900  1
  H  306  1  0.16870600  0.70141500  0.79839800  1
  H  308  1  0.08703300  0.58294800  0.91821400  1
  H  314  1  0.54591500  0.14730000  0.34499400  1
  H  316  1  0.69879900  0.13945700  0.36104600  1
  H  317  1  0.65333400  0.10186300  0.39631700  1
  H  319  1  0.54975100  0.18764000  0.29637000  1
  H  320  1  0.59627800  0.18312900  0.26973500  1
  H  321  1  0.59229600  0.21837500  0.30281800  1
  H  323  1  0.58396000  0.08563700  0.41458200  1
  H  325  1  0.66635900  0.20514400  0.29619300  1
  H  331  1  0.04590400  0.89267700  0.12116200  1
  H  333  1  0.19877300  0.90051500  0.10499100  1
  H  334  1  0.15327100  0.93809800  0.06974300  1
  H  336  1  0.04979000  0.85233900  0.16978300  1
  H  337  1  0.09635000  0.85684400  0.19637700  1
  H  338  1  0.09232200  0.82159800  0.16329700  1
  H  340  1  0.08389400  0.95429600  0.05151600  1
  H  342  1  0.16639200  0.83481800  0.16983400  1
  H  348  1  0.79586700  0.40784100  0.86029700  1
  H  350  1  0.94879700  0.39214200  0.85265800  1
  H  351  1  0.90354700  0.35685500  0.81492600  1
  H  353  1  0.79942700  0.45631700  0.90080400  1
  H  354  1  0.84580700  0.48314900  0.89635500  1
  H  355  1  0.84200400  0.44997000  0.93152900  1
  H  357  1  0.83435100  0.33859100  0.79838600  1
  H  359  1  0.91597600  0.45712000  0.91817900  1
  H  365  1  0.29581700  0.63214000  0.60585900  1
  H  367  1  0.44875000  0.64788200  0.61338700  1
  H  368  1  0.40352000  0.68316100  0.65115000  1
  H  370  1  0.29936500  0.58364500  0.56536100  1
  H  371  1  0.34576700  0.55683700  0.56978500  1
  H  372  1  0.34191000  0.59000200  0.53460400  1
  H  374  1  0.33431200  0.70140600  0.66773400  1
  H  376  1  0.41591500  0.58292200  0.54787800  1
  H  382  1  0.04586200  0.89273100  0.84492500  1
  H  384  1  0.19873400  0.90052300  0.86109900  1
  H  385  1  0.15324600  0.93812500  0.89633900  1
  H  387  1  0.04973600  0.85237500  0.79631200  1
  H  388  1  0.09629500  0.85687300  0.76971200  1
  H  389  1  0.09226800  0.82163300  0.80279800  1
  H  391  1  0.08387800  0.95435000  0.91455100  1
  H  393  1  0.16634400  0.83484400  0.79624000  1
  H  399  1  0.54584200  0.14723500  0.62118500  1
  H  401  1  0.69872200  0.13949800  0.60503300  1
  H  402  1  0.65326700  0.10187200  0.56979300  1
  H  404  1  0.54968700  0.18758300  0.66980300  1
  H  405  1  0.59624900  0.18311600  0.69640200  1
  H  406  1  0.59219700  0.21834800  0.66331400  1
  H  408  1  0.58390900  0.08560100  0.55156200  1
  H  410  1  0.66628500  0.20519100  0.66987600  1
  H  416  1  0.29577200  0.63210800  0.36023400  1
  H  418  1  0.44870800  0.64787900  0.35278600  1
  H  419  1  0.40349100  0.68318500  0.31503400  1
  H  421  1  0.29930700  0.58359000  0.40070800  1
  H  422  1  0.34571600  0.55678800  0.39628400  1
  H  423  1  0.34183600  0.58993400  0.43148100  1
  H  425  1  0.33429900  0.70142500  0.29840400  1
  H  427  1  0.41585700  0.58287900  0.41823900  1
  H  433  1  0.79586500  0.40779400  0.10578000  1
  H  435  1  0.94879600  0.39206000  0.11334100  1
  H  436  1  0.90355600  0.35677600  0.15109400  1
  H  438  1  0.79941900  0.45630100  0.06529900  1
  H  439  1  0.84581700  0.48311100  0.06973600  1
  H  440  1  0.84197100  0.44995100  0.03455000  1
  H  442  1  0.83434800  0.33853900  0.16768600  1
  H  444  1  0.91597000  0.45702800  0.04784500  1
  H  450  1  0.45713700  0.89266600  0.62108700  1
  H  452  1  0.30425500  0.90063500  0.60508400  1
  H  453  1  0.34973700  0.93824400  0.56985400  1
  H  455  1  0.45328500  0.85223600  0.66962900  1
  H  456  1  0.40677700  0.85673400  0.69629200  1
  H  457  1  0.41070500  0.82154300  0.66314600  1
  H  459  1  0.41910500  0.95442800  0.55158700  1
  H  461  1  0.33667100  0.83483200  0.66985000  1
  H  467  1  0.95716800  0.14728300  0.84496600  1
  H  469  1  0.80429000  0.13943800  0.86107500  1
  H  470  1  0.84977100  0.10183600  0.89632200  1
  H  472  1  0.95331000  0.18765800  0.79637600  1
  H  473  1  0.90677100  0.18315800  0.76975300  1
  H  474  1  0.91076300  0.21838800  0.80285100  1
  H  476  1  0.91913400  0.08560800  0.91455300  1
  H  478  1  0.83670300  0.20514700  0.79624200  1
  H  484  1  0.20721100  0.63212400  0.10585300  1
  H  486  1  0.05427800  0.64784800  0.11345100  1
  H  487  1  0.09952700  0.68314500  0.15117800  1
  H  489  1  0.20364400  0.58361800  0.06536900  1
  H  490  1  0.15724100  0.55681400  0.06980100  1
  H  491  1  0.16109300  0.58998100  0.03462300  1
  H  493  1  0.16874100  0.70144000  0.16767700  1
  H  495  1  0.08708700  0.58291000  0.04790600  1
  H  501  1  0.70720300  0.40780600  0.36027200  1
  H  503  1  0.55427000  0.39204500  0.35276800  1
  H  504  1  0.59950000  0.35675800  0.31501000  1
  H  506  1  0.70365600  0.45632000  0.40074200  1
  H  507  1  0.65725300  0.48312500  0.39630800  1
  H  508  1  0.66111700  0.44997900  0.43150700  1
  H  510  1  0.66870800  0.33852300  0.29840100  1
  H  512  1  0.58711100  0.45705100  0.41823300  1
  C  1  1  0.00150300  0.01996500  0.00255100  1
  C  2  1  0.01098200  0.98736200  0.02206700  1
  C  3  1  0.01365100  0.98788200  0.06075900  1
  C  4  1  0.00151300  0.01991900  0.07930100  1
  C  5  1  0.98933100  0.05196400  0.06079600  1
  C  6  1  0.99201900  0.05254400  0.02210700  1
  C  7  1  0.01651800  0.95482500  0.00204600  1
  C  8  1  0.98648800  0.08510700  0.00213200  1
  C  10  1  0.00151100  0.01999200  0.96355700  1
  C  11  1  0.01099800  0.98741600  0.94400100  1
  C  12  1  0.01367600  0.98799000  0.90531100  1
  C  13  1  0.00151400  0.02004100  0.88681000  1
  C  14  1  0.98935900  0.05207300  0.90534900  1
  C  15  1  0.99203600  0.05259900  0.94404100  1
  C  16  1  0.01653000  0.95485200  0.96397700  1
  C  18  1  0.98649300  0.08513400  0.96406200  1
  C  23  1  0.97195600  0.08119000  0.08189600  1
  C  24  1  0.03109900  0.95863400  0.08178600  1
  C  25  1  0.03114000  0.95880500  0.88421600  1
  C  26  1  0.97198400  0.08135900  0.88431900  1
  C  31  1  0.50154200  0.01996600  0.46354900  1
  C  32  1  0.51107300  0.05255400  0.44402100  1
  C  33  1  0.51376400  0.05200400  0.40533200  1
  C  34  1  0.50156100  0.01998300  0.38680000  1
  C  35  1  0.48933600  0.98795800  0.40531500  1
  C  36  1  0.49202000  0.98738900  0.44400400  1
  C  37  1  0.51662200  0.08509500  0.46402600  1
  C  38  1  0.48645300  0.95483700  0.46399300  1
  C  40  1  0.50153600  0.01995600  0.50254400  1
  C  41  1  0.51104400  0.05253700  0.52208800  1
  C  42  1  0.51371600  0.05197100  0.56077700  1
  C  43  1  0.50152600  0.01993400  0.57929300  1
  C  44  1  0.48934200  0.98790600  0.56076100  1
  C  45  1  0.49202400  0.98736500  0.52207100  1
  C  46  1  0.51659900  0.08508900  0.50209900  1
  C  48  1  0.48644900  0.95482600  0.50206100  1
  C  53  1  0.47192900  0.95873800  0.38422000  1
  C  54  1  0.53122500  0.08120800  0.38425600  1
  C  55  1  0.53116100  0.08116700  0.58186900  1
  C  56  1  0.47196700  0.95864300  0.58182300  1
  C  61  1  0.75154500  0.28927300  0.73306800  1
  C  62  1  0.76143500  0.30877400  0.76559200  1
  C  63  1  0.76394700  0.34747100  0.76506300  1
  C  64  1  0.75155100  0.36599700  0.73308900  1
  C  65  1  0.73916000  0.34748800  0.70110300  1
  C  66  1  0.74165800  0.30879300  0.70055600  1
  C  67  1  0.76749500  0.28871700  0.79804600  1
  C  68  1  0.73559400  0.28875200  0.66809100  1
  C  70  1  0.75153400  0.25029200  0.73305900  1
  C  71  1  0.76220400  0.23073400  0.76533200  1
  C  72  1  0.76594500  0.19210700  0.76440800  1
  C  73  1  0.75149900  0.17356200  0.73304700  1
  C  74  1  0.73708500  0.19212900  0.70168400  1
  C  75  1  0.74085100  0.23075000  0.70077900  1
  C  76  1  0.76801900  0.25064900  0.79789200  1
  C  78  1  0.73504300  0.25068400  0.66822700  1
  C  83  1  0.72175800  0.36858000  0.67188500  1
  C  84  1  0.78128300  0.36856900  0.79431000  1
  C  85  1  0.78679900  0.17147000  0.79233900  1
  C  86  1  0.71621900  0.17153800  0.67371600  1
  C  91  1  0.25152700  0.75072200  0.73309900  1
  C  92  1  0.26141600  0.73119900  0.70058900  1
  C  93  1  0.26390600  0.69250500  0.70113700  1
  C  94  1  0.25152300  0.67399800  0.73312500  1
  C  95  1  0.23916700  0.69252600  0.76511200  1
  C  96  1  0.24165000  0.73122300  0.76562700  1
  C  97  1  0.26746900  0.75123300  0.66812100  1
  C  98  1  0.23557700  0.75128300  0.79807800  1
  C  100  1  0.25152000  0.78970200  0.73308200  1
  C  101  1  0.26216700  0.80924100  0.70079300  1
  C  102  1  0.26588100  0.84786900  0.70167300  1
  C  103  1  0.25151100  0.86642900  0.73305500  1
  C  104  1  0.23713100  0.84788500  0.76443900  1
  C  105  1  0.24085800  0.80926200  0.76535600  1
  C  106  1  0.26797800  0.78930200  0.66824400  1
  C  108  1  0.23505300  0.78935100  0.79792000  1
  C  113  1  0.22177300  0.67144500  0.79434400  1
  C  114  1  0.28134400  0.67137400  0.67197300  1
  C  115  1  0.28673600  0.86846800  0.67370800  1
  C  116  1  0.21625000  0.86852600  0.79235200  1
  C  121  1  0.25153900  0.75074100  0.23305000  1
  C  122  1  0.24167900  0.73122900  0.20052500  1
  C  123  1  0.23919200  0.69253200  0.20105400  1
  C  124  1  0.25154600  0.67401900  0.23304800  1
  C  125  1  0.26391200  0.69253400  0.26503800  1
  C  126  1  0.26140300  0.73123100  0.26557500  1
  C  127  1  0.23563200  0.75127900  0.16806600  1
  C  128  1  0.26743700  0.75128000  0.29803700  1
  C  130  1  0.25153600  0.78972200  0.23305000  1
  C  131  1  0.24089600  0.80927100  0.20076500  1
  C  132  1  0.23716300  0.84789600  0.20166600  1
  C  133  1  0.25153900  0.86644900  0.23304700  1
  C  134  1  0.26591300  0.84789800  0.26443300  1
  C  135  1  0.26217000  0.80927300  0.26533800  1
  C  136  1  0.23510400  0.78934700  0.16820800  1
  C  138  1  0.26795800  0.78934800  0.29789500  1
  C  143  1  0.28125800  0.67145100  0.29429200  1
  C  144  1  0.22176300  0.67144800  0.17184500  1
  C  145  1  0.21628500  0.86852500  0.17374500  1
  C  146  1  0.28673000  0.86850400  0.29242200  1
  C  151  1  0.75152700  0.28925600  0.23300900  1
  C  152  1  0.74161300  0.30876300  0.26552500  1
  C  153  1  0.73910700  0.34745800  0.26498800  1
  C  154  1  0.75153100  0.36598100  0.23301900  1
  C  155  1  0.76396400  0.34746600  0.20105000  1
  C  156  1  0.76144100  0.30877100  0.20050000  1
  C  157  1  0.73555300  0.28871400  0.29798200  1
  C  158  1  0.76749800  0.28873100  0.16803500  1
  C  160  1  0.75152500  0.25027600  0.23300300  1
  C  161  1  0.74085700  0.23072500  0.26528000  1
  C  162  1  0.73712200  0.19210200  0.26436500  1
  C  163  1  0.75152900  0.17354800  0.23299500  1
  C  164  1  0.76592500  0.19210400  0.20162000  1
  C  165  1  0.76218800  0.23073100  0.20072100  1
  C  166  1  0.73504400  0.25064600  0.29783800  1
  C  168  1  0.76801600  0.25066200  0.16817200  1
  C  173  1  0.78136300  0.36858800  0.17185700  1
  C  174  1  0.72166000  0.36857700  0.29415700  1
  C  175  1  0.71625800  0.17146500  0.29229200  1
  C  176  1  0.78675900  0.17150200  0.17363900  1
  C  181  1  0.50152300  0.51998400  0.50253400  1
  C  182  1  0.51257200  0.48778600  0.52206500  1
  C  183  1  0.51618100  0.48869800  0.56069700  1
  C  184  1  0.50154800  0.52000000  0.57923900  1
  C  185  1  0.48690300  0.55129400  0.56068600  1
  C  186  1  0.49048300  0.55219000  0.52205400  1
  C  187  1  0.51884900  0.45531300  0.50209500  1
  C  188  1  0.48420200  0.58465500  0.50207300  1
  C  190  1  0.50150700  0.51997300  0.46356700  1
  C  191  1  0.51255300  0.48777000  0.44404600  1
  C  192  1  0.51614500  0.48867100  0.40541400  1
  C  193  1  0.50147200  0.51995400  0.38686400  1
  C  194  1  0.48682000  0.55124700  0.40540900  1
  C  195  1  0.49044100  0.55216500  0.44403800  1
  C  196  1  0.51883700  0.45530500  0.46402400  1
  C  198  1  0.48417700  0.58464400  0.46400200  1
  C  203  1  0.46601600  0.57919000  0.58133700  1
  C  204  1  0.53700400  0.46076600  0.58136400  1
  C  205  1  0.53702000  0.46078000  0.38474700  1
  C  206  1  0.46593600  0.57912800  0.38473600  1
  C  211  1  0.00149000  0.52000400  0.96356900  1
  C  212  1  0.01247400  0.55222100  0.94404600  1
  C  213  1  0.01603200  0.55134100  0.90541100  1
  C  214  1  0.00148000  0.52001200  0.88686600  1
  C  215  1  0.98693400  0.48868100  0.90540900  1
  C  216  1  0.99050300  0.48779000  0.94404300  1
  C  217  1  0.01873300  0.58469100  0.96402400  1
  C  218  1  0.98426600  0.45531400  0.96401400  1
  C  220  1  0.00149800  0.52000100  0.00253600  1
  C  221  1  0.01250600  0.55221000  0.02206600  1
  C  222  1  0.01608300  0.55131700  0.06069800  1
  C  223  1  0.00151100  0.51999300  0.07923900  1
  C  224  1  0.98692700  0.48867800  0.06069100  1
  C  225  1  0.99050000  0.48779000  0.02205900  1
  C  226  1  0.01875800  0.58468600  0.00209400  1
  C  228  1  0.98426800  0.45531200  0.00208400  1
  C  233  1  0.96613100  0.46074100  0.88473400  1
  C  234  1  0.03690600  0.57926000  0.88476900  1
  C  235  1  0.03696100  0.57923000  0.08134300  1
  C  236  1  0.96604000  0.46079500  0.08136100  1
  C  241  1  0.90818600  0.11899700  0.09375200  1
  C  242  1  0.92487900  0.14421000  0.11916400  1
  C  243  1  0.89820500  0.16574100  0.14169700  1
  C  244  1  0.85286700  0.16287300  0.13813700  1
  C  245  1  0.83641400  0.14043800  0.11010900  1
  C  247  1  0.86340200  0.11866500  0.08876100  1
  C  250  1  0.91854900  0.18994900  0.16929400  1
  C  258  1  0.40814800  0.92095900  0.37237400  1
  C  259  1  0.42483600  0.89572900  0.34697500  1
  C  260  1  0.39816300  0.87421600  0.32442900  1
  C  261  1  0.35282500  0.87712200  0.32795400  1
  C  262  1  0.33636700  0.89958700  0.35595400  1
  C  264  1  0.36335600  0.92133500  0.37732600  1
  C  267  1  0.41851000  0.84998100  0.29685600  1
  C  275  1  0.65805800  0.38065300  0.63405700  1
  C  276  1  0.67491800  0.40599700  0.60885700  1
  C  277  1  0.64839300  0.42859800  0.58726700  1
  C  278  1  0.60303500  0.42518000  0.59006700  1
  C  279  1  0.58642100  0.39716300  0.61243400  1
  C  281  1  0.61326300  0.37573900  0.63425900  1
  C  284  1  0.66891900  0.45610200  0.56305800  1
  C  292  1  0.15798300  0.65938900  0.83204500  1
  C  293  1  0.17482000  0.63408800  0.85730400  1
  C  294  1  0.14827900  0.61149800  0.87889000  1
  C  295  1  0.10292400  0.61488700  0.87602800  1
  C  296  1  0.08632000  0.64284600  0.85358800  1
  C  298  1  0.11318100  0.66425100  0.83175700  1
  C  301  1  0.16879200  0.58404300  0.90316000  1
  C  309  1  0.59494800  0.11906000  0.37241700  1
  C  310  1  0.57824200  0.14428500  0.34702300  1
  C  311  1  0.60490200  0.16579300  0.32446000  1
  C  312  1  0.65024000  0.16289200  0.32796900  1
  C  313  1  0.66671700  0.14044400  0.35597400  1
  C  315  1  0.63974000  0.11869200  0.37735800  1
  C  318  1  0.58453500  0.19000700  0.29687700  1
  C  326  1  0.09490800  0.92089600  0.09367900  1
  C  327  1  0.07822700  0.89568400  0.11909700  1
  C  328  1  0.10490900  0.87417700  0.14164300  1
  C  329  1  0.15024500  0.87707500  0.13809400  1
  C  330  1  0.16669600  0.89952500  0.11008300  1
  C  332  1  0.13969700  0.92126400  0.08870700  1
  C  335  1  0.08457500  0.84996700  0.16924300  1
  C  343  1  0.84504600  0.38060300  0.83205200  1
  C  344  1  0.82820300  0.40589300  0.85731700  1
  C  345  1  0.85473800  0.42849400  0.87889900  1
  C  346  1  0.90009600  0.42511900  0.87603500  1
  C  347  1  0.91670300  0.39715900  0.85359800  1
  C  349  1  0.88984800  0.37573800  0.83177900  1
  C  352  1  0.83421600  0.45594400  0.90317200  1
  C  360  1  0.34501300  0.65938800  0.63406800  1
  C  361  1  0.32815300  0.63409600  0.60881700  1
  C  362  1  0.35467800  0.61150000  0.58721800  1
  C  363  1  0.40003600  0.61489100  0.59005400  1
  C  364  1  0.41665600  0.64285900  0.61247200  1
  C  366  1  0.38981500  0.66427000  0.63431300  1
  C  369  1  0.33415200  0.58403700  0.56296900  1
  C  377  1  0.09487900  0.92094800  0.87239300  1
  C  378  1  0.07818900  0.89572900  0.84698700  1
  C  379  1  0.10486100  0.87421500  0.82444100  1
  C  380  1  0.15020000  0.87710500  0.82798500  1
  C  381  1  0.16665700  0.89953700  0.85600900  1
  C  383  1  0.13966500  0.92129800  0.87737200  1
  C  386  1  0.08452100  0.85000200  0.79684700  1
  C  394  1  0.59488100  0.11904100  0.59371600  1
  C  395  1  0.57817100  0.14424700  0.61912800  1
  C  396  1  0.60482800  0.16577200  0.64167700  1
  C  397  1  0.65017000  0.16290300  0.63813600  1
  C  398  1  0.66666667  0.14046800  0.61012200  1
  C  400  1  0.63966700  0.11870600  0.58874700  1
  C  403  1  0.58447100  0.18997700  0.66926900  1
  C  411  1  0.34498100  0.65938600  0.33206500  1
  C  412  1  0.32811100  0.63406600  0.35728700  1
  C  413  1  0.35462700  0.61146200  0.37888300  1
  C  414  1  0.39998500  0.61485300  0.37606100  1
  C  415  1  0.41661200  0.64285100  0.35368300  1
  C  417  1  0.38977900  0.66427000  0.33184400  1
  C  420  1  0.33409200  0.58398200  0.40311000  1
  C  428  1  0.84505500  0.38055400  0.13400900  1
  C  429  1  0.82820200  0.40584900  0.10875500  1
  C  430  1  0.85473000  0.42844800  0.08716400  1
  C  431  1  0.90008700  0.42506200  0.09001300  1
  C  432  1  0.91670200  0.39708600  0.11242400  1
  C  434  1  0.88985500  0.37567800  0.13426200  1
  C  437  1  0.83420600  0.45591400  0.06291200  1
  C  445  1  0.40811900  0.92096800  0.59370500  1
  C  446  1  0.42481000  0.89570200  0.61906600  1
  C  447  1  0.39814100  0.87417200  0.64159900  1
  C  448  1  0.35280200  0.87710700  0.63810700  1
  C  449  1  0.33633500  0.89961700  0.61014800  1
  C  451  1  0.36332400  0.92137900  0.58878600  1
  C  454  1  0.41849800  0.84989600  0.66913400  1
  C  462  1  0.90814700  0.11904900  0.87241600  1
  C  463  1  0.92484200  0.14427600  0.84701800  1
  C  464  1  0.89817200  0.16579500  0.82447300  1
  C  465  1  0.85283400  0.16289400  0.82800000  1
  C  466  1  0.83636900  0.14043000  0.85599600  1
  C  468  1  0.86335700  0.11868100  0.87737200  1
  C  471  1  0.91852400  0.19002300  0.79689500  1
  C  479  1  0.15802700  0.65937800  0.13407400  1
  C  480  1  0.17487100  0.63407500  0.10882500  1
  C  481  1  0.14834000  0.61147400  0.08724300  1
  C  482  1  0.10298200  0.61486500  0.09009000  1
  C  483  1  0.08637100  0.64282400  0.11252200  1
  C  485  1  0.11322600  0.66424100  0.13434600  1
  C  488  1  0.16885600  0.58401000  0.06298300  1
  C  496  1  0.65800400  0.38054600  0.33207000  1
  C  497  1  0.67486400  0.40584700  0.35731600  1
  C  498  1  0.64834100  0.42845100  0.37890400  1
  C  499  1  0.60298400  0.42505700  0.37607400  1
  C  500  1  0.58636300  0.39707300  0.35367500  1
  C  502  1  0.61320500  0.37566000  0.33183900  1
  C  505  1  0.66887100  0.45593100  0.40313700  1
  N  254  1  0.93298600  0.09567400  0.07319900  1
  N  256  1  0.82555800  0.18237900  0.16031600  1
  N  271  1  0.43295100  0.94428000  0.39292900  1
  N  273  1  0.32551900  0.85762200  0.30576400  1
  N  288  1  0.68270000  0.36008400  0.65748600  1
  N  290  1  0.57586100  0.44748700  0.57057100  1
  N  305  1  0.18266700  0.67995300  0.80864000  1
  N  307  1  0.07574400  0.59259100  0.89553000  1
  N  322  1  0.57015200  0.09574600  0.39298900  1
  N  324  1  0.67752300  0.18237400  0.30574900  1
  N  339  1  0.07008000  0.94418800  0.07311000  1
  N  341  1  0.17755900  0.85759300  0.16029400  1
  N  356  1  0.82037500  0.36004200  0.80863400  1
  N  358  1  0.92727500  0.44744500  0.89550800  1
  N  373  1  0.32035700  0.67993300  0.65750900  1
  N  375  1  0.42720100  0.59257400  0.57056100  1
  N  390  1  0.07006100  0.94425900  0.89295100  1
  N  392  1  0.17750500  0.85761900  0.80578800  1
  N  407  1  0.57009500  0.09570700  0.57315500  1
  N  409  1  0.67745600  0.18242300  0.66032000  1
  N  424  1  0.32034500  0.67995800  0.30863300  1
  N  426  1  0.42714700  0.59253800  0.39555900  1
  N  441  1  0.82040200  0.36000700  0.15744700  1
  N  443  1  0.92725900  0.44738200  0.07052800  1
  N  458  1  0.43294100  0.94427300  0.57314700  1
  N  460  1  0.32550600  0.85760900  0.66030800  1
  N  475  1  0.93296500  0.09574400  0.89297900  1
  N  477  1  0.82553900  0.18237400  0.80578700  1
  N  492  1  0.18269900  0.67996100  0.15747000  1
  N  494  1  0.07580800  0.59255600  0.07059700  1
  N  509  1  0.68265300  0.35999900  0.30862700  1
  N  511  1  0.57581900  0.44738300  0.39556200  1
  O  27  1  0.98951200  0.08728600  0.11507500  1
  O  28  1  0.01362200  0.95262100  0.11501400  1
  O  29  1  0.01366000  0.95270500  0.85100800  1
  O  30  1  0.98951500  0.08736000  0.85111100  1
  O  57  1  0.48947600  0.95262600  0.35104400  1
  O  58  1  0.51372600  0.08733100  0.35105800  1
  O  59  1  0.51364600  0.08728200  0.61506100  1
  O  60  1  0.48952700  0.95258100  0.61500400  1
  O  87  1  0.73950800  0.40168500  0.66577800  1
  O  88  1  0.76347600  0.40163300  0.80047800  1
  O  89  1  0.77317900  0.13692900  0.79826100  1
  O  90  1  0.72985000  0.13698400  0.66787600  1
  O  117  1  0.23954100  0.63835100  0.80046400  1
  O  118  1  0.26357600  0.63830500  0.66572700  1
  O  119  1  0.27308800  0.90301900  0.66787600  1
  O  120  1  0.22986900  0.90306400  0.79828400  1
  O  147  1  0.26348000  0.63835700  0.30038300  1
  O  148  1  0.23949000  0.63833800  0.16572900  1
  O  149  1  0.22988200  0.90307200  0.16781800  1
  O  150  1  0.27304700  0.90304300  0.29824900  1
  O  177  1  0.76359500  0.40166000  0.16563500  1
  O  178  1  0.73941300  0.40164900  0.30040600  1
  O  179  1  0.72988200  0.13692700  0.29822200  1
  O  180  1  0.77306800  0.13697000  0.16779100  1
  O  207  1  0.47981700  0.58517000  0.61581700  1
  O  208  1  0.52310700  0.45478700  0.61581200  1
  O  209  1  0.52321200  0.45475700  0.35027800  1
  O  210  1  0.47973100  0.58514200  0.35026100  1
  O  237  1  0.98004400  0.45476900  0.85028900  1
  O  238  1  0.02307300  0.58517900  0.85028700  1
  O  239  1  0.02312100  0.58515500  0.11582100  1
  O  240  1  0.97982800  0.45478600  0.11583600  1
