# generated using pymatgen
data_Sc3H30C54O13
_symmetry_space_group_name_H-M   'P 1'
_cell_length_a   17.10315000
_cell_length_b   31.83014000
_cell_length_c   31.82932000
_cell_angle_alpha   60.04534000
_cell_angle_beta   89.99131000
_cell_angle_gamma   89.99131000
_symmetry_Int_Tables_number   1
_chemical_formula_structural   Sc3H30C54O13
_chemical_formula_sum   'Sc18 H180 C324 O78'
_cell_volume   15013.11725011
_cell_formula_units_Z   6
loop_
 _symmetry_equiv_pos_site_id
 _symmetry_equiv_pos_as_xyz
  1  'x, y, z'
loop_
 _atom_site_type_symbol
 _atom_site_label
 _atom_site_symmetry_multiplicity
 _atom_site_fract_x
 _atom_site_fract_y
 _atom_site_fract_z
 _atom_site_occupancy
  Sc  Sc0  1  0.34866000  0.50298000  0.92570000  1
  Sc  Sc1  1  0.34879000  0.57122000  0.50353000  1
  Sc  Sc2  1  0.34864000  0.92551000  0.57118000  1
  Sc  Sc3  1  0.15131000  0.50355000  0.92549000  1
  Sc  Sc4  1  0.15148000  0.57134000  0.50317000  1
  Sc  Sc5  1  0.15138000  0.92549000  0.57120000  1
  Sc  Sc6  1  0.65145000  0.49628000  0.42889000  1
  Sc  Sc7  1  0.65135000  0.42893000  0.07451000  1
  Sc  Sc8  1  0.65149000  0.07432000  0.49695000  1
  Sc  Sc9  1  0.84847000  0.49684000  0.42849000  1
  Sc  Sc10  1  0.84856000  0.42870000  0.07449000  1
  Sc  Sc11  1  0.84887000  0.07454000  0.49664000  1
  Sc  Sc12  1  0.25004000  0.53855000  0.82054000  1
  Sc  Sc13  1  0.25004000  0.64128000  0.53855000  1
  Sc  Sc14  1  0.25000000  0.82044000  0.64119000  1
  Sc  Sc15  1  0.74999000  0.46106000  0.35888000  1
  Sc  Sc16  1  0.75006000  0.35891000  0.17958000  1
  Sc  Sc17  1  0.74997000  0.17944000  0.46166000  1
  H  H18  1  0.62412000  0.83740000  0.63947000  1
  H  H19  1  0.64052000  0.39704000  0.87621000  1
  H  H20  1  0.62368000  0.76864000  0.68457000  1
  H  H21  1  0.53343000  0.70830000  0.68677000  1
  H  H22  1  0.62542000  0.92598000  0.59649000  1
  H  H23  1  0.51977000  0.41617000  0.90642000  1
  H  H24  1  0.62403000  0.42715000  0.72170000  1
  H  H25  1  0.42794000  0.49242000  0.76144000  1
  H  H26  1  0.41379000  0.66129000  0.72762000  1
  H  H27  1  0.54976000  0.47611000  0.73053000  1
  H  H28  1  0.53956000  0.58628000  0.86239000  1
  H  H29  1  0.65915000  0.63212000  0.82179000  1
  H  H30  1  0.62394000  0.43007000  0.65999000  1
  H  H31  1  0.62573000  0.44015000  0.57835000  1
  H  H32  1  0.62355000  0.52347000  0.83659000  1
  H  H33  1  0.64043000  0.72691000  0.39699000  1
  H  H34  1  0.62366000  0.54724000  0.76845000  1
  H  H35  1  0.53350000  0.60504000  0.70838000  1
  H  H36  1  0.62308000  0.47786000  0.92509000  1
  H  H37  1  0.51991000  0.67744000  0.41619000  1
  H  H38  1  0.62412000  0.85106000  0.42736000  1
  H  H39  1  0.42781000  0.74622000  0.49261000  1
  H  H40  1  0.41384000  0.61109000  0.66138000  1
  H  H41  1  0.54941000  0.79360000  0.47618000  1
  H  H42  1  0.53975000  0.55126000  0.58626000  1
  H  H43  1  0.65937000  0.54602000  0.63210000  1
  H  H44  1  0.62359000  0.90952000  0.42994000  1
  H  H45  1  0.62429000  0.98129000  0.43965000  1
  H  H46  1  0.62300000  0.63990000  0.52335000  1
  H  H47  1  0.64056000  0.87602000  0.72701000  1
  H  H48  1  0.62350000  0.68431000  0.54731000  1
  H  H49  1  0.53351000  0.68669000  0.60507000  1
  H  H50  1  0.62246000  0.59678000  0.47788000  1
  H  H51  1  0.52011000  0.90631000  0.67747000  1
  H  H52  1  0.62424000  0.72168000  0.85116000  1
  H  H53  1  0.42775000  0.76149000  0.74605000  1
  H  H54  1  0.41380000  0.72770000  0.61097000  1
  H  H55  1  0.54920000  0.73043000  0.79351000  1
  H  H56  1  0.53970000  0.86246000  0.55121000  1
  H  H57  1  0.65942000  0.82181000  0.54611000  1
  H  H58  1  0.62393000  0.66018000  0.90966000  1
  H  H59  1  0.62508000  0.57877000  0.98121000  1
  H  H60  1  0.87660000  0.83652000  0.63992000  1
  H  H61  1  0.85953000  0.39713000  0.87619000  1
  H  H62  1  0.87632000  0.76844000  0.68460000  1
  H  H63  1  0.96655000  0.70819000  0.68678000  1
  H  H64  1  0.87701000  0.92506000  0.59693000  1
  H  H65  1  0.98040000  0.41628000  0.90628000  1
  H  H66  1  0.87583000  0.42705000  0.72188000  1
  H  H67  1  0.07190000  0.49243000  0.76119000  1
  H  H68  1  0.08622000  0.66126000  0.72774000  1
  H  H69  1  0.95000000  0.47608000  0.73044000  1
  H  H70  1  0.96019000  0.58632000  0.86246000  1
  H  H71  1  0.84059000  0.63207000  0.82180000  1
  H  H72  1  0.87674000  0.42975000  0.66091000  1
  H  H73  1  0.87682000  0.43979000  0.57935000  1
  H  H74  1  0.87583000  0.52301000  0.83750000  1
  H  H75  1  0.85935000  0.72688000  0.39705000  1
  H  H76  1  0.87644000  0.54712000  0.76862000  1
  H  H77  1  0.96648000  0.60491000  0.70853000  1
  H  H78  1  0.87442000  0.47734000  0.92606000  1
  H  H79  1  0.97988000  0.67738000  0.41614000  1
  H  H80  1  0.87595000  0.85110000  0.42733000  1
  H  H81  1  0.07226000  0.74614000  0.49251000  1
  H  H82  1  0.08611000  0.61116000  0.66138000  1
  H  H83  1  0.95068000  0.79353000  0.47617000  1
  H  H84  1  0.96050000  0.55145000  0.58620000  1
  H  H85  1  0.84080000  0.54597000  0.63216000  1
  H  H86  1  0.87626000  0.90950000  0.43010000  1
  H  H87  1  0.87537000  0.98129000  0.43982000  1
  H  H88  1  0.87565000  0.63956000  0.52267000  1
  H  H89  1  0.85944000  0.87607000  0.72699000  1
  H  H90  1  0.87622000  0.68409000  0.54709000  1
  H  H91  1  0.96669000  0.68660000  0.60498000  1
  H  H92  1  0.87402000  0.59634000  0.47718000  1
  H  H93  1  0.97986000  0.90638000  0.67742000  1
  H  H94  1  0.87588000  0.72178000  0.85104000  1
  H  H95  1  0.07224000  0.76161000  0.74593000  1
  H  H96  1  0.08630000  0.72763000  0.61101000  1
  H  H97  1  0.95079000  0.73054000  0.79338000  1
  H  H98  1  0.96032000  0.86230000  0.55130000  1
  H  H99  1  0.84075000  0.82167000  0.54608000  1
  H  H100  1  0.87664000  0.66080000  0.90924000  1
  H  H101  1  0.87656000  0.57939000  0.98080000  1
  H  H102  1  0.37614000  0.16303000  0.47670000  1
  H  H103  1  0.35987000  0.60278000  0.27340000  1
  H  H104  1  0.37633000  0.23145000  0.45284000  1
  H  H105  1  0.46645000  0.29152000  0.39499000  1
  H  H106  1  0.37584000  0.07447000  0.52226000  1
  H  H107  1  0.48055000  0.58338000  0.32272000  1
  H  H108  1  0.37585000  0.57293000  0.14892000  1
  H  H109  1  0.57179000  0.50726000  0.25337000  1
  H  H110  1  0.58611000  0.33855000  0.38889000  1
  H  H111  1  0.44988000  0.52389000  0.20624000  1
  H  H112  1  0.46019000  0.41364000  0.44876000  1
  H  H113  1  0.34055000  0.36784000  0.45392000  1
  H  H114  1  0.37658000  0.57022000  0.09072000  1
  H  H115  1  0.37650000  0.56015000  0.01919000  1
  H  H116  1  0.37667000  0.47659000  0.36003000  1
  H  H117  1  0.35958000  0.27307000  0.12412000  1
  H  H118  1  0.37647000  0.45265000  0.31571000  1
  H  H119  1  0.46648000  0.39492000  0.31327000  1
  H  H120  1  0.37707000  0.52211000  0.40312000  1
  H  H121  1  0.48010000  0.32249000  0.09384000  1
  H  H122  1  0.37571000  0.14883000  0.27833000  1
  H  H123  1  0.57216000  0.25378000  0.23877000  1
  H  H124  1  0.58619000  0.38899000  0.27219000  1
  H  H125  1  0.45058000  0.20643000  0.26965000  1
  H  H126  1  0.46021000  0.44883000  0.13747000  1
  H  H127  1  0.34052000  0.45395000  0.17815000  1
  H  H128  1  0.37612000  0.09065000  0.33952000  1
  H  H129  1  0.37563000  0.01892000  0.42085000  1
  H  H130  1  0.37574000  0.36059000  0.16241000  1
  H  H131  1  0.35951000  0.12391000  0.60303000  1
  H  H132  1  0.37626000  0.31561000  0.23127000  1
  H  H133  1  0.46668000  0.31325000  0.29173000  1
  H  H134  1  0.37414000  0.40352000  0.07380000  1
  H  H135  1  0.48010000  0.09364000  0.58376000  1
  H  H136  1  0.37591000  0.27833000  0.57287000  1
  H  H137  1  0.57219000  0.23848000  0.50757000  1
  H  H138  1  0.58631000  0.27231000  0.33864000  1
  H  H139  1  0.45052000  0.26950000  0.52396000  1
  H  H140  1  0.46038000  0.13760000  0.41360000  1
  H  H141  1  0.34080000  0.17824000  0.36783000  1
  H  H142  1  0.37626000  0.33978000  0.57006000  1
  H  H143  1  0.37506000  0.42136000  0.56002000  1
  H  H144  1  0.12395000  0.16282000  0.47688000  1
  H  H145  1  0.14048000  0.60287000  0.27328000  1
  H  H146  1  0.12349000  0.23139000  0.45295000  1
  H  H147  1  0.03347000  0.29149000  0.39509000  1
  H  H148  1  0.12458000  0.07427000  0.52244000  1
  H  H149  1  0.01984000  0.58371000  0.32268000  1
  H  H150  1  0.12399000  0.57279000  0.14885000  1
  H  H151  1  0.92801000  0.50738000  0.25378000  1
  H  H152  1  0.91381000  0.33860000  0.38893000  1
  H  H153  1  0.04965000  0.52386000  0.20644000  1
  H  H154  1  0.03966000  0.41378000  0.44865000  1
  H  H155  1  0.15921000  0.36781000  0.45398000  1
  H  H156  1  0.12401000  0.56996000  0.09020000  1
  H  H157  1  0.12569000  0.55989000  0.01863000  1
  H  H158  1  0.12421000  0.47715000  0.36040000  1
  H  H159  1  0.14071000  0.27303000  0.12394000  1
  H  H160  1  0.12366000  0.45282000  0.31577000  1
  H  H161  1  0.03351000  0.39496000  0.31340000  1
  H  H162  1  0.12555000  0.52270000  0.40353000  1
  H  H163  1  0.02015000  0.32248000  0.09361000  1
  H  H164  1  0.12410000  0.14898000  0.27828000  1
  H  H165  1  0.92773000  0.25398000  0.23840000  1
  H  H166  1  0.91377000  0.38891000  0.27243000  1
  H  H167  1  0.04923000  0.20660000  0.26951000  1
  H  H168  1  0.03959000  0.44872000  0.13760000  1
  H  H169  1  0.15922000  0.45397000  0.17822000  1
  H  H170  1  0.12353000  0.09066000  0.33950000  1
  H  H171  1  0.12405000  0.01894000  0.42084000  1
  H  H172  1  0.12321000  0.36012000  0.16349000  1
  H  H173  1  0.14048000  0.12385000  0.60307000  1
  H  H174  1  0.12366000  0.31545000  0.23158000  1
  H  H175  1  0.03351000  0.31330000  0.29178000  1
  H  H176  1  0.12241000  0.40301000  0.07501000  1
  H  H177  1  0.01980000  0.09366000  0.58382000  1
  H  H178  1  0.12409000  0.27827000  0.57285000  1
  H  H179  1  0.92786000  0.23858000  0.50760000  1
  H  H180  1  0.91375000  0.27240000  0.33861000  1
  H  H181  1  0.04956000  0.26957000  0.52393000  1
  H  H182  1  0.03959000  0.13760000  0.41367000  1
  H  H183  1  0.15929000  0.17820000  0.36798000  1
  H  H184  1  0.12347000  0.33942000  0.57012000  1
  H  H185  1  0.12395000  0.42099000  0.56014000  1
  H  H186  1  0.74989000  0.63621000  0.76911000  1
  H  H187  1  0.74982000  0.43323000  0.83493000  1
  H  H188  1  0.75008000  0.59480000  0.63625000  1
  H  H189  1  0.74999000  0.73204000  0.43302000  1
  H  H190  1  0.75030000  0.76915000  0.59461000  1
  H  H191  1  0.74995000  0.83506000  0.73204000  1
  H  H192  1  0.24990000  0.36370000  0.40517000  1
  H  H193  1  0.24988000  0.56706000  0.26799000  1
  H  H194  1  0.24985000  0.40528000  0.23086000  1
  H  H195  1  0.25011000  0.26799000  0.16497000  1
  H  H196  1  0.25023000  0.23085000  0.36376000  1
  H  H197  1  0.25004000  0.16509000  0.56685000  1
  C  C198  1  0.67858000  0.69989000  0.72863000  1
  C  C199  1  0.60538000  0.67357000  0.75114000  1
  C  C200  1  0.46852000  0.62048000  0.79779000  1
  C  C201  1  0.68016000  0.85584000  0.63083000  1
  C  C202  1  0.60412000  0.43492000  0.80098000  1
  C  C203  1  0.59426000  0.41794000  0.85088000  1
  C  C204  1  0.67928000  0.74963000  0.69478000  1
  C  C205  1  0.53478000  0.68195000  0.72536000  1
  C  C206  1  0.68038000  0.90617000  0.60614000  1
  C  C207  1  0.67868000  0.42893000  0.78122000  1
  C  C208  1  0.52659000  0.42831000  0.86808000  1
  C  C209  1  0.67969000  0.42753000  0.73791000  1
  C  C210  1  0.47417000  0.47105000  0.78644000  1
  C  C211  1  0.46756000  0.65554000  0.74810000  1
  C  C212  1  0.54237000  0.46113000  0.76936000  1
  C  C213  1  0.39842000  0.47071000  0.85388000  1
  C  C214  1  0.39958000  0.59041000  0.82289000  1
  C  C215  1  0.53856000  0.61287000  0.82392000  1
  C  C216  1  0.60568000  0.63855000  0.80093000  1
  C  C217  1  0.46607000  0.45551000  0.83607000  1
  C  C218  1  0.67999000  0.43216000  0.64305000  1
  C  C219  1  0.68032000  0.43775000  0.59693000  1
  C  C220  1  0.67864000  0.57164000  0.69982000  1
  C  C221  1  0.60544000  0.57536000  0.67352000  1
  C  C222  1  0.46871000  0.58168000  0.62054000  1
  C  C223  1  0.67920000  0.51356000  0.85542000  1
  C  C224  1  0.60401000  0.76414000  0.43504000  1
  C  C225  1  0.59418000  0.73125000  0.41801000  1
  C  C226  1  0.67932000  0.55585000  0.74952000  1
  C  C227  1  0.53484000  0.59277000  0.68200000  1
  C  C228  1  0.67841000  0.48788000  0.90571000  1
  C  C229  1  0.67869000  0.78979000  0.42911000  1
  C  C230  1  0.52658000  0.70361000  0.42841000  1
  C  C231  1  0.67976000  0.83444000  0.42780000  1
  C  C232  1  0.47409000  0.74262000  0.47120000  1
  C  C233  1  0.46764000  0.59638000  0.65559000  1
  C  C234  1  0.54224000  0.76967000  0.46125000  1
  C  C235  1  0.39846000  0.67551000  0.47101000  1
  C  C236  1  0.39981000  0.58652000  0.59054000  1
  C  C237  1  0.53875000  0.56314000  0.61288000  1
  C  C238  1  0.60586000  0.56048000  0.63855000  1
  C  C239  1  0.46615000  0.70847000  0.45571000  1
  C  C240  1  0.67938000  0.92461000  0.43203000  1
  C  C241  1  0.67910000  0.96521000  0.43745000  1
  C  C242  1  0.67870000  0.72854000  0.57169000  1
  C  C243  1  0.60554000  0.75110000  0.57548000  1
  C  C244  1  0.46866000  0.79787000  0.58165000  1
  C  C245  1  0.67869000  0.63097000  0.51344000  1
  C  C246  1  0.60407000  0.80084000  0.76420000  1
  C  C247  1  0.59429000  0.85072000  0.73129000  1
  C  C248  1  0.67921000  0.69463000  0.55584000  1
  C  C249  1  0.53488000  0.72531000  0.59281000  1
  C  C250  1  0.67784000  0.60625000  0.48782000  1
  C  C251  1  0.67872000  0.78115000  0.78988000  1
  C  C252  1  0.52672000  0.86796000  0.70363000  1
  C  C253  1  0.67985000  0.73785000  0.83453000  1
  C  C254  1  0.47408000  0.78640000  0.74251000  1
  C  C255  1  0.46764000  0.74813000  0.59634000  1
  C  C256  1  0.54220000  0.76926000  0.76959000  1
  C  C257  1  0.39832000  0.85377000  0.67549000  1
  C  C258  1  0.39979000  0.82312000  0.58648000  1
  C  C259  1  0.53876000  0.82397000  0.56315000  1
  C  C260  1  0.60591000  0.80095000  0.56056000  1
  C  C261  1  0.46611000  0.83600000  0.70840000  1
  C  C262  1  0.67984000  0.64314000  0.92466000  1
  C  C263  1  0.67994000  0.59711000  0.96521000  1
  C  C264  1  0.82130000  0.69980000  0.72864000  1
  C  C265  1  0.89449000  0.67347000  0.75115000  1
  C  C266  1  0.03137000  0.62051000  0.79792000  1
  C  C267  1  0.82094000  0.85537000  0.63105000  1
  C  C268  1  0.89574000  0.43498000  0.80094000  1
  C  C269  1  0.90576000  0.41802000  0.85082000  1
  C  C270  1  0.82067000  0.74951000  0.69479000  1
  C  C271  1  0.96516000  0.68186000  0.72539000  1
  C  C272  1  0.82166000  0.90568000  0.60636000  1
  C  C273  1  0.82115000  0.42895000  0.78126000  1
  C  C274  1  0.97350000  0.42842000  0.86794000  1
  C  C275  1  0.82013000  0.42749000  0.73800000  1
  C  C276  1  0.02573000  0.47107000  0.78625000  1
  C  C277  1  0.03238000  0.65549000  0.74819000  1
  C  C278  1  0.95747000  0.46113000  0.76925000  1
  C  C279  1  0.10159000  0.47117000  0.85337000  1
  C  C280  1  0.10031000  0.59061000  0.82324000  1
  C  C281  1  0.96123000  0.61288000  0.82399000  1
  C  C282  1  0.89410000  0.63850000  0.80096000  1
  C  C283  1  0.03393000  0.45566000  0.83583000  1
  C  C284  1  0.82105000  0.43197000  0.64356000  1
  C  C285  1  0.82182000  0.43755000  0.59747000  1
  C  C286  1  0.82142000  0.57158000  0.69991000  1
  C  C287  1  0.89459000  0.57534000  0.67358000  1
  C  C288  1  0.03138000  0.58190000  0.62046000  1
  C  C289  1  0.81979000  0.51329000  0.85592000  1
  C  C290  1  0.89595000  0.76409000  0.43507000  1
  C  C291  1  0.90568000  0.73120000  0.41802000  1
  C  C292  1  0.82080000  0.55578000  0.74963000  1
  C  C293  1  0.96515000  0.59273000  0.68209000  1
  C  C294  1  0.81951000  0.48758000  0.90624000  1
  C  C295  1  0.82132000  0.78980000  0.42911000  1
  C  C296  1  0.97328000  0.70356000  0.42837000  1
  C  C297  1  0.82030000  0.83446000  0.42781000  1
  C  C298  1  0.02595000  0.74253000  0.47112000  1
  C  C299  1  0.03234000  0.59643000  0.65562000  1
  C  C300  1  0.95781000  0.76960000  0.46122000  1
  C  C301  1  0.10152000  0.67541000  0.47078000  1
  C  C302  1  0.10041000  0.58694000  0.59039000  1
  C  C303  1  0.96140000  0.56328000  0.61285000  1
  C  C304  1  0.89425000  0.56050000  0.63857000  1
  C  C305  1  0.03383000  0.70838000  0.45561000  1
  C  C306  1  0.82043000  0.92462000  0.43210000  1
  C  C307  1  0.82060000  0.96522000  0.43754000  1
  C  C308  1  0.82143000  0.72846000  0.57154000  1
  C  C309  1  0.89463000  0.75099000  0.57535000  1
  C  C310  1  0.03140000  0.79770000  0.58177000  1
  C  C311  1  0.81952000  0.63078000  0.51308000  1
  C  C312  1  0.89586000  0.80092000  0.76415000  1
  C  C313  1  0.90569000  0.85078000  0.73125000  1
  C  C314  1  0.82065000  0.69451000  0.55571000  1
  C  C315  1  0.96528000  0.72520000  0.59272000  1
  C  C316  1  0.81921000  0.60605000  0.48746000  1
  C  C317  1  0.82122000  0.78120000  0.78985000  1
  C  C318  1  0.97327000  0.86804000  0.70359000  1
  C  C319  1  0.82021000  0.73789000  0.83448000  1
  C  C320  1  0.02589000  0.78651000  0.74241000  1
  C  C321  1  0.03244000  0.74803000  0.59635000  1
  C  C322  1  0.95775000  0.76935000  0.76949000  1
  C  C323  1  0.10168000  0.85388000  0.67543000  1
  C  C324  1  0.10028000  0.82278000  0.58683000  1
  C  C325  1  0.96135000  0.82384000  0.56319000  1
  C  C326  1  0.89425000  0.80081000  0.56050000  1
  C  C327  1  0.03389000  0.83609000  0.70834000  1
  C  C328  1  0.82094000  0.64353000  0.92440000  1
  C  C329  1  0.82156000  0.59754000  0.96492000  1
  C  C330  1  0.32130000  0.30011000  0.42832000  1
  C  C331  1  0.39446000  0.32642000  0.42459000  1
  C  C332  1  0.53125000  0.37933000  0.41837000  1
  C  C333  1  0.32037000  0.14437000  0.48653000  1
  C  C334  1  0.39587000  0.56494000  0.23591000  1
  C  C335  1  0.40601000  0.58182000  0.26890000  1
  C  C336  1  0.32065000  0.25038000  0.44421000  1
  C  C337  1  0.46508000  0.31794000  0.40721000  1
  C  C338  1  0.32072000  0.09407000  0.51220000  1
  C  C339  1  0.32123000  0.57106000  0.21022000  1
  C  C340  1  0.47369000  0.57126000  0.29647000  1
  C  C341  1  0.32018000  0.57250000  0.16551000  1
  C  C342  1  0.52566000  0.52866000  0.25712000  1
  C  C343  1  0.53229000  0.34432000  0.40361000  1
  C  C344  1  0.45741000  0.53875000  0.23019000  1
  C  C345  1  0.60150000  0.52813000  0.32436000  1
  C  C346  1  0.60029000  0.40910000  0.41394000  1
  C  C347  1  0.46118000  0.38703000  0.43685000  1
  C  C348  1  0.39404000  0.36141000  0.43945000  1
  C  C349  1  0.53386000  0.54392000  0.29141000  1
  C  C350  1  0.32092000  0.56800000  0.07561000  1
  C  C351  1  0.32158000  0.56248000  0.03508000  1
  C  C352  1  0.32130000  0.42828000  0.27144000  1
  C  C353  1  0.39446000  0.42454000  0.24885000  1
  C  C354  1  0.53129000  0.41838000  0.20204000  1
  C  C355  1  0.32098000  0.48649000  0.36899000  1
  C  C356  1  0.39592000  0.23580000  0.19924000  1
  C  C357  1  0.40585000  0.26874000  0.14940000  1
  C  C358  1  0.32075000  0.44411000  0.30537000  1
  C  C359  1  0.46512000  0.40718000  0.27464000  1
  C  C360  1  0.32172000  0.51211000  0.39370000  1
  C  C361  1  0.32126000  0.21014000  0.21888000  1
  C  C362  1  0.47345000  0.29635000  0.13219000  1
  C  C363  1  0.32012000  0.16549000  0.26217000  1
  C  C364  1  0.52587000  0.25736000  0.21381000  1
  C  C365  1  0.53233000  0.40364000  0.25178000  1
  C  C366  1  0.45771000  0.23034000  0.23086000  1
  C  C367  1  0.60162000  0.32447000  0.14672000  1
  C  C368  1  0.60027000  0.41386000  0.17666000  1
  C  C369  1  0.46117000  0.43686000  0.17597000  1
  C  C370  1  0.39404000  0.43947000  0.19900000  1
  C  C371  1  0.53396000  0.29149000  0.16426000  1
  C  C372  1  0.32038000  0.07548000  0.35669000  1
  C  C373  1  0.32064000  0.03489000  0.40268000  1
  C  C374  1  0.32143000  0.27140000  0.30006000  1
  C  C375  1  0.39464000  0.24888000  0.32640000  1
  C  C376  1  0.53155000  0.20215000  0.37947000  1
  C  C377  1  0.31965000  0.36922000  0.14403000  1
  C  C378  1  0.39590000  0.19909000  0.56503000  1
  C  C379  1  0.40573000  0.14921000  0.58204000  1
  C  C380  1  0.32069000  0.30531000  0.25031000  1
  C  C381  1  0.46529000  0.27465000  0.31803000  1
  C  C382  1  0.31926000  0.39384000  0.09373000  1
  C  C383  1  0.32131000  0.21884000  0.57102000  1
  C  C384  1  0.47335000  0.13196000  0.57165000  1
  C  C385  1  0.32026000  0.26216000  0.57242000  1
  C  C386  1  0.52589000  0.21355000  0.52894000  1
  C  C387  1  0.53251000  0.25184000  0.34444000  1
  C  C388  1  0.45773000  0.23069000  0.53885000  1
  C  C389  1  0.60165000  0.14612000  0.52937000  1
  C  C390  1  0.60038000  0.17694000  0.40966000  1
  C  C391  1  0.46144000  0.17606000  0.38705000  1
  C  C392  1  0.39431000  0.19909000  0.36139000  1
  C  C393  1  0.53390000  0.16395000  0.54446000  1
  C  C394  1  0.32031000  0.35688000  0.56789000  1
  C  C395  1  0.32030000  0.40296000  0.56238000  1
  C  C396  1  0.17852000  0.30008000  0.42845000  1
  C  C397  1  0.10537000  0.32639000  0.42471000  1
  C  C398  1  0.96876000  0.37948000  0.41818000  1
  C  C399  1  0.17981000  0.14423000  0.48665000  1
  C  C400  1  0.10408000  0.56499000  0.23592000  1
  C  C401  1  0.09420000  0.58193000  0.26888000  1
  C  C402  1  0.17914000  0.25036000  0.44426000  1
  C  C403  1  0.03481000  0.31789000  0.40730000  1
  C  C404  1  0.17965000  0.09392000  0.51232000  1
  C  C405  1  0.17865000  0.57103000  0.21018000  1
  C  C406  1  0.02657000  0.57150000  0.29650000  1
  C  C407  1  0.17962000  0.57239000  0.16550000  1
  C  C408  1  0.97425000  0.52878000  0.25741000  1
  C  C409  1  0.96767000  0.34437000  0.40360000  1
  C  C410  1  0.04240000  0.53878000  0.23036000  1
  C  C411  1  0.89842000  0.52893000  0.32449000  1
  C  C412  1  0.89976000  0.40945000  0.41318000  1
  C  C413  1  0.03870000  0.38717000  0.43676000  1
  C  C414  1  0.10575000  0.36142000  0.43949000  1
  C  C415  1  0.96617000  0.54421000  0.29159000  1
  C  C416  1  0.18000000  0.56784000  0.07531000  1
  C  C417  1  0.18027000  0.56232000  0.03476000  1
  C  C418  1  0.17854000  0.42841000  0.27144000  1
  C  C419  1  0.10533000  0.42463000  0.24892000  1
  C  C420  1  0.96868000  0.41821000  0.20227000  1
  C  C421  1  0.18026000  0.48680000  0.36919000  1
  C  C422  1  0.10419000  0.23590000  0.19909000  1
  C  C423  1  0.09439000  0.26875000  0.14922000  1
  C  C424  1  0.17929000  0.44421000  0.30540000  1
  C  C425  1  0.03475000  0.40722000  0.27477000  1
  C  C426  1  0.18048000  0.51244000  0.39391000  1
  C  C427  1  0.17878000  0.21020000  0.21883000  1
  C  C428  1  0.02676000  0.29635000  0.13195000  1
  C  C429  1  0.17975000  0.16557000  0.26215000  1
  C  C430  1  0.97412000  0.25753000  0.21350000  1
  C  C431  1  0.96759000  0.40359000  0.25197000  1
  C  C432  1  0.04228000  0.23049000  0.23069000  1
  C  C433  1  0.89838000  0.32457000  0.14610000  1
  C  C434  1  0.89980000  0.41315000  0.17722000  1
  C  C435  1  0.03866000  0.43680000  0.17609000  1
  C  C436  1  0.10573000  0.43950000  0.19909000  1
  C  C437  1  0.96615000  0.29164000  0.16393000  1
  C  C438  1  0.17930000  0.07551000  0.35666000  1
  C  C439  1  0.17898000  0.03492000  0.40264000  1
  C  C440  1  0.17869000  0.27137000  0.30020000  1
  C  C441  1  0.10547000  0.24887000  0.32653000  1
  C  C442  1  0.96856000  0.20224000  0.37946000  1
  C  C443  1  0.17884000  0.36897000  0.14460000  1
  C  C444  1  0.10413000  0.19909000  0.56506000  1
  C  C445  1  0.09426000  0.14920000  0.58208000  1
  C  C446  1  0.17932000  0.30524000  0.25048000  1
  C  C447  1  0.03485000  0.27470000  0.31809000  1
  C  C448  1  0.17790000  0.39361000  0.09430000  1
  C  C449  1  0.17876000  0.21882000  0.57103000  1
  C  C450  1  0.02659000  0.13199000  0.57169000  1
  C  C451  1  0.17979000  0.26212000  0.57244000  1
  C  C452  1  0.97412000  0.21361000  0.52898000  1
  C  C453  1  0.96757000  0.25192000  0.34443000  1
  C  C454  1  0.04233000  0.23074000  0.53887000  1
  C  C455  1  0.89836000  0.14623000  0.52926000  1
  C  C456  1  0.89967000  0.17712000  0.40955000  1
  C  C457  1  0.03862000  0.17607000  0.38712000  1
  C  C458  1  0.10579000  0.19908000  0.36151000  1
  C  C459  1  0.96606000  0.16401000  0.54448000  1
  C  C460  1  0.17926000  0.35665000  0.56795000  1
  C  C461  1  0.17882000  0.40270000  0.56245000  1
  C  C462  1  0.74990000  0.67515000  0.74454000  1
  C  C463  1  0.75132000  0.44111000  0.57318000  1
  C  C464  1  0.75190000  0.45123000  0.52291000  1
  C  C465  1  0.75177000  0.98538000  0.56809000  1
  C  C466  1  0.75032000  0.82880000  0.64553000  1
  C  C467  1  0.75028000  0.42980000  0.66747000  1
  C  C468  1  0.74988000  0.42910000  0.80304000  1
  C  C469  1  0.74997000  0.42729000  0.71515000  1
  C  C470  1  0.75003000  0.77542000  0.67735000  1
  C  C471  1  0.75127000  0.93216000  0.59423000  1
  C  C472  1  0.75006000  0.58045000  0.67518000  1
  C  C473  1  0.74980000  0.98575000  0.44099000  1
  C  C474  1  0.74954000  0.02580000  0.45126000  1
  C  C475  1  0.74815000  0.44648000  0.98549000  1
  C  C476  1  0.74975000  0.52579000  0.82880000  1
  C  C477  1  0.74994000  0.90269000  0.42988000  1
  C  C478  1  0.75000000  0.76793000  0.42915000  1
  C  C479  1  0.75002000  0.85747000  0.42750000  1
  C  C480  1  0.75001000  0.54747000  0.77539000  1
  C  C481  1  0.74867000  0.47349000  0.93227000  1
  C  C482  1  0.75015000  0.74442000  0.58040000  1
  C  C483  1  0.75096000  0.57338000  0.98560000  1
  C  C484  1  0.75171000  0.52313000  0.02570000  1
  C  C485  1  0.74801000  0.56796000  0.44640000  1
  C  C486  1  0.74940000  0.64543000  0.52556000  1
  C  C487  1  0.75023000  0.66743000  0.90265000  1
  C  C488  1  0.74996000  0.80304000  0.76793000  1
  C  C489  1  0.75005000  0.71507000  0.85753000  1
  C  C490  1  0.74980000  0.67712000  0.54735000  1
  C  C491  1  0.74824000  0.59412000  0.47345000  1
  C  C492  1  0.24990000  0.32477000  0.41955000  1
  C  C493  1  0.25117000  0.55890000  0.01433000  1
  C  C494  1  0.25175000  0.54876000  0.97419000  1
  C  C495  1  0.25070000  0.01447000  0.55355000  1
  C  C496  1  0.25001000  0.17117000  0.47425000  1
  C  C497  1  0.25022000  0.57016000  0.09740000  1
  C  C498  1  0.24992000  0.57099000  0.23208000  1
  C  C499  1  0.24995000  0.57274000  0.14252000  1
  C  C500  1  0.24991000  0.22457000  0.45260000  1
  C  C501  1  0.25029000  0.06769000  0.52649000  1
  C  C502  1  0.24987000  0.41953000  0.25555000  1
  C  C503  1  0.24981000  0.01438000  0.42663000  1
  C  C504  1  0.24961000  0.97435000  0.47691000  1
  C  C505  1  0.25188000  0.55361000  0.43198000  1
  C  C506  1  0.25038000  0.47432000  0.35455000  1
  C  C507  1  0.24983000  0.09738000  0.33260000  1
  C  C508  1  0.25005000  0.23211000  0.19700000  1
  C  C509  1  0.24991000  0.14251000  0.28496000  1
  C  C510  1  0.25008000  0.45253000  0.32286000  1
  C  C511  1  0.25136000  0.52648000  0.40586000  1
  C  C512  1  0.25010000  0.25550000  0.32482000  1
  C  C513  1  0.24942000  0.42685000  0.55896000  1
  C  C514  1  0.24884000  0.47715000  0.54877000  1
  C  C515  1  0.24813000  0.43192000  0.01461000  1
  C  C516  1  0.24953000  0.35454000  0.17113000  1
  C  C517  1  0.24990000  0.33260000  0.57016000  1
  C  C518  1  0.25004000  0.19703000  0.57089000  1
  C  C519  1  0.25001000  0.28492000  0.57266000  1
  C  C520  1  0.24993000  0.32275000  0.22454000  1
  C  C521  1  0.24832000  0.40572000  0.06779000  1
  O  O522  1  0.40469000  0.56194000  0.86914000  1
  O  O523  1  0.68608000  0.45637000  0.50111000  1
  O  O524  1  0.33785000  0.59256000  0.79867000  1
  O  O525  1  0.68600000  0.00848000  0.55628000  1
  O  O526  1  0.34120000  0.49294000  0.82476000  1
  O  O527  1  0.40027000  0.46261000  0.89783000  1
  O  O528  1  0.40484000  0.56827000  0.56241000  1
  O  O529  1  0.68325000  0.04210000  0.45638000  1
  O  O530  1  0.33821000  0.60888000  0.59226000  1
  O  O531  1  0.68203000  0.43542000  0.00818000  1
  O  O532  1  0.34119000  0.68274000  0.49300000  1
  O  O533  1  0.40030000  0.63949000  0.46319000  1
  O  O534  1  0.40483000  0.86944000  0.56829000  1
  O  O535  1  0.68593000  0.50131000  0.04226000  1
  O  O536  1  0.33814000  0.79908000  0.60884000  1
  O  O537  1  0.68203000  0.55636000  0.43515000  1
  O  O538  1  0.34083000  0.82475000  0.68270000  1
  O  O539  1  0.40033000  0.89759000  0.63947000  1
  O  O540  1  0.09521000  0.56261000  0.86958000  1
  O  O541  1  0.81814000  0.45627000  0.50157000  1
  O  O542  1  0.16205000  0.59231000  0.79924000  1
  O  O543  1  0.81786000  0.00809000  0.55638000  1
  O  O544  1  0.15877000  0.49324000  0.82410000  1
  O  O545  1  0.09976000  0.46352000  0.89714000  1
  O  O546  1  0.09547000  0.56892000  0.56209000  1
  O  O547  1  0.81556000  0.04233000  0.45635000  1
  O  O548  1  0.16196000  0.60924000  0.59239000  1
  O  O549  1  0.81389000  0.43533000  0.00859000  1
  O  O550  1  0.15878000  0.68247000  0.49288000  1
  O  O551  1  0.09968000  0.63952000  0.46274000  1
  O  O552  1  0.09529000  0.86909000  0.56876000  1
  O  O553  1  0.81804000  0.50188000  0.04193000  1
  O  O554  1  0.16180000  0.79858000  0.60923000  1
  O  O555  1  0.81389000  0.55603000  0.43534000  1
  O  O556  1  0.15916000  0.82485000  0.68262000  1
  O  O557  1  0.09969000  0.89771000  0.63945000  1
  O  O558  1  0.59528000  0.43695000  0.43250000  1
  O  O559  1  0.31801000  0.54374000  0.95787000  1
  O  O560  1  0.66202000  0.40738000  0.39164000  1
  O  O561  1  0.31691000  0.99179000  0.56467000  1
  O  O562  1  0.65867000  0.50622000  0.31689000  1
  O  O563  1  0.59970000  0.53550000  0.36067000  1
  O  O564  1  0.59521000  0.43234000  0.13029000  1
  O  O565  1  0.31574000  0.95802000  0.49847000  1
  O  O566  1  0.66201000  0.39156000  0.20059000  1
  O  O567  1  0.31798000  0.56461000  0.44366000  1
  O  O568  1  0.65891000  0.31723000  0.17591000  1
  O  O569  1  0.59967000  0.36059000  0.10299000  1
  O  O570  1  0.59528000  0.13066000  0.43793000  1
  O  O571  1  0.31462000  0.49896000  0.54362000  1
  O  O572  1  0.66197000  0.20107000  0.40789000  1
  O  O573  1  0.31404000  0.44379000  0.99164000  1
  O  O574  1  0.65905000  0.17517000  0.50747000  1
  O  O575  1  0.59968000  0.10224000  0.53727000  1
  O  O576  1  0.90458000  0.43783000  0.43112000  1
  O  O577  1  0.18597000  0.54365000  0.95747000  1
  O  O578  1  0.83828000  0.40726000  0.39094000  1
  O  O579  1  0.18490000  0.99144000  0.56469000  1
  O  O580  1  0.84119000  0.50677000  0.31748000  1
  O  O581  1  0.90020000  0.53700000  0.36039000  1
  O  O582  1  0.90466000  0.43112000  0.13092000  1
  O  O583  1  0.18332000  0.95799000  0.49828000  1
  O  O584  1  0.83833000  0.39080000  0.20154000  1
  O  O585  1  0.18610000  0.56492000  0.44375000  1
  O  O586  1  0.84087000  0.31749000  0.17510000  1
  O  O587  1  0.90035000  0.36048000  0.10222000  1
  O  O588  1  0.90481000  0.13082000  0.43781000  1
  O  O589  1  0.18251000  0.49845000  0.54372000  1
  O  O590  1  0.83801000  0.20121000  0.40773000  1
  O  O591  1  0.18218000  0.44367000  0.99175000  1
  O  O592  1  0.84101000  0.17530000  0.50726000  1
  O  O593  1  0.90032000  0.10238000  0.53713000  1
  O  O594  1  0.25005000  0.51430000  0.89022000  1
  O  O595  1  0.25001000  0.59566000  0.51442000  1
  O  O596  1  0.25002000  0.89017000  0.59561000  1
  O  O597  1  0.75000000  0.48549000  0.40424000  1
  O  O598  1  0.74998000  0.40432000  0.10983000  1
  O  O599  1  0.75005000  0.10975000  0.48576000  1
