# generated using pymatgen
data_NiH6C10(NO2)2
_symmetry_space_group_name_H-M   'P 1'
_cell_length_a   6.82982000
_cell_length_b   19.78024000
_cell_length_c   20.28668000
_cell_angle_alpha   65.63863000
_cell_angle_beta   90.16769000
_cell_angle_gamma   90.09287000
_symmetry_Int_Tables_number   1
_chemical_formula_structural   NiH6C10(NO2)2
_chemical_formula_sum   'Ni6 H36 C60 N12 O24'
_cell_volume   2496.60674201
_cell_formula_units_Z   6
loop_
 _symmetry_equiv_pos_site_id
 _symmetry_equiv_pos_as_xyz
  1  'x, y, z'
loop_
 _atom_site_type_symbol
 _atom_site_label
 _atom_site_symmetry_multiplicity
 _atom_site_fract_x
 _atom_site_fract_y
 _atom_site_fract_z
 _atom_site_occupancy
  Ni  Ni1  1  0.50989000  0.41932000  0.86818000  1.0
  Ni  Ni2  1  0.50982000  0.57878000  0.63196000  1.0
  Ni  Ni3  1  0.49012000  0.58070000  0.13181000  1.0
  Ni  Ni4  1  0.49019000  0.42123000  0.36803000  1.0
  Ni  Ni5  1  0.39708000  0.99923000  0.74851000  1.0
  Ni  Ni6  1  0.60277000  0.00082000  0.25147000  1.0
  H  H1  1  0.50422000  0.43612000  0.58775000  1.0
  H  H2  1  0.44341000  0.21874000  0.59062000  1.0
  H  H3  1  0.46809000  0.24348000  0.79165000  1.0
  H  H4  1  0.19768000  0.52470000  0.87010000  1.0
  H  H5  1  0.82221000  0.52476000  0.86919000  1.0
  H  H6  1  0.82169000  0.31539000  0.86943000  1.0
  H  H7  1  0.19862000  0.31540000  0.86996000  1.0
  H  H8  1  0.08698000  0.09588000  0.65660000  1.0
  H  H9  1  0.71764000  0.09485000  0.65557000  1.0
  H  H10  1  0.50467000  0.56339000  0.91207000  1.0
  H  H11  1  0.44396000  0.78135000  0.90767000  1.0
  H  H12  1  0.46960000  0.75530000  0.70745000  1.0
  H  H13  1  0.19665000  0.47415000  0.62991000  1.0
  H  H14  1  0.82112000  0.47395000  0.63118000  1.0
  H  H15  1  0.82257000  0.68331000  0.63097000  1.0
  H  H16  1  0.19947000  0.68345000  0.63006000  1.0
  H  H17  1  0.08763000  0.90438000  0.84739000  1.0
  H  H18  1  0.71805000  0.90541000  0.84825000  1.0
  H  H19  1  0.49571000  0.56392000  0.41219000  1.0
  H  H20  1  0.55688000  0.78130000  0.40942000  1.0
  H  H21  1  0.53209000  0.75660000  0.20837000  1.0
  H  H22  1  0.80230000  0.47533000  0.12991000  1.0
  H  H23  1  0.17776000  0.47526000  0.13084000  1.0
  H  H24  1  0.17828000  0.68465000  0.13058000  1.0
  H  H25  1  0.80136000  0.68463000  0.13004000  1.0
  H  H26  1  0.91370000  0.90401000  0.34319000  1.0
  H  H27  1  0.28305000  0.90513000  0.34427000  1.0
  H  H28  1  0.49517000  0.43670000  0.08783000  1.0
  H  H29  1  0.55629000  0.21871000  0.09233000  1.0
  H  H30  1  0.53058000  0.24492000  0.29251000  1.0
  H  H31  1  0.80334000  0.52583000  0.37001000  1.0
  H  H32  1  0.17884000  0.52603000  0.36873000  1.0
  H  H33  1  0.17740000  0.31666000  0.36895000  1.0
  H  H34  1  0.80052000  0.31653000  0.36986000  1.0
  H  H35  1  0.91312000  0.09571000  0.15248000  1.0
  H  H36  1  0.28274000  0.09462000  0.15164000  1.0
  C  C1  1  0.48275000  0.36397000  0.50112000  1.0
  C  C2  1  0.47586000  0.33046000  0.58166000  1.0
  C  C3  1  0.49027000  0.37637000  0.61876000  1.0
  C  C4  1  0.45547000  0.25360000  0.62016000  1.0
  C  C5  1  0.50290000  0.39530000  0.73402000  1.0
  C  C6  1  0.48689000  0.34543000  0.69463000  1.0
  C  C7  1  0.46870000  0.26835000  0.73281000  1.0
  C  C8  1  0.45198000  0.22222000  0.69597000  1.0
  C  C9  1  0.43568000  0.13986000  0.73947000  1.0
  C  C10  1  0.11242000  0.47858000  0.86924000  1.0
  C  C11  1  0.90787000  0.47863000  0.86880000  1.0
  C  C12  1  0.90777000  0.36188000  0.86905000  1.0
  C  C13  1  0.11250000  0.36183000  0.86944000  1.0
  C  C14  1  0.00539000  0.05254000  0.69914000  1.0
  C  C15  1  0.79900000  0.05210000  0.69891000  1.0
  C  C16  1  0.48293000  0.63625000  0.99849000  1.0
  C  C17  1  0.47666000  0.66929000  0.91784000  1.0
  C  C18  1  0.49094000  0.62313000  0.88103000  1.0
  C  C19  1  0.45640000  0.74600000  0.87871000  1.0
  C  C20  1  0.50339000  0.60300000  0.76665000  1.0
  C  C21  1  0.48784000  0.65363000  0.80515000  1.0
  C  C22  1  0.47008000  0.73063000  0.76631000  1.0
  C  C23  1  0.45316000  0.77689000  0.80289000  1.0
  C  C24  1  0.43602000  0.85906000  0.75986000  1.0
  C  C25  1  0.11177000  0.52023000  0.63085000  1.0
  C  C26  1  0.90727000  0.52010000  0.63151000  1.0
  C  C27  1  0.90820000  0.63683000  0.63129000  1.0
  C  C28  1  0.11297000  0.63697000  0.63067000  1.0
  C  C29  1  0.00569000  0.94772000  0.80488000  1.0
  C  C30  1  0.79936000  0.94816000  0.80504000  1.0
  C  C31  1  0.51727000  0.63604000  0.49886000  1.0
  C  C32  1  0.52430000  0.66957000  0.41832000  1.0
  C  C33  1  0.50985000  0.62367000  0.38121000  1.0
  C  C34  1  0.54472000  0.74646000  0.37985000  1.0
  C  C35  1  0.49712000  0.60474000  0.26597000  1.0
  C  C36  1  0.51322000  0.65461000  0.30535000  1.0
  C  C37  1  0.53143000  0.73170000  0.26719000  1.0
  C  C38  1  0.54826000  0.77783000  0.30403000  1.0
  C  C39  1  0.56461000  0.86020000  0.26045000  1.0
  C  C40  1  0.88757000  0.52145000  0.13076000  1.0
  C  C41  1  0.09212000  0.52141000  0.13120000  1.0
  C  C42  1  0.09223000  0.63816000  0.13094000  1.0
  C  C43  1  0.88750000  0.63821000  0.13055000  1.0
  C  C44  1  0.99523000  0.94742000  0.30068000  1.0
  C  C45  1  0.20162000  0.94788000  0.30095000  1.0
  C  C46  1  0.51711000  0.36386000  0.00146000  1.0
  C  C47  1  0.52345000  0.33081000  0.08211000  1.0
  C  C48  1  0.50914000  0.37697000  0.11893000  1.0
  C  C49  1  0.54367000  0.25409000  0.12125000  1.0
  C  C50  1  0.49662000  0.39711000  0.23330000  1.0
  C  C51  1  0.51223000  0.34646000  0.19480000  1.0
  C  C52  1  0.52997000  0.26944000  0.23366000  1.0
  C  C53  1  0.54696000  0.22317000  0.19707000  1.0
  C  C54  1  0.56422000  0.14097000  0.24001000  1.0
  C  C55  1  0.88823000  0.47975000  0.36909000  1.0
  C  C56  1  0.09272000  0.47988000  0.36843000  1.0
  C  C57  1  0.09179000  0.36314000  0.36865000  1.0
  C  C58  1  0.88703000  0.36301000  0.36927000  1.0
  C  C59  1  0.99497000  0.05232000  0.19499000  1.0
  C  C60  1  0.20129000  0.05188000  0.19482000  1.0
  N  N1  1  0.21211000  0.42077000  0.86816000  1.0
  N  N2  1  0.80826000  0.42088000  0.86732000  1.0
  N  N3  1  0.21203000  0.57809000  0.63175000  1.0
  N  N4  1  0.80821000  0.57781000  0.63303000  1.0
  N  N5  1  0.78789000  0.57927000  0.13182000  1.0
  N  N6  1  0.19173000  0.57917000  0.13265000  1.0
  N  N7  1  0.78798000  0.42189000  0.36819000  1.0
  N  N8  1  0.19178000  0.42216000  0.36691000  1.0
  N  N9  1  0.10948000  0.00048000  0.75232000  1.0
  N  N10  1  0.69569000  0.00049000  0.75223000  1.0
  N  N11  1  0.89120000  0.99951000  0.24751000  1.0
  N  N12  1  0.30494000  0.99952000  0.24764000  1.0
  O  O1  1  0.48581000  0.43468000  0.46659000  1.0
  O  O2  1  0.48552000  0.32257000  0.46638000  1.0
  O  O3  1  0.50469000  0.36329000  0.80342000  1.0
  O  O4  1  0.51407000  0.46443000  0.69678000  1.0
  O  O5  1  0.40046000  0.10225000  0.69931000  1.0
  O  O6  1  0.45639000  0.11119000  0.80597000  1.0
  O  O7  1  0.48573000  0.56562000  0.03340000  1.0
  O  O8  1  0.48548000  0.67802000  0.03292000  1.0
  O  O9  1  0.50501000  0.63423000  0.69726000  1.0
  O  O10  1  0.51410000  0.53409000  0.80485000  1.0
  O  O11  1  0.39968000  0.89614000  0.80001000  1.0
  O  O12  1  0.45693000  0.88880000  0.69328000  1.0
  O  O13  1  0.51417000  0.56532000  0.53342000  1.0
  O  O14  1  0.51447000  0.67746000  0.53358000  1.0
  O  O15  1  0.49525000  0.63673000  0.19657000  1.0
  O  O16  1  0.48599000  0.53561000  0.30324000  1.0
  O  O17  1  0.59991000  0.89777000  0.30065000  1.0
  O  O18  1  0.54366000  0.88886000  0.19398000  1.0
  O  O19  1  0.51425000  0.43448000  0.96655000  1.0
  O  O20  1  0.51455000  0.32209000  0.96702000  1.0
  O  O21  1  0.49494000  0.36594000  0.30269000  1.0
  O  O22  1  0.48596000  0.46602000  0.19501000  1.0
  O  O23  1  0.60082000  0.10393000  0.19985000  1.0
  O  O24  1  0.54295000  0.11114000  0.30657000  1.0
