# generated using pymatgen
data_CdH3C2N3
_symmetry_space_group_name_H-M   'P 1'
_cell_length_a   8.73793000
_cell_length_b   8.73792000
_cell_length_c   14.76633000
_cell_angle_alpha   90.78151000
_cell_angle_beta   90.78168000
_cell_angle_gamma   90.51529000
_symmetry_Int_Tables_number   1
_chemical_formula_structural   CdH3C2N3
_chemical_formula_sum   'Cd4 H12 C8 N12'
_cell_volume   1127.17168573
_cell_formula_units_Z   4
loop_
 _symmetry_equiv_pos_site_id
 _symmetry_equiv_pos_as_xyz
  1  'x, y, z'
loop_
 _atom_site_type_symbol
 _atom_site_label
 _atom_site_symmetry_multiplicity
 _atom_site_fract_x
 _atom_site_fract_y
 _atom_site_fract_z
 _atom_site_occupancy
  Cd  Cd0  1  0.49233000  0.50767000  0.75000000  1
  Cd  Cd1  1  0.50768000  0.49233000  0.25000000  1
  Cd  Cd2  1  0.00000000  0.50000000  0.00000000  1
  Cd  Cd3  1  0.50000000  0.00000000  0.50000000  1
  H  H4  1  0.09073000  0.18941000  0.95318000  1
  H  H5  1  0.90099000  0.19202000  0.94935000  1
  H  H6  1  0.99206000  0.17437000  0.04786000  1
  H  H7  1  0.81059000  0.90928000  0.54682000  1
  H  H8  1  0.80799000  0.09902000  0.55065000  1
  H  H9  1  0.82564000  0.00795000  0.45214000  1
  H  H10  1  0.90928000  0.81059000  0.04682000  1
  H  H11  1  0.09902000  0.80799000  0.05065000  1
  H  H12  1  0.00794000  0.82564000  0.95214000  1
  H  H13  1  0.18942000  0.09073000  0.45318000  1
  H  H14  1  0.19202000  0.90099000  0.44935000  1
  H  H15  1  0.17437000  0.99206000  0.54786000  1
  C  C16  1  0.28626000  0.50748000  0.83676000  1
  C  C17  1  0.49158000  0.30183000  0.65956000  1
  C  C18  1  0.49253000  0.71374000  0.66324000  1
  C  C19  1  0.69817000  0.50842000  0.84044000  1
  C  C20  1  0.71374000  0.49253000  0.16323000  1
  C  C21  1  0.50842000  0.69817000  0.34044000  1
  C  C22  1  0.50748000  0.28627000  0.33676000  1
  C  C23  1  0.30184000  0.49158000  0.15956000  1
  N  N24  1  0.18290000  0.50826000  0.88648000  1
  N  N25  1  0.19792000  0.49112000  0.10853000  1
  N  N26  1  0.99547000  0.22576000  0.98619000  1
  N  N27  1  0.49174000  0.81710000  0.61352000  1
  N  N28  1  0.50889000  0.80208000  0.39146000  1
  N  N29  1  0.77425000  0.00454000  0.51381000  1
  N  N30  1  0.81710000  0.49174000  0.11352000  1
  N  N31  1  0.80208000  0.50888000  0.89147000  1
  N  N32  1  0.00454000  0.77425000  0.01381000  1
  N  N33  1  0.50827000  0.18290000  0.38648000  1
  N  N34  1  0.49112000  0.19792000  0.60853000  1
  N  N35  1  0.22576000  0.99547000  0.48619000  1
