# generated using pymatgen
data_CdH24C22(NO)4
_symmetry_space_group_name_H-M   'P 1'
_cell_length_a   7.31615000
_cell_length_b   13.65531000
_cell_length_c   14.87830000
_cell_angle_alpha   91.75008000
_cell_angle_beta   89.99103000
_cell_angle_gamma   89.99907000
_symmetry_Int_Tables_number   1
_chemical_formula_structural   CdH24C22(NO)4
_chemical_formula_sum   'Cd2 H48 C44 N8 O8'
_cell_volume   1485.71273565
_cell_formula_units_Z   2
loop_
 _symmetry_equiv_pos_site_id
 _symmetry_equiv_pos_as_xyz
  1  'x, y, z'
loop_
 _atom_site_type_symbol
 _atom_site_label
 _atom_site_symmetry_multiplicity
 _atom_site_fract_x
 _atom_site_fract_y
 _atom_site_fract_z
 _atom_site_occupancy
  Cd  Cd0  1  0.81493000  0.02040000  0.81508000  1
  Cd  Cd1  1  0.18509000  0.52025000  0.31513000  1
  H  H2  1  0.81786000  0.80796000  0.62012000  1
  H  H3  1  0.44551000  0.62011000  0.47131000  1
  H  H4  1  0.80843000  0.30976000  0.63084000  1
  H  H5  1  0.75847000  0.21591000  0.55047000  1
  H  H6  1  0.49608000  0.24659000  0.43201000  1
  H  H7  1  0.18653000  0.73391000  0.51202000  1
  H  H8  1  0.13370000  0.94797000  0.48499000  1
  H  H9  1  0.55917000  0.92194000  0.66061000  1
  H  H10  1  0.72945000  0.74921000  0.36570000  1
  H  H11  1  0.89058000  0.68101000  0.29888000  1
  H  H12  1  0.66881000  0.63188000  0.32037000  1
  H  H13  1  0.12651000  0.48999000  0.54004000  1
  H  H14  1  0.86904000  0.59158000  0.64590000  1
  H  H15  1  0.50364000  0.29359000  0.69892000  1
  H  H16  1  0.28947000  0.15952000  0.64590000  1
  H  H17  1  0.44163000  0.12768000  0.55886000  1
  H  H18  1  0.87404000  0.04928000  0.58990000  1
  H  H19  1  0.11008000  0.85309000  0.82901000  1
  H  H20  1  0.31707000  0.92103000  0.81771000  1
  H  H21  1  0.29880000  0.80233000  0.76667000  1
  H  H22  1  0.71525000  0.37926000  0.48269000  1
  H  H23  1  0.56395000  0.41540000  0.56858000  1
  H  H24  1  0.19007000  0.23558000  0.50204000  1
  H  H25  1  0.25037000  0.32743000  0.58291000  1
  H  H26  1  0.18230000  0.30783000  0.12009000  1
  H  H27  1  0.55483000  0.12004000  0.97128000  1
  H  H28  1  0.19157000  0.80967000  0.13089000  1
  H  H29  1  0.24135000  0.71567000  0.05052000  1
  H  H30  1  0.50436000  0.74659000  0.93180000  1
  H  H31  1  0.81374000  0.23384000  0.01199000  1
  H  H32  1  0.86647000  0.44788000  0.98492000  1
  H  H33  1  0.44093000  0.42181000  0.16062000  1
  H  H34  1  0.27119000  0.24900000  0.86558000  1
  H  H35  1  0.10958000  0.18104000  0.79887000  1
  H  H36  1  0.33115000  0.13160000  0.82020000  1
  H  H37  1  0.87385000  0.98991000  0.04008000  1
  H  H38  1  0.13138000  0.09149000  0.14588000  1
  H  H39  1  0.49643000  0.79369000  0.19884000  1
  H  H40  1  0.71025000  0.65926000  0.14592000  1
  H  H41  1  0.55820000  0.62755000  0.05890000  1
  H  H42  1  0.12610000  0.54921000  0.08984000  1
  H  H43  1  0.88992000  0.35321000  0.32903000  1
  H  H44  1  0.68288000  0.42108000  0.31773000  1
  H  H45  1  0.70124000  0.30240000  0.26672000  1
  H  H46  1  0.28508000  0.87915000  0.98280000  1
  H  H47  1  0.43618000  0.91501000  0.06869000  1
  H  H48  1  0.80972000  0.73516000  0.00202000  1
  H  H49  1  0.75024000  0.82688000  0.08271000  1
  C  C50  1  0.67949000  0.79212000  0.59713000  1
  C  C51  1  0.85724000  0.62977000  0.43061000  1
  C  C52  1  0.35982000  0.83262000  0.58966000  1
  C  C53  1  0.46883000  0.68705000  0.51117000  1
  C  C54  1  0.69723000  0.27629000  0.59096000  1
  C  C55  1  0.64300000  0.15965000  0.71513000  1
  C  C56  1  0.44943000  0.30819000  0.47582000  1
  C  C57  1  0.32501000  0.74972000  0.53498000  1
  C  C58  1  0.10645000  0.94996000  0.55640000  1
  C  C59  1  0.53579000  0.85487000  0.62091000  1
  C  C60  1  0.78200000  0.67559000  0.34932000  1
  C  C61  1  0.64495000  0.70939000  0.54223000  1
  C  C62  1  0.02039000  0.54058000  0.52136000  1
  C  C63  1  0.89659000  0.59052000  0.57453000  1
  C  C64  1  0.55271000  0.23323000  0.65438000  1
  C  C65  1  0.39160000  0.19004000  0.60041000  1
  C  C66  1  0.98183000  0.99989000  0.60903000  1
  C  C67  1  0.14739000  0.91321000  0.70078000  1
  C  C68  1  0.36088000  0.38194000  0.41450000  1
  C  C69  1  0.22270000  0.86967000  0.78309000  1
  C  C70  1  0.61200000  0.35121000  0.52890000  1
  C  C71  1  0.30541000  0.26676000  0.54052000  1
  C  C72  1  0.32069000  0.29203000  0.09710000  1
  C  C73  1  0.14299000  0.12972000  0.93058000  1
  C  C74  1  0.64037000  0.33255000  0.08965000  1
  C  C75  1  0.53146000  0.18699000  0.01113000  1
  C  C76  1  0.30264000  0.77608000  0.09098000  1
  C  C77  1  0.35692000  0.65969000  0.21536000  1
  C  C78  1  0.55084000  0.80799000  0.97588000  1
  C  C79  1  0.67526000  0.24965000  0.03497000  1
  C  C80  1  0.89371000  0.44990000  0.05635000  1
  C  C81  1  0.46436000  0.35477000  0.12089000  1
  C  C82  1  0.21823000  0.17546000  0.84924000  1
  C  C83  1  0.35532000  0.20931000  0.04218000  1
  C  C84  1  0.97996000  0.04053000  0.02137000  1
  C  C85  1  0.10375000  0.09043000  0.07450000  1
  C  C86  1  0.44710000  0.73320000  0.15450000  1
  C  C87  1  0.60808000  0.68983000  0.10054000  1
  C  C88  1  0.01823000  0.49984000  0.10897000  1
  C  C89  1  0.85260000  0.41326000  0.20076000  1
  C  C90  1  0.63942000  0.88195000  0.91473000  1
  C  C91  1  0.77730000  0.36975000  0.28310000  1
  C  C92  1  0.38817000  0.85090000  0.02894000  1
  C  C93  1  0.69449000  0.76632000  0.04054000  1
  N  N94  1  0.21114000  0.89549000  0.61503000  1
  N  N95  1  0.00774000  0.97615000  0.69790000  1
  N  N96  1  0.99537000  0.56579000  0.43279000  1
  N  N97  1  0.79375000  0.64669000  0.51653000  1
  N  N98  1  0.78896000  0.39547000  0.11500000  1
  N  N99  1  0.99226000  0.47619000  0.19786000  1
  N  N100  1  0.00483000  0.06576000  0.93279000  1
  N  N101  1  0.20656000  0.14661000  0.01649000  1
  O  O102  1  0.40777000  0.47236000  0.42239000  1
  O  O103  1  0.60098000  0.06863000  0.70508000  1
  O  O104  1  0.24000000  0.35196000  0.35854000  1
  O  O105  1  0.75982000  0.19032000  0.77279000  1
  O  O106  1  0.59198000  0.97229000  0.92247000  1
  O  O107  1  0.39920000  0.56871000  0.20541000  1
  O  O108  1  0.76036000  0.85207000  0.85873000  1
  O  O109  1  0.23987000  0.69038000  0.27291000  1
