# generated using pymatgen
data_H20C49(NO2)8
_symmetry_space_group_name_H-M   'P 1'
_cell_length_a   24.30345000
_cell_length_b   51.93265488
_cell_length_c   51.92830000
_cell_angle_alpha   119.99767822
_cell_angle_beta   90.00000000
_cell_angle_gamma   89.28770487
_symmetry_Int_Tables_number   1
_chemical_formula_structural   H20C49(NO2)8
_chemical_formula_sum   'H120 C294 N48 O96'
_cell_volume   56755.58477062
_cell_formula_units_Z   6
loop_
 _symmetry_equiv_pos_site_id
 _symmetry_equiv_pos_as_xyz
  1  'x, y, z'
loop_
 _atom_site_type_symbol
 _atom_site_label
 _atom_site_symmetry_multiplicity
 _atom_site_fract_x
 _atom_site_fract_y
 _atom_site_fract_z
 _atom_site_occupancy
  C  1  1  0.75900200  0.56771750  0.40689150  1
  C  2  1  0.72234200  0.54468600  0.39050550  1
  C  3  1  0.68628200  0.54222700  0.40980650  1
  C  4  1  0.69816300  0.56402700  0.43905950  1
  C  5  1  0.66764100  0.56498150  0.46282150  1
  C  6  1  0.62602500  0.54372000  0.45678700  1
  C  7  1  0.61448300  0.52241900  0.42681600  1
  C  8  1  0.64426700  0.52156550  0.40325650  1
  C  9  1  0.72415300  0.52839050  0.35931750  1
  C  10  1  0.76350500  0.53572200  0.34436050  1
  C  11  1  0.80145300  0.55897700  0.36006900  1
  C  12  1  0.79847000  0.57517600  0.39167700  1
  C  13  1  0.73328000  0.61448450  0.45240950  1
  C  14  1  0.76858600  0.63110700  0.47618500  1
  C  15  1  0.80311200  0.61192950  0.48011050  1
  C  16  1  0.79195700  0.58256400  0.45838700  1
  C  17  1  0.84403200  0.61873900  0.50157500  1
  C  18  1  0.87353400  0.59534550  0.50155650  1
  C  19  1  0.86287500  0.56527250  0.48027200  1
  C  20  1  0.82224700  0.55897550  0.45826250  1
  C  21  1  0.69680700  0.62940900  0.44275650  1
  C  22  1  0.69729300  0.66092900  0.45677650  1
  C  23  1  0.73250700  0.67703100  0.48136450  1
  C  24  1  0.76808100  0.66232500  0.49123800  1
  C  37  1  0.74566500  0.58210000  0.43925450  1
  C  38  1  0.42984400  0.86008000  0.45321150  1
  C  39  1  0.39244600  0.86722750  0.47639300  1
  C  40  1  0.35625400  0.88906700  0.47863100  1
  C  41  1  0.36882100  0.89607250  0.45654650  1
  C  42  1  0.33816900  0.91879450  0.45523150  1
  C  43  1  0.29574200  0.93438600  0.47645100  1
  C  44  1  0.28346900  0.92616350  0.49804850  1
  C  45  1  0.31343300  0.90354650  0.49925950  1
  C  46  1  0.39372100  0.85268200  0.49302450  1
  C  47  1  0.43339100  0.83023450  0.48590900  1
  C  48  1  0.47206900  0.82218350  0.46251650  1
  C  49  1  0.46953700  0.83718900  0.44592200  1
  C  50  1  0.40540700  0.85838150  0.40618550  1
  C  51  1  0.44143600  0.86492200  0.38928100  1
  C  52  1  0.47539700  0.88790500  0.40820200  1
  C  53  1  0.46320300  0.89606900  0.43770300  1
  C  54  1  0.51631300  0.90221650  0.40107250  1
  C  55  1  0.54467500  0.92577350  0.42424450  1
  C  56  1  0.53296100  0.93510300  0.45444500  1
  C  57  1  0.49240500  0.91970100  0.46106800  1
  C  58  1  0.36845900  0.83445900  0.39155500  1
  C  59  1  0.36906000  0.81692650  0.36000650  1
  C  60  1  0.40520100  0.82477600  0.34365600  1
  C  61  1  0.44129400  0.84869300  0.35806450  1
  C  74  1  0.41691700  0.87780200  0.43849700  1
  C  75  1  0.09154800  0.61945400  0.16648850  1
  C  76  1  0.05400300  0.63587000  0.15978700  1
  C  77  1  0.01823000  0.61662100  0.13808250  1
  C  78  1  0.03121500  0.58736400  0.13069800  1
  C  79  1  0.00140900  0.56362200  0.10782550  1
  C  80  1  0.95953400  0.56966600  0.09237450  1
  C  81  1  0.94688800  0.59964500  0.10096500  1
  C  82  1  0.97590900  0.62318700  0.12376300  1
  C  83  1  0.05513200  0.66703500  0.17438400  1
  C  84  1  0.09495500  0.68194350  0.19628150  1
  C  85  1  0.13406500  0.66622100  0.20374350  1
  C  86  1  0.13150700  0.63463650  0.18877850  1
  C  87  1  0.06766500  0.57394600  0.16779900  1
  C  88  1  0.10370000  0.55000700  0.16052300  1
  C  89  1  0.13794300  0.54605200  0.13744900  1
  C  90  1  0.12572800  0.56784300  0.12986350  1
  C  91  1  0.17920700  0.52437400  0.12261750  1
  C  92  1  0.20802100  0.52429100  0.09916950  1
  C  93  1  0.19632800  0.54567100  0.09046150  1
  C  94  1  0.15537300  0.56789000  0.10635550  1
  C  95  1  0.03050700  0.58322500  0.19199600  1
  C  96  1  0.03108500  0.56872550  0.20906950  1
  C  97  1  0.06728600  0.54408250  0.20051750  1
  C  98  1  0.10353900  0.53457550  0.17631350  1
  C  111  1  0.07910900  0.58711450  0.14860050  1
  C  112  1  0.26198800  0.45957350  0.61026450  1
  C  113  1  0.22432300  0.48274600  0.62659500  1
  C  114  1  0.18812500  0.48514850  0.60727050  1
  C  115  1  0.20092700  0.46317300  0.57805400  1
  C  116  1  0.17082700  0.46233300  0.55424300  1
  C  117  1  0.12877700  0.48391850  0.56018850  1
  C  118  1  0.11620700  0.50534350  0.59013800  1
  C  119  1  0.14555300  0.50607750  0.61374850  1
  C  120  1  0.22591300  0.49950550  0.65775050  1
  C  121  1  0.26630300  0.49261850  0.67274050  1
  C  122  1  0.30551900  0.46936550  0.65709250  1
  C  123  1  0.30252500  0.45256750  0.62552400  1
  C  124  1  0.23820700  0.41264550  0.56486400  1
  C  125  1  0.27453700  0.39590750  0.54119150  1
  C  126  1  0.30816900  0.41497600  0.53713300  1
  C  127  1  0.29546600  0.44439550  0.55869950  1
  C  128  1  0.34916400  0.40806950  0.51549950  1
  C  129  1  0.37709700  0.43139800  0.51519600  1
  C  130  1  0.36482100  0.46152700  0.53631700  1
  C  131  1  0.32423500  0.46791650  0.55853150  1
  C  132  1  0.20151500  0.39779350  0.57414450  1
  C  133  1  0.20257700  0.36622200  0.55984500  1
  C  134  1  0.23905300  0.35006900  0.53545100  1
  C  135  1  0.27492100  0.36468450  0.52595950  1
  C  148  1  0.24916700  0.44500450  0.57791400  1
  C  149  1  0.92474600  0.17146000  0.56133900  1
  C  150  1  0.88787900  0.16515600  0.53829900  1
  C  151  1  0.85166100  0.14357150  0.53568900  1
  C  152  1  0.86348000  0.13598550  0.55748000  1
  C  153  1  0.83340800  0.11296550  0.55795550  1
  C  154  1  0.79219900  0.09771100  0.53630600  1
  C  155  1  0.78055100  0.10664050  0.51512750  1
  C  156  1  0.80995700  0.12949700  0.51469000  1
  C  157  1  0.89007900  0.17994250  0.52192250  1
  C  158  1  0.93012500  0.20169650  0.52911200  1
  C  159  1  0.96837500  0.20886550  0.55234350  1
  C  160  1  0.96484300  0.19364550  0.56869550  1
  C  161  1  0.89964000  0.17263850  0.60807500  1
  C  162  1  0.93524200  0.16498250  0.62444950  1
  C  163  1  0.96914000  0.14161600  0.60506300  1
  C  164  1  0.95740300  0.13435750  0.57581250  1
  C  165  1  0.01002300  0.12641850  0.61156350  1
  C  166  1  0.03887100  0.10291100  0.58795600  1
  C  167  1  0.02757300  0.09452300  0.55798300  1
  C  168  1  0.98707600  0.11080050  0.55201250  1
  C  169  1  0.86364000  0.19750450  0.62330200  1
  C  170  1  0.86470600  0.21468250  0.65485050  1
  C  171  1  0.90017000  0.20565350  0.67066550  1
  C  172  1  0.93540100  0.18085400  0.65567100  1
  C  185  1  0.91126800  0.15349950  0.57562150  1
  C  186  1  0.59632600  0.41612850  0.85496250  1
  C  187  1  0.55942900  0.39982650  0.86168350  1
  C  188  1  0.52281900  0.41920200  0.88339100  1
  C  189  1  0.53460900  0.44841750  0.89074750  1
  C  190  1  0.50370900  0.47225050  0.91361150  1
  C  191  1  0.46196600  0.46631250  0.92904900  1
  C  192  1  0.45042500  0.43636950  0.92040550  1
  C  193  1  0.48054900  0.41274300  0.89763200  1
  C  194  1  0.56168100  0.36864750  0.84697800  1
  C  195  1  0.60171200  0.35360650  0.82476750  1
  C  196  1  0.63987500  0.36923900  0.81713600  1
  C  197  1  0.63647300  0.40083500  0.83236450  1
  C  198  1  0.57097000  0.46152150  0.85343550  1
  C  199  1  0.60658900  0.48504650  0.86034150  1
  C  200  1  0.64036200  0.48904750  0.88353400  1
  C  201  1  0.62846500  0.46759050  0.89146200  1
  C  202  1  0.68109700  0.51041050  0.89810650  1
  C  203  1  0.70962200  0.51055750  0.92166450  1
  C  204  1  0.69820300  0.48953500  0.93073100  1
  C  205  1  0.65784300  0.46759450  0.91507450  1
  C  206  1  0.53496500  0.45195250  0.82893100  1
  C  207  1  0.53616500  0.46576550  0.81122700  1
  C  208  1  0.57177700  0.49007050  0.81945800  1
  C  209  1  0.60692200  0.49985950  0.84394350  1
  C  222  1  0.58259300  0.44850450  0.87282050  1
  C  223  1  0.99713000  0.57773200  0.23460300  1
  C  224  1  0.93953000  0.57452400  0.23196800  1
  C  225  1  0.90704000  0.57561500  0.25519350  1
  C  226  1  0.93284000  0.58005050  0.28165550  1
  C  227  1  0.99001900  0.58584500  0.28559300  1
  C  228  1  0.02133700  0.58454900  0.26200200  1
  C  230  1  0.90297200  0.57556150  0.30276650  1
  C  231  1  0.90098000  0.54662350  0.29940750  1
  C  232  1  0.86988700  0.54221000  0.31973100  1
  C  233  1  0.83972500  0.56552550  0.34329050  1
  C  234  1  0.84358900  0.59428400  0.34696100  1
  C  235  1  0.87480600  0.59958200  0.32700900  1
  C  251  1  0.66453700  0.67734850  0.44710450  1
  C  252  1  0.60682400  0.67890100  0.45051000  1
  C  253  1  0.57531500  0.70111800  0.44873450  1
  C  254  1  0.60224000  0.72211700  0.44331300  1
  C  255  1  0.65960000  0.71913300  0.43723800  1
  C  256  1  0.68996100  0.69680800  0.43926350  1
  C  258  1  0.57322900  0.74792100  0.44719550  1
  C  259  1  0.57113300  0.77403750  0.47577950  1
  C  260  1  0.54035600  0.79891100  0.47970200  1
  C  261  1  0.51060800  0.79874950  0.45624450  1
  C  262  1  0.51467400  0.77312100  0.42779900  1
  C  263  1  0.54555700  0.74770500  0.42299750  1
  C  279  1  0.33505100  0.79168800  0.34380700  1
  C  280  1  0.27726100  0.79472900  0.34410700  1
  C  281  1  0.24422100  0.77162850  0.32265250  1
  C  282  1  0.26959700  0.74482000  0.30044550  1
  C  283  1  0.32714000  0.74050650  0.30145750  1
  C  284  1  0.35901100  0.76399700  0.32306000  1
  C  286  1  0.23869500  0.72363850  0.27552950  1
  C  287  1  0.23436800  0.72643400  0.24966550  1
  C  288  1  0.20231500  0.70606200  0.22562700  1
  C  289  1  0.17334300  0.68300100  0.22635800  1
  C  290  1  0.17952400  0.67987000  0.25170300  1
  C  291  1  0.21179100  0.69987850  0.27626150  1
  C  307  1  0.50342700  0.45631250  0.78534600  1
  C  308  1  0.44558200  0.45914300  0.78746750  1
  C  309  1  0.41371500  0.45717950  0.76368500  1
  C  310  1  0.44034500  0.45209650  0.73713000  1
  C  311  1  0.49796900  0.44664550  0.73376800  1
  C  312  1  0.52868300  0.44887950  0.75793000  1
  C  314  1  0.41047800  0.45548600  0.71526800  1
  C  315  1  0.40643700  0.48396050  0.71756450  1
  C  316  1  0.37446900  0.48741550  0.69683950  1
  C  317  1  0.34528700  0.46360200  0.67394300  1
  C  318  1  0.35136500  0.43527000  0.67123750  1
  C  319  1  0.38350600  0.43093750  0.69162450  1
  C  335  1  0.16866100  0.34979700  0.56875900  1
  C  336  1  0.11097300  0.34987350  0.56589900  1
  C  337  1  0.07813300  0.32828900  0.56745050  1
  C  338  1  0.10353100  0.30622750  0.57227750  1
  C  339  1  0.16111900  0.30719050  0.57724350  1
  C  340  1  0.19274800  0.32893550  0.57543450  1
  C  342  1  0.07294000  0.28113850  0.56830700  1
  C  343  1  0.06954900  0.25553750  0.53940850  1
  C  344  1  0.03747900  0.23133550  0.53519450  1
  C  345  1  0.00757000  0.23158750  0.55865150  1
  C  346  1  0.01286800  0.25659050  0.58736350  1
  C  347  1  0.04495500  0.28126250  0.59253050  1
  C  363  1  0.83216400  0.24089650  0.67162150  1
  C  364  1  0.77450500  0.23927250  0.67326050  1
  C  365  1  0.74331300  0.26320500  0.69578500  1
  C  366  1  0.77048900  0.28934550  0.71704750  1
  C  367  1  0.82776100  0.29223900  0.71406400  1
  C  368  1  0.85780100  0.26794950  0.69141650  1
  C  370  1  0.74174900  0.31115950  0.74299500  1
  C  371  1  0.73998300  0.30826250  0.76886000  1
  C  372  1  0.70898900  0.32894750  0.79374300  1
  C  373  1  0.67867200  0.35237850  0.79382000  1
  C  374  1  0.68252400  0.35567100  0.76848300  1
  C  375  1  0.71360300  0.33533150  0.74307000  1
  C  391  1  0.89342600  0.54293400  0.48256700  1
  C  392  1  0.88979300  0.54151500  0.50896400  1
  C  393  1  0.92965400  0.52611500  0.51620800  1
  C  394  1  0.97431600  0.51130000  0.49635200  1
  C  395  1  0.97750500  0.51163250  0.46919350  1
  C  396  1  0.93690300  0.52730050  0.46254950  1
  C  398  1  0.01956300  0.50063450  0.50631650  1
  C  399  1  0.01570500  0.47370500  0.50702000  1
  C  400  1  0.05573700  0.46667250  0.52254250  1
  C  401  1  0.09937300  0.48605750  0.53760250  1
  C  402  1  0.10387500  0.51214800  0.53571800  1
  C  403  1  0.06454500  0.51976900  0.52046450  1
  C  419  1  0.56227100  0.95997550  0.47653600  1
  C  420  1  0.55761300  0.98758950  0.47751550  1
  C  421  1  0.59614600  0.01047250  0.49278350  1
  C  422  1  0.64064100  0.00592750  0.50789150  1
  C  423  1  0.64488900  0.97863000  0.50794200  1
  C  424  1  0.60556100  0.95608850  0.49244200  1
  C  426  1  0.68465600  0.02686650  0.51864650  1
  C  427  1  0.67903800  0.05446450  0.54558650  1
  C  428  1  0.71831700  0.07707850  0.55288350  1
  C  429  1  0.76298200  0.07292750  0.53376550  1
  C  430  1  0.76903200  0.04501350  0.50758700  1
  C  431  1  0.73050700  0.02206900  0.49970450  1
  C  447  1  0.22626500  0.54331550  0.06576850  1
  C  448  1  0.22333700  0.51686400  0.03799150  1
  C  449  1  0.26274500  0.50969950  0.01525900  1
  C  450  1  0.30618400  0.52968350  0.02017100  1
  C  451  1  0.30854000  0.55690700  0.04760600  1
  C  452  1  0.26839700  0.56348700  0.07000450  1
  C  454  1  0.35134900  0.51981050  0.99950200  1
  C  455  1  0.34654500  0.51898850  0.97182300  1
  C  456  1  0.38693400  0.50362450  0.94930200  1
  C  457  1  0.43191300  0.48888050  0.95372450  1
  C  458  1  0.43723900  0.49084250  0.98172500  1
  C  459  1  0.39755500  0.50591650  0.00455450  1
  C  475  1  0.39381200  0.48384200  0.53375400  1
  C  476  1  0.39039300  0.48472350  0.50705250  1
  C  477  1  0.42892600  0.50035400  0.49980550  1
  C  478  1  0.47198000  0.51596950  0.51994350  1
  C  479  1  0.47471900  0.51624450  0.54741950  1
  C  480  1  0.43543400  0.50037050  0.55409050  1
  C  482  1  0.51651500  0.52683250  0.51007150  1
  C  483  1  0.51062500  0.55345500  0.50883600  1
  C  484  1  0.55060500  0.56063150  0.49357150  1
  C  485  1  0.59621000  0.54168900  0.47928900  1
  C  486  1  0.60256000  0.51586750  0.48161450  1
  C  487  1  0.56328700  0.50810000  0.49659900  1
  C  503  1  0.05767500  0.06987550  0.53536250  1
  C  504  1  0.05521600  0.04206600  0.53398200  1
  C  505  1  0.09504200  0.01942350  0.51818900  1
  C  506  1  0.13829100  0.02446250  0.50289200  1
  C  507  1  0.14001100  0.05187150  0.50303100  1
  C  508  1  0.09948800  0.07419150  0.51910550  1
  C  510  1  0.18413700  0.00409550  0.49219950  1
  C  511  1  0.18023400  0.97619450  0.46558450  1
  C  512  1  0.22109300  0.95389200  0.45875850  1
  C  513  1  0.26559300  0.95878350  0.47803350  1
  C  514  1  0.27010100  0.98700800  0.50378050  1
  C  515  1  0.22991700  0.00962350  0.51121250  1
  C  531  1  0.72773300  0.49199750  0.95555350  1
  C  532  1  0.72335800  0.51859150  0.98320700  1
  C  533  1  0.76230900  0.52592750  0.00601450  1
  C  534  1  0.80675500  0.50598200  0.00134500  1
  C  535  1  0.81052800  0.47861000  0.97405000  1
  C  536  1  0.77083000  0.47185200  0.95156200  1
  C  538  1  0.85136200  0.51599600  0.02205400  1
  C  539  1  0.84651100  0.51704550  0.04983750  1
  C  540  1  0.88615400  0.53247450  0.07230250  1
  C  541  1  0.93037500  0.54715350  0.06779000  1
  C  542  1  0.93574000  0.54497900  0.03968600  1
  C  543  1  0.89682000  0.52981400  0.01689100  1
  H  25  1  0.73326400  0.69978850  0.49210350  1
  H  26  1  0.79447200  0.67429500  0.50834700  1
  H  27  1  0.85194700  0.64025000  0.51730000  1
  H  28  1  0.90297600  0.60055550  0.51747750  1
  H  29  1  0.81347000  0.53746200  0.44286400  1
  H  30  1  0.67268100  0.61730700  0.42457300  1
  H  31  1  0.67721100  0.58026500  0.48427850  1
  H  32  1  0.58462800  0.50688500  0.42183300  1
  H  33  1  0.63615200  0.50561400  0.38184000  1
  H  34  1  0.82470000  0.59231800  0.40364400  1
  H  35  1  0.69673400  0.51186800  0.34748850  1
  H  36  1  0.76330200  0.52413850  0.32159150  1
  H  62  1  0.40595300  0.81289100  0.32088500  1
  H  63  1  0.46787900  0.85352100  0.34586100  1
  H  64  1  0.52487300  0.89612900  0.37947550  1
  H  65  1  0.57400500  0.93626400  0.41877600  1
  H  66  1  0.48271200  0.92624450  0.48266550  1
  H  67  1  0.34348100  0.82898000  0.40388600  1
  H  68  1  0.34815300  0.92461450  0.43970450  1
  H  69  1  0.25290800  0.93695550  0.51350900  1
  H  70  1  0.30470700  0.89834050  0.51536400  1
  H  71  1  0.49632300  0.83161300  0.42867150  1
  H  72  1  0.36574500  0.85775000  0.50964450  1
  H  73  1  0.43288100  0.81930850  0.49774750  1
  H  99  1  0.06803500  0.53290400  0.21211700  1
  H  100  1  0.13021900  0.51722550  0.17097150  1
  H  101  1  0.18785100  0.50856700  0.12832350  1
  H  102  1  0.23773600  0.50822250  0.08834400  1
  H  103  1  0.14580500  0.58334950  0.10029350  1
  H  104  1  0.00539500  0.60132150  0.19798050  1
  H  105  1  0.01186400  0.54216200  0.10168200  1
  H  106  1  0.91677400  0.60464800  0.09028600  1
  H  107  1  0.96703300  0.64460250  0.12914450  1
  H  108  1  0.15870000  0.62264900  0.19382500  1
  H  109  1  0.02716600  0.67888500  0.16960000  1
  H  110  1  0.09445300  0.70470750  0.20713650  1
  H  136  1  0.24018500  0.32729450  0.52438950  1
  H  137  1  0.30179300  0.35262150  0.50879650  1
  H  138  1  0.35815100  0.38652850  0.49983550  1
  H  139  1  0.40657700  0.42609750  0.49914150  1
  H  140  1  0.31417500  0.48945750  0.57378450  1
  H  141  1  0.17616700  0.40997650  0.59204450  1
  H  142  1  0.18117500  0.44697150  0.53280650  1
  H  143  1  0.08598700  0.52109900  0.59507000  1
  H  144  1  0.13684100  0.52219450  0.63513450  1
  H  145  1  0.32981500  0.43549000  0.61360850  1
  H  146  1  0.19789000  0.51620100  0.66953600  1
  H  147  1  0.26615900  0.50465600  0.69550000  1
  H  173  1  0.90129500  0.21739550  0.69342950  1
  H  174  1  0.96183800  0.17524800  0.66744600  1
  H  175  1  0.01843600  0.13194250  0.63299450  1
  H  176  1  0.06837900  0.09184350  0.59293550  1
  H  177  1  0.97783000  0.10498000  0.53058000  1
  H  178  1  0.83914000  0.20389450  0.61140850  1
  H  179  1  0.84322100  0.10656350  0.57310450  1
  H  180  1  0.75102900  0.09609050  0.49929900  1
  H  181  1  0.80193500  0.13502950  0.49872350  1
  H  182  1  0.99136500  0.19848000  0.58576800  1
  H  183  1  0.86264000  0.17543850  0.50532050  1
  H  184  1  0.93026400  0.21276150  0.51741000  1
  H  210  1  0.57300500  0.50073950  0.80737550  1
  H  211  1  0.63343200  0.51683550  0.84895500  1
  H  212  1  0.68955300  0.52595800  0.89213350  1
  H  213  1  0.73890600  0.52641650  0.93231400  1
  H  214  1  0.64851300  0.45237850  0.92137300  1
  H  215  1  0.51054000  0.43398000  0.82308000  1
  H  216  1  0.51335700  0.49368300  0.91981000  1
  H  217  1  0.42040800  0.43145550  0.93107350  1
  H  218  1  0.47250700  0.39135050  0.89222650  1
  H  219  1  0.66287400  0.41272800  0.82710700  1
  H  220  1  0.53412100  0.35688300  0.85175000  1
  H  221  1  0.60184800  0.33083850  0.81369750  1
  H  229  1  0.06312300  0.58691000  0.26435200  1
  H  236  1  0.86788800  0.52115200  0.31667150  1
  H  237  1  0.82130900  0.61147200  0.36348200  1
  H  238  1  0.92128100  0.56906850  0.21213950  1
  H  257  1  0.73186800  0.69605100  0.43677000  1
  H  264  1  0.53801700  0.81728500  0.50054850  1
  H  265  1  0.49250400  0.77215400  0.41057850  1
  H  266  1  0.58775300  0.66536200  0.45673100  1
  H  285  1  0.40089500  0.76126950  0.32250850  1
  H  292  1  0.19870100  0.70872800  0.20742200  1
  H  293  1  0.15819800  0.66372300  0.25308850  1
  H  294  1  0.25908700  0.81473100  0.35865000  1
  H  313  1  0.57064900  0.44668550  0.75591850  1
  H  320  1  0.37079500  0.50818750  0.69921950  1
  H  321  1  0.32974100  0.41776750  0.65527200  1
  H  322  1  0.42652100  0.46501750  0.80727900  1
  H  341  1  0.23462300  0.32839150  0.57743250  1
  H  348  1  0.03457100  0.21335650  0.51416450  1
  H  349  1  0.99082000  0.25754800  0.60464700  1
  H  350  1  0.09280300  0.36433800  0.56037500  1
  H  369  1  0.89967700  0.26951000  0.69063900  1
  H  376  1  0.70686500  0.32614650  0.81191100  1
  H  377  1  0.65999000  0.37204250  0.76768350  1
  H  378  1  0.75528000  0.21967950  0.65951450  1
  H  397  1  0.94170800  0.52913950  0.44394350  1
  H  404  1  0.05028700  0.44835550  0.52476550  1
  H  405  1  0.13399700  0.52707850  0.54745450  1
  H  406  1  0.85978900  0.55363500  0.52431000  1
  H  425  1  0.61127600  0.93580200  0.49092150  1
  H  432  1  0.71165900  0.09756650  0.57124450  1
  H  433  1  0.79980800  0.04191750  0.49277850  1
  H  434  1  0.52781500  0.99050850  0.46521000  1
  H  453  1  0.27267700  0.58216450  0.09040200  1
  H  460  1  0.38089700  0.50128800  0.92872600  1
  H  461  1  0.46831300  0.47926000  0.98496100  1
  H  462  1  0.19426500  0.50145100  0.03484500  1
  H  481  1  0.44015400  0.49900250  0.57296750  1
  H  488  1  0.54382100  0.57866200  0.49091000  1
  H  489  1  0.63399300  0.50114750  0.47027850  1
  H  490  1  0.36169800  0.47207300  0.49152300  1
  H  509  1  0.10334600  0.09460950  0.52082950  1
  H  516  1  0.21567700  0.93314250  0.44075200  1
  H  517  1  0.30080700  0.99055850  0.51867950  1
  H  518  1  0.02631000  0.03886750  0.54644050  1
  H  537  1  0.77622000  0.45309300  0.93124000  1
  H  544  1  0.88000600  0.53495850  0.09294050  1
  H  545  1  0.96615200  0.55652150  0.03635850  1
  H  546  1  0.69362700  0.53401850  0.98616850  1
  N  239  1  0.87739800  0.62832100  0.33035150  1
  N  240  1  0.92681600  0.52063900  0.27643150  1
  N  241  1  0.84944500  0.57126500  0.25204100  1
  N  242  1  0.01521500  0.59174450  0.31259050  1
  N  267  1  0.54819300  0.72172900  0.39462800  1
  N  268  1  0.59628100  0.77746000  0.50191000  1
  N  269  1  0.51758500  0.70344500  0.45339700  1
  N  270  1  0.68587900  0.73917400  0.43033100  1
  N  295  1  0.21667900  0.69707600  0.30192400  1
  N  296  1  0.25866500  0.74890600  0.24573300  1
  N  297  1  0.18637100  0.77520450  0.32233750  1
  N  298  1  0.35205300  0.71317700  0.28024900  1
  N  323  1  0.38810900  0.40266250  0.68934550  1
  N  324  1  0.43067900  0.51041050  0.73993250  1
  N  325  1  0.35580900  0.46127950  0.76635050  1
  N  326  1  0.52408300  0.44002950  0.70668950  1
  N  351  1  0.04546700  0.30500300  0.62228550  1
  N  352  1  0.09484300  0.25191100  0.51318100  1
  N  353  1  0.02048100  0.32767050  0.56302400  1
  N  354  1  0.18659000  0.28572450  0.58278150  1
  N  379  1  0.71596400  0.33818550  0.71736450  1
  N  380  1  0.76567400  0.28534150  0.77198750  1
  N  381  1  0.68566500  0.26105050  0.69815650  1
  N  382  1  0.85428300  0.31892050  0.73439350  1
  N  407  1  0.06748700  0.54728400  0.52099200  1
  N  408  1  0.97025400  0.45501350  0.49332450  1
  N  409  1  0.92747000  0.52709650  0.54397750  1
  N  410  1  0.02278300  0.49738200  0.44983950  1
  N  435  1  0.73528100  0.99512800  0.47217600  1
  N  436  1  0.63270800  0.05933350  0.56408200  1
  N  437  1  0.59280800  0.03708600  0.49150000  1
  N  438  1  0.68996500  0.97396350  0.52247150  1
  N  463  1  0.40143900  0.50542850  0.03155600  1
  N  464  1  0.29986900  0.53239150  0.96674250  1
  N  465  1  0.26138900  0.48190650  0.98849450  1
  N  466  1  0.35259100  0.57641000  0.05256200  1
  N  491  1  0.56824200  0.48080650  0.49648550  1
  N  492  1  0.46334900  0.57168800  0.52175800  1
  N  493  1  0.42709900  0.49891900  0.47182050  1
  N  494  1  0.51833700  0.53137050  0.56712250  1
  N  519  1  0.23282700  0.03685350  0.53850050  1
  N  520  1  0.13394100  0.97066950  0.44706550  1
  N  521  1  0.09432600  0.99267650  0.51927150  1
  N  522  1  0.18384500  0.05690250  0.48819550  1
  N  547  1  0.90073500  0.53005550  0.98976450  1
  N  548  1  0.80053200  0.50375100  0.05504950  1
  N  549  1  0.75946400  0.55384650  0.03263050  1
  N  550  1  0.85553100  0.45912250  0.96931550  1
  O  243  1  0.89837200  0.64653300  0.35481100  1
  O  244  1  0.05270600  0.57317000  0.30851300  1
  O  245  1  0.83758000  0.54657700  0.22999300  1
  O  246  1  0.90946200  0.51376800  0.25107100  1
  O  247  1  0.83054400  0.63781600  0.32860500  1
  O  248  1  0.03542500  0.61729050  0.32561250  1
  O  249  1  0.82611200  0.59143100  0.24922700  1
  O  250  1  0.97824600  0.52235600  0.27674250  1
  O  271  1  0.56958900  0.72693400  0.37570350  1
  O  272  1  0.72317700  0.75344600  0.44851450  1
  O  273  1  0.50477700  0.70718650  0.47850050  1
  O  274  1  0.57829500  0.75975500  0.50960650  1
  O  275  1  0.50130800  0.71102600  0.38578450  1
  O  276  1  0.70666000  0.72558750  0.40468900  1
  O  277  1  0.49416700  0.68055550  0.43383950  1
  O  278  1  0.64772800  0.77529150  0.49988000  1
  O  299  1  0.23842100  0.67256500  0.29577500  1
  O  300  1  0.38818900  0.71667650  0.26499750  1
  O  301  1  0.17312300  0.79715300  0.31955750  1
  O  302  1  0.24147100  0.77451600  0.26418800  1
  O  303  1  0.17068100  0.69944350  0.31402050  1
  O  304  1  0.37390700  0.70029250  0.29276050  1
  O  305  1  0.16476500  0.77851100  0.34579950  1
  O  306  1  0.31021900  0.74821250  0.24629950  1
  O  327  1  0.40983000  0.38390200  0.66504150  1
  O  328  1  0.56047900  0.45855350  0.71043900  1
  O  329  1  0.34206700  0.48624950  0.78780950  1
  O  330  1  0.41331700  0.51801750  0.76554750  1
  O  331  1  0.34200100  0.39333050  0.69171300  1
  O  332  1  0.54599300  0.41457250  0.69447250  1
  O  333  1  0.33356900  0.44147550  0.76977250  1
  O  334  1  0.48222300  0.50892000  0.73953150  1
  O  355  1  0.02512900  0.32854650  0.62494650  1
  O  356  1  0.22239100  0.27048250  0.56345350  1
  O  357  1  0.00872400  0.32432250  0.53797450  1
  O  358  1  0.07818100  0.27049050  0.50613450  1
  O  359  1  0.09302900  0.31002150  0.63296500  1
  O  360  1  0.20936900  0.29792650  0.60777100  1
  O  361  1  0.99767900  0.35127650  0.58255900  1
  O  362  1  0.14634700  0.25226100  0.51441200  1
  O  383  1  0.73697000  0.36243050  0.72302400  1
  O  384  1  0.89200600  0.31450350  0.74835150  1
  O  385  1  0.67322000  0.23949750  0.70152350  1
  O  386  1  0.74810600  0.25999950  0.75393100  1
  O  387  1  0.66902600  0.33648750  0.70652550  1
  O  388  1  0.87459500  0.33127850  0.72115000  1
  O  389  1  0.66169000  0.25819350  0.67545850  1
  O  390  1  0.81709500  0.28531250  0.77005250  1
  O  411  1  0.11155500  0.54925200  0.50947800  1
  O  412  1  0.05096700  0.51548000  0.44623600  1
  O  413  1  0.93146600  0.55322150  0.56535950  1
  O  414  1  0.94160800  0.45204950  0.51180250  1
  O  415  1  0.06370700  0.56898150  0.54702550  1
  O  416  1  0.00700000  0.47722250  0.42486250  1
  O  417  1  0.88365700  0.51620900  0.54693000  1
  O  418  1  0.98587600  0.42972250  0.47317250  1
  O  439  1  0.77973000  0.98169250  0.47038100  1
  O  440  1  0.71951500  0.95227450  0.50462400  1
  O  441  1  0.59751700  0.03210050  0.46528650  1
  O  442  1  0.60342600  0.08075650  0.56698700  1
  O  443  1  0.73237400  0.99953050  0.45051050  1
  O  444  1  0.67383400  0.96942750  0.54282600  1
  O  445  1  0.54817300  0.05078300  0.50228000  1
  O  446  1  0.64715500  0.06442500  0.58941200  1
  O  467  1  0.44511900  0.51714600  0.04506900  1
  O  468  1  0.38143000  0.58020950  0.07424750  1
  O  469  1  0.26706400  0.46055750  0.99325700  1
  O  470  1  0.27186500  0.51371600  0.94531450  1
  O  471  1  0.39938400  0.47938650  0.02723250  1
  O  472  1  0.33516500  0.60128950  0.05730600  1
  O  473  1  0.21721000  0.47882350  0.97473850  1
  O  474  1  0.31376200  0.55256550  0.96152600  1
  O  495  1  0.61207500  0.47944650  0.50860550  1
  O  496  1  0.54808600  0.51395550  0.57146750  1
  O  497  1  0.43356800  0.47272900  0.45071900  1
  O  498  1  0.43507000  0.57397800  0.50271900  1
  O  499  1  0.56679300  0.45888150  0.47053850  1
  O  500  1  0.50030400  0.55163650  0.59174750  1
  O  501  1  0.38238100  0.50917250  0.46834800  1
  O  502  1  0.47639700  0.59727550  0.54181650  1
  O  523  1  0.27625300  0.05045050  0.54012050  1
  O  524  1  0.21226500  0.07867050  0.50587350  1
  O  525  1  0.10006200  0.99748250  0.54536150  1
  O  526  1  0.10636700  0.94927450  0.44467250  1
  O  527  1  0.23037600  0.03289550  0.56045400  1
  O  528  1  0.16616300  0.06156350  0.46813750  1
  O  529  1  0.05041200  0.97882100  0.50888800  1
  O  530  1  0.14833400  0.96510450  0.42153650  1
  O  551  1  0.94500500  0.51821950  0.97628750  1
  O  552  1  0.88468500  0.45507750  0.94757950  1
  O  553  1  0.76410900  0.57504050  0.02763750  1
  O  554  1  0.77156700  0.52253750  0.07642300  1
  O  555  1  0.89740100  0.55602050  0.99387200  1
  O  556  1  0.83930400  0.43434450  0.96481150  1
  O  557  1  0.71507400  0.55706750  0.04639450  1
  O  558  1  0.81545800  0.48369050  0.06044250  1
