# generated using pymatgen
data_H6C9N4
_symmetry_space_group_name_H-M   'P 1'
_cell_length_a   9.91326667
_cell_length_b   21.05690000
_cell_length_c   54.59910000
_cell_angle_alpha   90.00000000
_cell_angle_beta   90.00000000
_cell_angle_gamma   90.00000000
_symmetry_Int_Tables_number   1
_chemical_formula_structural   H6C9N4
_chemical_formula_sum   'H108 C162 N72'
_cell_volume   11397.16163369
_cell_formula_units_Z   18
loop_
 _symmetry_equiv_pos_site_id
 _symmetry_equiv_pos_as_xyz
  1  'x, y, z'
loop_
 _atom_site_type_symbol
 _atom_site_label
 _atom_site_symmetry_multiplicity
 _atom_site_fract_x
 _atom_site_fract_y
 _atom_site_fract_z
 _atom_site_occupancy
  C  1  1  0.03693300  0.64896000  0.17406900  1
  C  3  1  0.06763400  0.75534800  0.16069700  1
  C  5  1  0.04998700  0.73309400  0.20357500  1
  C  7  1  0.04002500  0.37888900  0.83451000  1
  C  9  1  0.07567800  0.27260300  0.84762400  1
  C  11  1  0.05410200  0.29516500  0.80484700  1
  C  13  1  0.05168150  0.14947900  0.67537200  1
  C  15  1  0.06842700  0.25625300  0.66145800  1
  C  17  1  0.07199800  0.23378600  0.70430300  1
  C  19  1  0.05648400  0.87978800  0.33304000  1
  C  21  1  0.07582100  0.77296200  0.34681500  1
  C  23  1  0.07572500  0.79566200  0.30398300  1
  C  26  1  0.03307100  0.01535900  0.05635000  1
  C  28  1  0.05858100  0.95892000  0.09402600  1
  C  30  1  0.02710800  0.01394300  0.95203800  1
  C  32  1  0.06337200  0.06911600  0.91408500  1
  C  34  1  0.01282400  0.57212100  0.59420200  1
  C  36  1  0.03332100  0.51592400  0.55640000  1
  C  38  1  0.05585300  0.45937900  0.59416600  1
  C  40  1  0.02666000  0.51444400  0.45197300  1
  C  42  1  0.05881300  0.56985400  0.41391400  1
  C  44  1  0.03790200  0.48291500  0.15022400  1
  C  45  1  0.01894200  0.44779200  0.17236300  1
  C  46  1  0.02786400  0.58246400  0.17166900  1
  C  48  1  0.05863000  0.45257400  0.12607000  1
  C  49  1  0.16856900  0.47777200  0.10864000  1
  C  50  1  0.19148400  0.41560700  0.12252700  1
  C  55  1  0.03613650  0.54471400  0.85865200  1
  C  56  1  0.01471100  0.57991000  0.83660600  1
  C  57  1  0.02827300  0.44526000  0.83707600  1
  C  59  1  0.05779900  0.57505100  0.88277700  1
  C  60  1  0.16943650  0.55036600  0.89996000  1
  C  61  1  0.19000000  0.61268800  0.88605467  1
  C  66  1  0.03879500  0.98395200  0.65123600  1
  C  67  1  0.01894800  0.94879600  0.67335200  1
  C  68  1  0.04027700  0.08309400  0.67298900  1
  C  70  1  0.05345700  0.95394800  0.62686800  1
  C  71  1  0.16041500  0.97864800  0.60872500  1
  C  72  1  0.18448700  0.91623200  0.62237000  1
  C  77  1  0.03841500  0.04504000  0.35745100  1
  C  78  1  0.01702400  0.08028700  0.33540500  1
  C  79  1  0.04338900  0.94609400  0.33554600  1
  C  81  1  0.05207500  0.07493400  0.38185400  1
  C  82  1  0.16008100  0.05096600  0.39994100  1
  C  83  1  0.18165800  0.11371600  0.38638200  1
  C  88  1  0.01487600  0.18726900  0.10238000  1
  C  92  1  0.12743300  0.91149200  0.13401700  1
  C  93  1  0.08127300  0.90543600  0.10935400  1
  C  94  1  0.07906500  0.80235000  0.14244300  1
  C  96  1  0.19585700  0.96784000  0.14466500  1
  C  98  1  0.13437200  0.11604700  0.87411200  1
  C  99  1  0.08956400  0.12238200  0.89884100  1
  C  100  1  0.08860200  0.22549800  0.86580400  1
  C  102  1  0.19894900  0.05891700  0.86330900  1
  C  104  1  0.02273000  0.68836800  0.60261100  1
  C  107  1  0.01190300  0.34176300  0.40603800  1
  C  110  1  0.12290400  0.41224000  0.63430400  1
  C  111  1  0.07626900  0.40597500  0.60967300  1
  C  112  1  0.07401500  0.30321200  0.64306200  1
  C  114  1  0.19400600  0.46815900  0.64473600  1
  C  116  1  0.12788100  0.61643900  0.37376500  1
  C  117  1  0.08281700  0.62304500  0.39847600  1
  C  118  1  0.08243800  0.72589000  0.36515500  1
  C  120  1  0.19378800  0.55947400  0.36307800  1
  C  122  1  0.06543500  0.31211500  0.24780800  1
  C  124  1  0.16926000  0.36092600  0.24258100  1
  C  126  1  0.06255500  0.71399400  0.76097800  1
  C  128  1  0.16115000  0.66275800  0.76610100  1
  C  130  1  0.12645000  0.80169400  0.23749900  1
  C  133  1  0.13142800  0.22809600  0.77054100  1
  C  136  1  0.08393000  0.06341300  0.99209000  1
  C  139  1  0.08227200  0.56430800  0.49204500  1
  C  144  1  0.05236100  0.84247800  0.10177600  1
  C  147  1  0.06291800  0.18548800  0.90650300  1
  C  150  1  0.04537100  0.34299500  0.60235600  1
  C  152  1  0.05511600  0.68626200  0.40590600  1
  C  155  1  0.04869000  0.74997200  0.22892300  1
  C  156  1  0.07303100  0.77833400  0.27907100  1
  C  157  1  0.05114600  0.27851200  0.77948900  1
  C  158  1  0.07161400  0.25105300  0.72921700  1
  C  159  1  0.02224100  0.01389500  0.97845400  1
  C  160  1  0.03012400  0.01536300  0.03038300  1
  C  161  1  0.02216400  0.51436400  0.47841100  1
  C  162  1  0.03032600  0.51588000  0.53039500  1
  C  325  1  0.01008400  0.38060100  0.17502800  1
  C  327  1  0.98862900  0.27315000  0.16144800  1
  C  329  1  0.99190200  0.29547400  0.20429100  1
  C  331  1  0.00528200  0.64711800  0.83397200  1
  C  333  1  0.98352000  0.75476000  0.84737300  1
  C  335  1  0.98980900  0.73204400  0.80453700  1
  C  337  1  0.00407300  0.88178600  0.67584300  1
  C  339  1  0.98989000  0.77437800  0.66170000  1
  C  341  1  0.97274700  0.79644200  0.70436700  1
  C  343  1  0.99978500  0.14723300  0.33300400  1
  C  345  1  0.98213100  0.25467200  0.34710500  1
  C  347  1  0.96696500  0.23235200  0.30443200  1
  C  349  1  0.00970400  0.07104000  0.09417700  1
  C  350  1  0.00403300  0.95833600  0.91388900  1
  C  352  1  0.00546400  0.45830600  0.41388600  1
  C  354  1  0.00569700  0.48579000  0.19369700  1
  C  358  1  0.00033500  0.54194000  0.81528100  1
  C  362  1  0.01380200  0.98649800  0.69488500  1
  C  366  1  0.01317600  0.04271100  0.31382000  1
  C  370  1  0.93701200  0.11724500  0.13410000  1
  C  371  1  0.98564300  0.12408800  0.10963100  1
  C  372  1  0.98248600  0.22638500  0.14303600  1
  C  374  1  0.86794200  0.06047100  0.14427800  1
  C  375  1  0.71986200  0.07129300  0.15203600  1
  C  376  1  0.75169400  0.02760600  0.13045800  1
  C  382  1  0.93255300  0.91157800  0.87406100  1
  C  383  1  0.97864800  0.90501000  0.89867300  1
  C  384  1  0.00495500  0.84182400  0.90628300  1
  C  386  1  0.97613100  0.80194100  0.86563000  1
  C  388  1  0.86590500  0.96866000  0.86363400  1
  C  389  1  0.71782900  0.95875400  0.85570900  1
  C  390  1  0.75018900  0.00257467  0.87722400  1
  C  399  1  0.34271600  0.95641800  0.15302800  1
  C  400  1  0.31430000  0.00057400  0.13143400  1
  C  408  1  0.34598000  0.06845100  0.85471600  1
  C  409  1  0.31601400  0.02457200  0.87633000  1
  C  414  1  0.94109100  0.61864200  0.63410200  1
  C  415  1  0.99095000  0.62532000  0.60970800  1
  C  416  1  0.98827100  0.72764200  0.64321200  1
  C  418  1  0.86927900  0.56245200  0.64415700  1
  C  419  1  0.72140100  0.57447200  0.65178400  1
  C  420  1  0.75218400  0.53076200  0.63016600  1
  C  426  1  0.93359700  0.41117500  0.37417700  1
  C  427  1  0.98197600  0.40478900  0.39865000  1
  C  428  1  0.97924100  0.30174000  0.36548100  1
  C  430  1  0.86350300  0.46764700  0.36398600  1
  C  431  1  0.71533800  0.45644000  0.35637800  1
  C  432  1  0.74730500  0.50023000  0.37792000  1
  C  441  1  0.34063700  0.45566000  0.65301300  1
  C  442  1  0.31338100  0.49956000  0.63129600  1
  C  450  1  0.34053700  0.56958200  0.35440900  1
  C  451  1  0.31178300  0.52597200  0.37615500  1
  C  456  1  0.99097000  0.27854600  0.22957200  1
  C  457  1  0.91028800  0.22778300  0.23809600  1
  C  459  1  0.96624000  0.25013600  0.27961100  1
  C  461  1  0.31182800  0.34937700  0.25299700  1
  C  462  1  0.28772300  0.34466033  0.22539400  1
  C  467  1  0.99089700  0.74889900  0.77922700  1
  C  468  1  0.91536300  0.80139500  0.77069600  1
  C  470  1  0.97059300  0.77849500  0.72918500  1
  C  472  1  0.30480200  0.67136600  0.75574200  1
  C  473  1  0.28111700  0.67569800  0.78336300  1
  C  478  1  0.97683200  0.71530000  0.24722900  1
  C  482  1  0.87678400  0.66474600  0.24203700  1
  C  483  1  0.73409600  0.67228600  0.25291600  1
  C  484  1  0.75568800  0.68026600  0.22535200  1
  C  490  1  0.97472900  0.31221100  0.76153100  1
  C  494  1  0.87150800  0.36094100  0.76723800  1
  C  495  1  0.72815900  0.35110500  0.75693400  1
  C  496  1  0.75385200  0.34308500  0.78438000  1
  C  502  1  0.95813400  0.96618200  0.99294900  1
  C  506  1  0.87397400  0.91411400  0.98296900  1
  C  507  1  0.73257800  0.90273400  0.99389200  1
  C  508  1  0.74625200  0.93276800  0.96851500  1
  C  514  1  0.95982000  0.46618500  0.49294100  1
  C  518  1  0.87734400  0.41349800  0.48297900  1
  C  519  1  0.73635000  0.40114100  0.49391500  1
  C  520  1  0.74902000  0.43116500  0.46851900  1
  H  51  1  0.18578500  0.37276000  0.11133300  1
  H  52  1  0.26661000  0.41831400  0.13714200  1
  H  53  1  0.23004900  0.51758300  0.11491300  1
  H  54  1  0.14859600  0.47239100  0.08908400  1
  H  62  1  0.18402450  0.65547200  0.89727900  1
  H  63  1  0.26423500  0.61040800  0.87128000  1
  H  64  1  0.23144000  0.51089600  0.89353900  1
  H  65  1  0.15059900  0.55558400  0.91956033  1
  H  73  1  0.17541300  0.87354700  0.61115300  1
  H  74  1  0.26267100  0.91835200  0.63646000  1
  H  75  1  0.22440600  0.01798100  0.61460900  1
  H  76  1  0.13636600  0.97353400  0.58931000  1
  H  84  1  0.17101100  0.15620500  0.39766200  1
  H  85  1  0.25982600  0.11239700  0.37227400  1
  H  86  1  0.22551900  0.01223900  0.39398500  1
  H  87  1  0.13595100  0.05567900  0.41936600  1
  H  90  1  0.04805500  0.19674900  0.08504100  1
  H  91  1  0.03671200  0.83259200  0.92373000  1
  H  97  1  0.14125300  0.99594000  0.15816300  1
  H  103  1  0.14195500  0.03158100  0.84990467  1
  H  106  1  0.05667900  0.69778600  0.58531600  1
  H  109  1  0.04501800  0.33262700  0.42341000  1
  H  115  1  0.14088000  0.49706800  0.65817400  1
  H  121  1  0.13731400  0.53159200  0.34976600  1
  H  125  1  0.13900400  0.41074500  0.24308500  1
  H  129  1  0.12594500  0.61370400  0.76523300  1
  H  132  1  0.18010500  0.82950000  0.22563900  1
  H  135  1  0.18831200  0.20101500  0.78215100  1
  H  138  1  0.13112600  0.10027600  0.98344900  1
  H  141  1  0.12814500  0.60151500  0.48338900  1
  H  146  1  0.02058500  0.83346600  0.08431400  1
  H  149  1  0.03161700  0.19464300  0.92398300  1
  H  154  1  0.02431400  0.69566200  0.42339500  1
  H  356  1  0.98991400  0.46719100  0.21072000  1
  H  357  1  0.97184300  0.43036300  0.11721400  1
  H  360  1  0.98199100  0.56053400  0.79834700  1
  H  361  1  0.97109700  0.59679700  0.89183000  1
  H  364  1  0.00152100  0.96774000  0.71198800  1
  H  365  1  0.96428300  0.93239400  0.61857300  1
  H  368  1  0.99998800  0.06149500  0.29674700  1
  H  369  1  0.96214150  0.09565000  0.39019900  1
  H  377  1  0.92113300  0.03230100  0.15793800  1
  H  378  1  0.74028800  0.97685800  0.13394800  1
  H  379  1  0.72554700  0.04647400  0.11244600  1
  H  380  1  0.67080100  0.11571300  0.14679000  1
  H  381  1  0.68534800  0.04655500  0.16845900  1
  H  391  1  0.92066900  0.99624800  0.85000000  1
  H  392  1  0.74044600  0.05333200  0.87359000  1
  H  393  1  0.72255100  0.98419000  0.89523900  1
  H  394  1  0.66715400  0.91476800  0.86099433  1
  H  395  1  0.68476200  0.98345400  0.83917900  1
  H  401  1  0.32592500  0.05122800  0.13510300  1
  H  402  1  0.34243400  0.98193900  0.11348400  1
  H  403  1  0.39181700  0.91192800  0.14788300  1
  H  404  1  0.37537000  0.98075600  0.16966500  1
  H  410  1  0.32442600  0.97380000  0.87261000  1
  H  411  1  0.34605600  0.04273933  0.89425000  1
  H  412  1  0.39788900  0.11227200  0.85980400  1
  H  413  1  0.37633200  0.04378600  0.83800900  1
  H  421  1  0.92092700  0.53363400  0.65781200  1
  H  422  1  0.73865100  0.48008200  0.63356000  1
  H  423  1  0.72731200  0.55005700  0.61216200  1
  H  424  1  0.67428100  0.61937800  0.64656800  1
  H  425  1  0.68545800  0.54986700  0.66813600  1
  H  433  1  0.91611500  0.49602800  0.35031400  1
  H  434  1  0.73507800  0.55093600  0.37442900  1
  H  435  1  0.72170400  0.48130000  0.39595200  1
  H  436  1  0.66700400  0.41188300  0.36167100  1
  H  437  1  0.68009200  0.48105800  0.33998000  1
  H  440  1  0.01378300  0.33374200  0.58490200  1
  H  443  1  0.32713900  0.55018000  0.63478500  1
  H  444  1  0.34039700  0.48027000  0.61339300  1
  H  445  1  0.38785800  0.41064000  0.64797800  1
  H  446  1  0.37466200  0.48008000  0.66954100  1
  H  452  1  0.32135000  0.47517900  0.37257400  1
  H  453  1  0.34161500  0.54463400  0.39400900  1
  H  454  1  0.39151300  0.61375100  0.35936000  1
  H  455  1  0.37129500  0.54475700  0.33776200  1
  H  460  1  0.85525100  0.20070400  0.22619400  1
  H  463  1  0.32739800  0.38400600  0.21454400  1
  H  464  1  0.29165800  0.29658200  0.21793800  1
  H  465  1  0.33209900  0.30391300  0.26192000  1
  H  466  1  0.36816700  0.39131700  0.25875500  1
  H  471  1  0.86252900  0.82949500  0.78257400  1
  H  474  1  0.31647800  0.63511200  0.79402600  1
  H  475  1  0.28978600  0.72336400  0.79107600  1
  H  476  1  0.32991600  0.71661600  0.74706600  1
  H  477  1  0.35681300  0.62838800  0.74978600  1
  H  485  1  0.91218500  0.61567900  0.24127000  1
  H  486  1  0.71854100  0.64127600  0.21402900  1
  H  487  1  0.74663100  0.72894400  0.21864500  1
  H  488  1  0.71060800  0.71632000  0.26260000  1
  H  489  1  0.68234600  0.62863000  0.25818900  1
  H  497  1  0.90318800  0.41056800  0.76800400  1
  H  498  1  0.71510500  0.38123300  0.79595300  1
  H  499  1  0.74936200  0.29418300  0.79099300  1
  H  500  1  0.70691000  0.30683600  0.74723400  1
  H  501  1  0.67240500  0.39390900  0.75198700  1
  H  509  1  0.92468400  0.87159000  0.97616100  1
  H  510  1  0.71935300  0.90191800  0.95321600  1
  H  511  1  0.72038200  0.98316900  0.96763900  1
  H  512  1  0.69756900  0.93515200  0.00814600  1
  H  513  1  0.69671100  0.85371000  0.99389600  1
  H  521  1  0.92942500  0.37131200  0.47620200  1
  H  522  1  0.72313600  0.40006300  0.45323800  1
  H  523  1  0.72151100  0.48137200  0.46761400  1
  H  524  1  0.70029700  0.43335800  0.50815000  1
  H  525  1  0.70208900  0.35186100  0.49394800  1
  N  2  1  0.05082400  0.69217400  0.15560600  1
  N  4  1  0.06872300  0.77423000  0.18470500  1
  N  6  1  0.03655500  0.67149400  0.19736800  1
  N  8  1  0.05696700  0.33558600  0.85285300  1
  N  10  1  0.07556800  0.25394400  0.82359500  1
  N  12  1  0.03872800  0.35659600  0.81117300  1
  N  14  1  0.05558400  0.19267800  0.65670000  1
  N  16  1  0.07512900  0.27548100  0.68538300  1
  N  18  1  0.06009900  0.17182300  0.69868200  1
  N  20  1  0.06234300  0.83647200  0.35165400  1
  N  22  1  0.08080500  0.75388000  0.32286400  1
  N  24  1  0.06347300  0.85758000  0.30968700  1
  N  25  1  0.01591100  0.07069400  0.06920000  1
  N  27  1  0.05061800  0.95979000  0.06905900  1
  N  29  1  0.03441000  0.01490100  0.10532000  1
  N  31  1  0.05374500  0.06839100  0.93904000  1
  N  33  1  0.03483400  0.01370500  0.90271300  1
  N  35  1  0.01894700  0.57152500  0.56922000  1
  N  37  1  0.04805400  0.46022400  0.56918700  1
  N  39  1  0.03453100  0.51574000  0.60535600  1
  N  41  1  0.05015400  0.56914400  0.43889600  1
  N  43  1  0.03286700  0.51399800  0.40267200  1
  N  47  1  0.04068600  0.54809000  0.15068500  1
  N  58  1  0.04134600  0.47955800  0.85808000  1
  N  69  1  0.04618300  0.04900900  0.65184800  1
  N  80  1  0.04826200  0.98004400  0.35673300  1
  N  89  1  0.01465000  0.23568900  0.11904900  1
  N  95  1  0.11991400  0.86104800  0.14931500  1
  N  101  1  0.12766900  0.16658500  0.85883700  1
  N  105  1  0.02223500  0.73682200  0.61929300  1
  N  108  1  0.01179900  0.29297800  0.38949200  1
  N  113  1  0.11567600  0.36197900  0.64968500  1
  N  119  1  0.12156800  0.66681000  0.35841100  1
  N  123  1  0.04892300  0.29719900  0.27185300  1
  N  127  1  0.04815500  0.72955200  0.73694700  1
  N  131  1  0.13523000  0.81455700  0.26182900  1
  N  134  1  0.13821200  0.21562000  0.74616100  1
  N  137  1  0.08555000  0.06309100  0.01701800  1
  N  140  1  0.08408100  0.56397600  0.51698300  1
  N  142  1  0.02502000  0.04987100  0.69400100  1
  N  143  1  0.02668300  0.97942200  0.31459900  1
  N  145  1  0.04973400  0.79372000  0.11829600  1
  N  148  1  0.06049600  0.23423200  0.88998900  1
  N  151  1  0.04359600  0.29435500  0.61896300  1
  N  153  1  0.05379500  0.73490800  0.38931200  1
  N  326  1  0.00499100  0.33648300  0.15667200  1
  N  328  1  0.98113400  0.25406700  0.18536000  1
  N  330  1  0.00372900  0.35719300  0.19818800  1
  N  332  1  0.99937200  0.69141600  0.85227500  1
  N  334  1  0.97807200  0.77357000  0.82341000  1
  N  336  1  0.00054700  0.67039800  0.81077900  1
  N  338  1  0.00563200  0.83793400  0.65732800  1
  N  340  1  0.97579200  0.75493500  0.68544000  1
  N  342  1  0.98711500  0.85835000  0.69887400  1
  N  344  1  0.99945900  0.19116900  0.35151700  1
  N  346  1  0.96857900  0.27392400  0.32333100  1
  N  348  1  0.98291300  0.17057600  0.30995900  1
  N  351  1  0.00644300  0.95938600  0.93883500  1
  N  353  1  0.00851200  0.45955400  0.43883000  1
  N  355  1  0.01083700  0.54930200  0.19265200  1
  N  359  1  0.00790500  0.47847200  0.81620800  1
  N  373  1  0.94171100  0.16740400  0.14955700  1
  N  385  1  0.00556700  0.79304600  0.88976000  1
  N  387  1  0.93727400  0.86101000  0.85879300  1
  N  417  1  0.94576800  0.66879200  0.64954600  1
  N  429  1  0.93790800  0.36064500  0.35890400  1
  N  458  1  0.90161900  0.21470400  0.26241800  1
  N  469  1  0.90868600  0.81493400  0.74639500  1
  N  481  1  0.99318700  0.73016900  0.27131000  1
  N  493  1  0.98920400  0.29781500  0.73736600  1
  N  505  1  0.96714800  0.96821900  0.01787000  1
  N  517  1  0.96886700  0.46830500  0.51786600  1
