# generated using pymatgen
data_H20C45(N2O)4
_symmetry_space_group_name_H-M   'P 1'
_cell_length_a   25.13420000
_cell_length_b   52.22978944
_cell_length_c   52.22860000
_cell_angle_alpha   119.99973998
_cell_angle_beta   90.00000000
_cell_angle_gamma   89.67890239
_symmetry_Int_Tables_number   1
_chemical_formula_structural   H20C45(N2O)4
_chemical_formula_sum   'H120 C270 N48 O24'
_cell_volume   59376.47379385
_cell_formula_units_Z   6
loop_
 _symmetry_equiv_pos_site_id
 _symmetry_equiv_pos_as_xyz
  1  'x, y, z'
loop_
 _atom_site_type_symbol
 _atom_site_label
 _atom_site_symmetry_multiplicity
 _atom_site_fract_x
 _atom_site_fract_y
 _atom_site_fract_z
 _atom_site_occupancy
  H  25  1  0.58794700  0.49343000  0.41464500  1
  H  26  1  0.63795800  0.49506800  0.37651200  1
  H  27  1  0.69369300  0.50500100  0.34440900  1
  H  28  1  0.75572300  0.52047100  0.32022400  1
  H  29  1  0.81596500  0.58549800  0.40304100  1
  H  30  1  0.67445300  0.56610900  0.47986300  1
  H  31  1  0.66679800  0.60685400  0.42360300  1
  H  32  1  0.71567100  0.68864400  0.49582000  1
  H  33  1  0.77822300  0.66349300  0.51029500  1
  H  34  1  0.81056500  0.52841000  0.44034900  1
  H  35  1  0.83582800  0.63068600  0.51809000  1
  H  36  1  0.88795600  0.59228100  0.51805700  1
  H  66  1  0.25534200  0.92201900  0.51195000  1
  H  67  1  0.30558500  0.88228900  0.51057400  1
  H  68  1  0.36156600  0.84026600  0.50088100  1
  H  69  1  0.42374900  0.80041400  0.48550400  1
  H  70  1  0.48473500  0.81745600  0.41999700  1
  H  71  1  0.34272700  0.91382900  0.43893400  1
  H  72  1  0.33506800  0.81740700  0.39884000  1
  H  73  1  0.38460700  0.80733200  0.31679200  1
  H  74  1  0.44751800  0.84642900  0.34163300  1
  H  75  1  0.47837300  0.91209400  0.47669200  1
  H  76  1  0.50503100  0.88679100  0.37420400  1
  H  77  1  0.55642800  0.92524000  0.41240700  1
  H  107  1  0.92027700  0.59355800  0.08668700  1
  H  108  1  0.96995600  0.63163500  0.12645900  1
  H  109  1  0.02595600  0.66369100  0.16826500  1
  H  110  1  0.08846200  0.68781000  0.20762300  1
  H  111  1  0.14973500  0.60491100  0.18999900  1
  H  112  1  0.00809200  0.52823700  0.09413400  1
  H  113  1  0.99970900  0.58415400  0.19079700  1
  H  114  1  0.04994000  0.51175100  0.20016800  1
  H  115  1  0.11299900  0.49755900  0.16087500  1
  H  116  1  0.14347200  0.56766000  0.09593100  1
  H  117  1  0.17077400  0.48995100  0.12051400  1
  H  118  1  0.22253300  0.48998700  0.08216300  1
  H  148  1  0.08791700  0.51033100  0.59373700  1
  H  149  1  0.13787800  0.50888100  0.63200100  1
  H  150  1  0.19391400  0.49924600  0.66425100  1
  H  151  1  0.25629700  0.48399600  0.68861900  1
  H  152  1  0.31757700  0.41834800  0.60595600  1
  H  153  1  0.17577500  0.43728600  0.52875800  1
  H  154  1  0.16763900  0.39705600  0.58492700  1
  H  155  1  0.21788200  0.31506200  0.51281700  1
  H  156  1  0.28102800  0.33993600  0.49864600  1
  H  157  1  0.31110400  0.47497900  0.56816000  1
  H  158  1  0.33859300  0.37251800  0.49088300  1
  H  159  1  0.38998600  0.41074200  0.49067100  1
  H  189  1  0.75382500  0.08425900  0.49500500  1
  H  190  1  0.80354600  0.12404600  0.49677600  1
  H  191  1  0.85940000  0.16592700  0.50666200  1
  H  192  1  0.92165200  0.20534200  0.52204000  1
  H  193  1  0.98212700  0.18750900  0.58717400  1
  H  194  1  0.84079500  0.09151600  0.56768900  1
  H  195  1  0.83268900  0.18852100  0.60865500  1
  H  196  1  0.88213200  0.19776100  0.69035300  1
  H  197  1  0.94489700  0.15817300  0.66513800  1
  H  198  1  0.97657000  0.09336000  0.53008400  1
  H  199  1  0.00260500  0.11761700  0.63228800  1
  H  200  1  0.05475800  0.07929700  0.59383400  1
  H  230  1  0.42192300  0.41430200  0.92426400  1
  H  231  1  0.47219800  0.37602900  0.88450100  1
  H  232  1  0.52807100  0.34379000  0.84242000  1
  H  233  1  0.59012400  0.31941800  0.80257600  1
  H  234  1  0.65058400  0.40204600  0.82003300  1
  H  235  1  0.50874300  0.47928000  0.91648000  1
  H  236  1  0.50131500  0.42287900  0.81971800  1
  H  237  1  0.55007800  0.49491300  0.80979200  1
  H  238  1  0.61273200  0.50932500  0.84916200  1
  H  239  1  0.64471000  0.43980200  0.91472100  1
  H  240  1  0.67018800  0.51719200  0.88970200  1
  H  241  1  0.72193900  0.51735200  0.92814300  1
  H  259  1  0.85978100  0.64949300  0.33385900  1
  H  260  1  0.94862600  0.47008800  0.22974000  1
  H  262  1  0.94805700  0.59242000  0.24181700  1
  H  264  1  0.85291800  0.52351700  0.31461200  1
  H  277  1  0.52802800  0.68375500  0.35720700  1
  H  278  1  0.61594400  0.76081600  0.53648500  1
  H  280  1  0.61570100  0.64948300  0.41492200  1
  H  282  1  0.52124000  0.79175500  0.48243300  1
  H  295  1  0.19430400  0.67577200  0.32352600  1
  H  296  1  0.28245300  0.77679200  0.24526200  1
  H  298  1  0.28360700  0.76670800  0.35666800  1
  H  300  1  0.18563100  0.69313400  0.21569100  1
  H  313  1  0.36233000  0.35605300  0.67720900  1
  H  314  1  0.44871200  0.53546700  0.77841300  1
  H  316  1  0.45041900  0.41408600  0.76861800  1
  H  318  1  0.35380700  0.48104900  0.69392900  1
  H  331  1  0.02704300  0.32061900  0.65067600  1
  H  332  1  0.11543000  0.24400000  0.47125300  1
  H  334  1  0.11591900  0.35465600  0.59328300  1
  H  336  1  0.01886200  0.21356800  0.52494700  1
  H  349  1  0.69359100  0.33212400  0.68652500  1
  H  350  1  0.78229500  0.22842300  0.76215800  1
  H  352  1  0.78139100  0.23986100  0.65151500  1
  H  354  1  0.68761000  0.31373500  0.79381300  1
  H  367  1  0.12930400  0.55403500  0.51119800  1
  H  368  1  0.85474800  0.46211800  0.51001500  1
  H  370  1  0.95552200  0.55405200  0.48586600  1
  H  372  1  0.02553100  0.47884100  0.55096400  1
  H  385  1  0.79662700  0.95745200  0.45030400  1
  H  386  1  0.52033300  0.04810500  0.54263600  1
  H  388  1  0.62344600  0.93204900  0.45062000  1
  H  390  1  0.69117900  0.07237300  0.52589900  1
  H  403  1  0.46313500  0.49626200  0.05051900  1
  H  404  1  0.18790200  0.49912900  0.96025100  1
  H  406  1  0.28932400  0.52226700  0.07613900  1
  H  408  1  0.35899600  0.45734200  0.93560500  1
  H  421  1  0.63013000  0.44841500  0.49611800  1
  H  422  1  0.35419300  0.54195800  0.49946800  1
  H  424  1  0.45669300  0.44899600  0.52237400  1
  H  426  1  0.52493200  0.52458500  0.45755700  1
  H  439  1  0.29593300  0.04801500  0.55588700  1
  H  440  1  0.02163200  0.95756200  0.46331400  1
  H  442  1  0.12206300  0.07353800  0.55560900  1
  H  444  1  0.19264500  0.93320800  0.48027100  1
  H  457  1  0.96262000  0.51140200  0.96006100  1
  H  458  1  0.68736900  0.50978000  0.05072500  1
  H  460  1  0.78947500  0.48560200  0.93462900  1
  H  462  1  0.85801100  0.55078600  0.07496300  1
  C  1  1  0.78532200  0.57272400  0.45651100  1
  C  2  1  0.79324700  0.60193500  0.47908800  1
  C  3  1  0.75835500  0.62053900  0.47560700  1
  C  4  1  0.72627200  0.60383600  0.45089400  1
  C  5  1  0.68952500  0.61867900  0.44204800  1
  C  6  1  0.68564900  0.65002600  0.45845400  1
  C  7  1  0.71773900  0.66601300  0.48373100  1
  C  8  1  0.75431600  0.65148200  0.49241400  1
  C  9  1  0.83109600  0.60934800  0.50142400  1
  C  10  1  0.86161500  0.58670200  0.50114000  1
  C  11  1  0.85601900  0.55681900  0.47844500  1
  C  12  1  0.81665600  0.54989700  0.45635000  1
  C  13  1  0.69571300  0.55250200  0.43554600  1
  C  14  1  0.68486000  0.53175200  0.40601700  1
  C  15  1  0.71952300  0.53581100  0.38777000  1
  C  16  1  0.75446700  0.55888000  0.40499800  1
  C  17  1  0.72033900  0.52127500  0.35676900  1
  C  18  1  0.75686800  0.53048500  0.34280200  1
  C  19  1  0.79362500  0.55348000  0.35927000  1
  C  20  1  0.79148900  0.56802300  0.39066000  1
  C  21  1  0.66585000  0.55162700  0.45819400  1
  C  22  1  0.62481100  0.53043200  0.45084900  1
  C  23  1  0.61556200  0.50977900  0.42060400  1
  C  24  1  0.64485200  0.51047200  0.39813000  1
  C  37  1  0.74078500  0.57181000  0.43700300  1
  C  42  1  0.45391200  0.88369000  0.43244100  1
  C  43  1  0.46221600  0.87683900  0.40316100  1
  C  44  1  0.42747300  0.85485200  0.38468800  1
  C  45  1  0.39511800  0.84711700  0.40154400  1
  C  46  1  0.35809600  0.82376600  0.38688300  1
  C  47  1  0.35425700  0.80883200  0.35554900  1
  C  48  1  0.38669900  0.81782400  0.33940900  1
  C  49  1  0.42352700  0.84070900  0.35375800  1
  C  50  1  0.50004500  0.89160400  0.39558900  1
  C  51  1  0.53016400  0.91400900  0.41812800  1
  C  52  1  0.52420000  0.92144200  0.44809000  1
  C  53  1  0.48483100  0.90641900  0.45515700  1
  C  54  1  0.36406000  0.88335600  0.45286700  1
  C  55  1  0.35300000  0.87479800  0.47377700  1
  C  56  1  0.38768600  0.85241800  0.46977800  1
  C  57  1  0.42277900  0.84626300  0.44654600  1
  C  58  1  0.38833100  0.83612300  0.48448900  1
  C  59  1  0.42496700  0.81284100  0.47534500  1
  C  60  1  0.46199700  0.80605900  0.45225600  1
  C  61  1  0.46002700  0.82273100  0.43752700  1
  C  62  1  0.33406100  0.90683100  0.45356900  1
  C  63  1  0.29273800  0.92086000  0.47479300  1
  C  64  1  0.28326500  0.91150800  0.49562200  1
  C  65  1  0.31270700  0.88839200  0.49509600  1
  C  78  1  0.40935000  0.86529800  0.43352600  1
  C  83  1  0.11891500  0.55152000  0.12409900  1
  C  84  1  0.12743800  0.52896000  0.13075700  1
  C  85  1  0.09258000  0.53239900  0.15277500  1
  C  86  1  0.05998600  0.55709400  0.16075300  1
  C  87  1  0.02292100  0.56576800  0.18424800  1
  C  88  1  0.01924800  0.54921500  0.19902900  1
  C  89  1  0.05191400  0.52398000  0.18978200  1
  C  90  1  0.08882000  0.51547500  0.16677600  1
  C  91  1  0.16560600  0.50661100  0.11583000  1
  C  92  1  0.19592400  0.50690400  0.09349200  1
  C  93  1  0.18975300  0.52959500  0.08629700  1
  C  94  1  0.15000900  0.55167300  0.10143700  1
  C  95  1  0.02888900  0.57253200  0.12480200  1
  C  96  1  0.01752900  0.60207500  0.13360600  1
  C  97  1  0.05209700  0.62028500  0.15589100  1
  C  98  1  0.08734800  0.60302000  0.16176600  1
  C  99  1  0.05276900  0.65128700  0.17221900  1
  C  100  1  0.08962400  0.66521800  0.19520100  1
  C  101  1  0.12689300  0.64871100  0.20165000  1
  C  102  1  0.12480800  0.61731800  0.18499300  1
  C  103  1  0.99918400  0.54991700  0.10130400  1
  C  104  1  0.95789800  0.55731100  0.08744900  1
  C  105  1  0.94814600  0.58756500  0.09705200  1
  C  106  1  0.97727800  0.61000500  0.12019800  1
  C  119  1  0.07412300  0.57102600  0.14267100  1
  C  124  1  0.28682500  0.43072000  0.55227500  1
  C  125  1  0.29540400  0.40144700  0.52983800  1
  C  126  1  0.26062200  0.38296900  0.53333600  1
  C  127  1  0.22795600  0.39981100  0.55792400  1
  C  128  1  0.19090200  0.38511900  0.56661700  1
  C  129  1  0.18717800  0.35378700  0.55014200  1
  C  130  1  0.21989100  0.33767500  0.52499800  1
  C  131  1  0.25685000  0.35204400  0.51650500  1
  C  132  1  0.33345200  0.39389300  0.50748600  1
  C  133  1  0.36353900  0.41644300  0.50762600  1
  C  134  1  0.35732800  0.44639100  0.53018300  1
  C  135  1  0.31772400  0.45344800  0.55227900  1
  C  136  1  0.19679100  0.45116900  0.57312900  1
  C  137  1  0.18552300  0.47207100  0.60262000  1
  C  138  1  0.22011400  0.46804100  0.62094200  1
  C  139  1  0.25534200  0.44479600  0.60380200  1
  C  140  1  0.22073100  0.48282200  0.65194900  1
  C  141  1  0.25750200  0.47376000  0.66602600  1
  C  142  1  0.29472300  0.45069000  0.64965600  1
  C  143  1  0.29272600  0.43586600  0.61825600  1
  C  144  1  0.16696600  0.45192200  0.55040600  1
  C  145  1  0.12557200  0.47316600  0.55766300  1
  C  146  1  0.11588800  0.49398500  0.58786400  1
  C  147  1  0.14517900  0.49341900  0.61040600  1
  C  160  1  0.24209300  0.43179200  0.57177200  1
  C  165  1  0.95155700  0.12145900  0.57441400  1
  C  166  1  0.95968500  0.12800400  0.60360200  1
  C  167  1  0.92478300  0.15009100  0.62222800  1
  C  168  1  0.89240100  0.15813700  0.60555600  1
  C  169  1  0.85560700  0.18185000  0.62044600  1
  C  170  1  0.85183000  0.19668300  0.65178700  1
  C  171  1  0.88412100  0.18729500  0.66772700  1
  C  172  1  0.92086100  0.16412300  0.65315900  1
  C  173  1  0.99769200  0.11299500  0.61096600  1
  C  174  1  0.02824400  0.09068000  0.58829900  1
  C  175  1  0.02244700  0.08359800  0.55844400  1
  C  176  1  0.98282100  0.09878900  0.55155700  1
  C  177  1  0.86174900  0.12226900  0.55417000  1
  C  178  1  0.85070700  0.13110200  0.53344400  1
  C  179  1  0.88525500  0.15339700  0.53756400  1
  C  180  1  0.92031400  0.15917400  0.56065100  1
  C  181  1  0.88605600  0.16981900  0.52298700  1
  C  182  1  0.92276900  0.19283000  0.53211400  1
  C  183  1  0.95970600  0.19925300  0.55509000  1
  C  184  1  0.95750700  0.18249600  0.56972000  1
  C  185  1  0.83206500  0.09873200  0.55321700  1
  C  186  1  0.79099700  0.08492100  0.53197000  1
  C  187  1  0.78150600  0.09458800  0.51136700  1
  C  188  1  0.81066600  0.11774900  0.51211800  1
  C  201  1  0.90682500  0.14007800  0.57353100  1
  C  206  1  0.61987100  0.45570800  0.88634300  1
  C  207  1  0.62782400  0.47820300  0.87958500  1
  C  208  1  0.59302800  0.47468100  0.85753800  1
  C  209  1  0.56090800  0.45005700  0.84971800  1
  C  210  1  0.52409700  0.44124900  0.82618000  1
  C  211  1  0.52013800  0.45761800  0.81120500  1
  C  212  1  0.55224600  0.48282200  0.82032600  1
  C  213  1  0.58891400  0.49145200  0.84337200  1
  C  214  1  0.66549500  0.50056100  0.89443200  1
  C  215  1  0.69578800  0.50039300  0.91684500  1
  C  216  1  0.69016700  0.47779900  0.92418200  1
  C  217  1  0.65091300  0.45570600  0.90910400  1
  C  218  1  0.53021600  0.43490500  0.88588200  1
  C  219  1  0.51935800  0.40541100  0.87721500  1
  C  220  1  0.55406100  0.38707100  0.85484300  1
  C  221  1  0.58906500  0.40420000  0.84885800  1
  C  222  1  0.55483600  0.35606900  0.83843600  1
  C  223  1  0.59134100  0.34199200  0.81512800  1
  C  224  1  0.62817800  0.35835200  0.80846000  1
  C  225  1  0.62609900  0.38974600  0.82526100  1
  C  226  1  0.50020500  0.45763300  0.90939200  1
  C  227  1  0.45902500  0.45038100  0.92332100  1
  C  228  1  0.44973000  0.42017600  0.91383700  1
  C  229  1  0.47920900  0.39762600  0.89070100  1
  C  242  1  0.57537100  0.43623800  0.86789900  1
  C  247  1  0.93191900  0.56686000  0.26144000  1
  C  248  1  0.90624400  0.58889500  0.28739500  1
  C  249  1  0.88183700  0.58233000  0.30759900  1
  C  250  1  0.88159800  0.55350200  0.30381000  1
  C  251  1  0.90766100  0.53152200  0.27796200  1
  C  252  1  0.93151100  0.53800300  0.25769300  1
  C  255  1  0.87185300  0.62797500  0.32137900  1
  C  258  1  0.93875600  0.49187100  0.24293000  1
  C  261  1  0.95521900  0.57329600  0.24099600  1
  C  263  1  0.85411900  0.54511500  0.32164300  1
  C  265  1  0.59966900  0.69480800  0.44004600  1
  C  266  1  0.57429600  0.69850500  0.41785300  1
  C  267  1  0.55013800  0.72533300  0.42411400  1
  C  268  1  0.55000200  0.75067000  0.45274500  1
  C  269  1  0.57573300  0.74701100  0.47488400  1
  C  270  1  0.59930700  0.72020500  0.46871500  1
  C  273  1  0.54002800  0.69299800  0.37869700  1
  C  276  1  0.60630800  0.75201600  0.51469000  1
  C  279  1  0.62266700  0.66787300  0.43392600  1
  C  281  1  0.52256500  0.77695300  0.46088800  1
  C  283  1  0.26683600  0.74662900  0.31151900  1
  C  284  1  0.24101400  0.72105900  0.30815000  1
  C  285  1  0.21617100  0.70076500  0.28162400  1
  C  286  1  0.21568600  0.70402400  0.25626500  1
  C  287  1  0.24186600  0.72949700  0.25959500  1
  C  288  1  0.26619200  0.74985100  0.28609400  1
  C  291  1  0.20632400  0.68786200  0.31412000  1
  C  294  1  0.27310300  0.76382600  0.25412900  1
  C  297  1  0.29044200  0.76721600  0.33819100  1
  C  299  1  0.18755200  0.68619700  0.23032600  1
  C  301  1  0.43368800  0.43908300  0.74838900  1
  C  302  1  0.40832800  0.41680300  0.72266700  1
  C  303  1  0.38380300  0.42293100  0.70215000  1
  C  304  1  0.38313800  0.45152900  0.70536500  1
  C  305  1  0.40896400  0.47374200  0.73095400  1
  C  306  1  0.43291600  0.46770100  0.75154100  1
  C  309  1  0.37427800  0.37754300  0.68928200  1
  C  312  1  0.43958900  0.51361800  0.76543100  1
  C  315  1  0.45701900  0.43309300  0.76917200  1
  C  317  1  0.35539100  0.45952200  0.68724900  1
  C  319  1  0.09931600  0.30954500  0.56790700  1
  C  320  1  0.07350600  0.30590800  0.59001300  1
  C  321  1  0.04873100  0.27932000  0.58356900  1
  C  322  1  0.04820900  0.25418800  0.55480600  1
  C  323  1  0.07442100  0.25776900  0.53276000  1
  C  324  1  0.09865200  0.28434100  0.53911800  1
  C  327  1  0.03906200  0.31141300  0.62915600  1
  C  330  1  0.10560700  0.25275300  0.49304100  1
  C  333  1  0.12294200  0.33626400  0.57421800  1
  C  335  1  0.02036600  0.22815200  0.54653500  1
  C  337  1  0.76550800  0.25972300  0.69680400  1
  C  338  1  0.74004700  0.28574300  0.70073400  1
  C  339  1  0.71595400  0.30616900  0.72761800  1
  C  340  1  0.71596000  0.30258900  0.75278600  1
  C  341  1  0.74177100  0.27665900  0.74889300  1
  C  342  1  0.76528900  0.25616300  0.72202800  1
  C  345  1  0.70566200  0.31968700  0.69559200  1
  C  348  1  0.77254100  0.24158600  0.75353200  1
  C  351  1  0.78845800  0.23905200  0.66981300  1
  C  353  1  0.68868100  0.32062200  0.77912500  1
  C  355  1  0.96436200  0.51859600  0.49220400  1
  C  356  1  0.01951500  0.52352800  0.49868300  1
  C  357  1  0.04787900  0.50949600  0.51135800  1
  C  358  1  0.02433300  0.48876300  0.51775500  1
  C  359  1  0.96952800  0.48338800  0.51079600  1
  C  360  1  0.94081400  0.49788700  0.49868600  1
  C  363  1  0.09691300  0.54123500  0.50861000  1
  C  366  1  0.88925900  0.47101200  0.50769900  1
  C  369  1  0.93583700  0.53702400  0.48479800  1
  C  371  1  0.04857500  0.47964900  0.53584800  1
  C  373  1  0.63139000  0.97380400  0.48609900  1
  C  374  1  0.68660600  0.97535600  0.48118900  1
  C  375  1  0.71456000  0.00205200  0.49525200  1
  C  376  1  0.69039500  0.02921000  0.51587100  1
  C  377  1  0.63559500  0.02761900  0.52133800  1
  C  378  1  0.60731100  0.00102200  0.50677200  1
  C  381  1  0.76436200  0.96753100  0.46353300  1
  C  384  1  0.55506700  0.03689500  0.53371400  1
  C  387  1  0.60336100  0.94793800  0.46769300  1
  C  389  1  0.71438800  0.05639400  0.52499500  1
  C  391  1  0.29777900  0.51571500  0.03427300  1
  C  392  1  0.35301600  0.50911200  0.03267100  1
  C  393  1  0.38136000  0.49652600  0.00597100  1
  C  394  1  0.35757500  0.49022600  0.97888800  1
  C  395  1  0.30273200  0.49740800  0.98052000  1
  C  396  1  0.27405800  0.50939200  0.00712800  1
  C  399  1  0.43082400  0.49929600  0.04044000  1
  C  402  1  0.22233800  0.50075400  0.97134100  1
  C  405  1  0.26938700  0.52326100  0.06014900  1
  C  407  1  0.38192100  0.47228800  0.95164000  1
  C  409  1  0.46475400  0.48437100  0.51592100  1
  C  410  1  0.51995900  0.47933600  0.50928300  1
  C  411  1  0.54799700  0.49345200  0.49669300  1
  C  412  1  0.52407300  0.51440700  0.49057900  1
  C  413  1  0.46924200  0.51994900  0.49778000  1
  C  414  1  0.44082600  0.50532800  0.50975800  1
  C  417  1  0.59762400  0.46144500  0.49905000  1
  C  420  1  0.38875200  0.53250800  0.50113000  1
  C  423  1  0.43661700  0.46602300  0.52344000  1
  C  425  1  0.54807700  0.52366000  0.47258000  1
  C  427  1  0.13097100  0.03173300  0.52017100  1
  C  428  1  0.18615200  0.03015400  0.52518000  1
  C  429  1  0.21463900  0.00344300  0.51111300  1
  C  430  1  0.19118500  0.97635300  0.49026700  1
  C  431  1  0.13635000  0.97797100  0.48481800  1
  C  432  1  0.10751600  0.00458300  0.49935300  1
  C  435  1  0.26356200  0.03785000  0.54301700  1
  C  438  1  0.05609900  0.96874600  0.47229600  1
  C  441  1  0.10235600  0.05756200  0.53859600  1
  C  443  1  0.21557800  0.94913400  0.48113000  1
  C  445  1  0.79780900  0.49195800  0.97642200  1
  C  446  1  0.85296700  0.49841000  0.97796500  1
  C  447  1  0.88107200  0.51105800  0.00466100  1
  C  448  1  0.85712900  0.51761000  0.03181900  1
  C  449  1  0.80239700  0.51055500  0.03023500  1
  C  450  1  0.77395400  0.49851500  0.00363800  1
  C  453  1  0.93051300  0.50824700  0.97013800  1
  C  456  1  0.72200800  0.50747700  0.03951400  1
  C  459  1  0.76957800  0.48449600  0.95055900  1
  C  461  1  0.88120700  0.53569600  0.05899500  1
  N  38  1  0.82592700  0.56230000  0.34470700  1
  N  39  1  0.88503600  0.53620400  0.48046000  1
  N  40  1  0.65456700  0.66694000  0.45259400  1
  N  41  1  0.59878100  0.52683000  0.47123000  1
  N  79  1  0.49441100  0.78260700  0.44357600  1
  N  80  1  0.55268000  0.94419900  0.46862700  1
  N  81  1  0.32272200  0.78642600  0.33878600  1
  N  82  1  0.26639500  0.94471900  0.47813700  1
  N  120  1  0.15970900  0.66326300  0.22477200  1
  N  121  1  0.21851100  0.52752900  0.06363300  1
  N  122  1  0.98769000  0.55479300  0.22145967  1
  N  123  1  0.93193000  0.53693400  0.06351900  1
  N  161  1  0.32734500  0.44212500  0.66438700  1
  N  162  1  0.38584400  0.46692400  0.52797700  1
  N  163  1  0.15547600  0.33699900  0.55569200  1
  N  164  1  0.09937600  0.47656100  0.53719200  1
  N  202  1  0.99225700  0.22246500  0.56380100  1
  N  203  1  0.05147600  0.06099600  0.53781300  1
  N  204  1  0.82058700  0.21939100  0.66873900  1
  N  205  1  0.76506600  0.06095000  0.52833400  1
  N  243  1  0.66038900  0.34365600  0.78494900  1
  N  244  1  0.71886600  0.47997100  0.94691400  1
  N  245  1  0.48889300  0.45181700  0.78858800  1
  N  246  1  0.43272900  0.47081200  0.94725100  1
  N  253  1  0.86020800  0.60739700  0.32868500  1
  N  256  1  0.95065000  0.51253100  0.23583900  1
  N  271  1  0.52860100  0.72109800  0.39900800  1
  N  274  1  0.61809300  0.72406700  0.49428300  1
  N  289  1  0.19439200  0.68017800  0.28615000  1
  N  292  1  0.28526600  0.77129900  0.28197100  1
  N  307  1  0.36236200  0.39777100  0.68146600  1
  N  310  1  0.45165600  0.49331700  0.77306100  1
  N  325  1  0.02707800  0.28355900  0.60867300  1
  N  328  1  0.11783300  0.28047400  0.51360600  1
  N  343  1  0.69434700  0.32723600  0.72361500  1
  N  346  1  0.78419800  0.23428100  0.72565800  1
  N  361  1  0.09628800  0.52132900  0.51766400  1
  N  364  1  0.89018200  0.48994400  0.49740300  1
  N  379  1  0.76307700  0.99653300  0.48330400  1
  N  382  1  0.55653500  0.00766700  0.51477800  1
  N  397  1  0.42996000  0.49015800  0.01145900  1
  N  400  1  0.22340100  0.51102600  0.00056300  1
  N  415  1  0.59656100  0.48147500  0.49015300  1
  N  418  1  0.39008900  0.51350200  0.51133400  1
  N  433  1  0.26305700  0.00891100  0.52302500  1
  N  436  1  0.05689900  0.99795600  0.49131100  1
  N  451  1  0.92944800  0.51748900  0.99914100  1
  N  454  1  0.72326400  0.49716700  0.01028400  1
  O  254  1  0.90055500  0.61802600  0.29585700  1
  O  257  1  0.91147000  0.50209500  0.26884600  1
  O  272  1  0.56851900  0.67753300  0.38887000  1
  O  275  1  0.57940100  0.76761200  0.50420500  1
  O  290  1  0.23541200  0.71315200  0.32921500  1
  O  293  1  0.24538700  0.73813900  0.23892500  1
  O  308  1  0.40290100  0.38784100  0.71479600  1
  O  311  1  0.41224300  0.50304600  0.73956300  1
  O  326  1  0.06801200  0.32671600  0.61910100  1
  O  329  1  0.07805000  0.23732400  0.50337000  1
  O  344  1  0.73415600  0.29403200  0.67995700  1
  O  347  1  0.74560600  0.26767500  0.76929800  1
  O  362  1  0.05014700  0.54409800  0.49692500  1
  O  365  1  0.93719300  0.46641700  0.51714500  1
  O  380  1  0.71767900  0.95304300  0.46055400  1
  O  383  1  0.60276300  0.05094600  0.53824300  1
  O  398  1  0.38387100  0.51080900  0.05497100  1
  O  401  1  0.27030200  0.49133600  0.95726400  1
  O  416  1  0.55095700  0.45856300  0.51074700  1
  O  419  1  0.43658500  0.53719200  0.49176400  1
  O  434  1  0.21671600  0.05243100  0.54585400  1
  O  437  1  0.10411100  0.95468100  0.46773300  1
  O  452  1  0.88380100  0.49672800  0.95565000  1
  O  455  1  0.76975400  0.51700100  0.05356600  1
