# generated using pymatgen
data_Ni3H44C72N6O13
_symmetry_space_group_name_H-M   'P 1'
_cell_length_a   18.32479000
_cell_length_b   18.44205000
_cell_length_c   18.55643000
_cell_angle_alpha   105.72695000
_cell_angle_beta   106.94329000
_cell_angle_gamma   106.14953000
_symmetry_Int_Tables_number   1
_chemical_formula_structural   Ni3H44C72N6O13
_chemical_formula_sum   'Ni6 H88 C144 N12 O26'
_cell_volume   5322.27982447
_cell_formula_units_Z   2
loop_
 _symmetry_equiv_pos_site_id
 _symmetry_equiv_pos_as_xyz
  1  'x, y, z'
loop_
 _atom_site_type_symbol
 _atom_site_label
 _atom_site_symmetry_multiplicity
 _atom_site_fract_x
 _atom_site_fract_y
 _atom_site_fract_z
 _atom_site_occupancy
  Ni  Ni1  1  0.73706000  0.81622000  0.67113000  1.0
  Ni  Ni2  1  0.68563000  0.75471000  0.81953000  1.0
  Ni  Ni3  1  0.81865000  0.67979000  0.75446000  1.0
  Ni  Ni4  1  0.24179000  0.17617000  0.32701000  1.0
  Ni  Ni5  1  0.32602000  0.25336000  0.16855000  1.0
  Ni  Ni6  1  0.18759000  0.32489000  0.25663000  1.0
  H  H1  1  0.52870000  0.24519000  0.26492000  1.0
  H  H2  1  0.63930000  0.18856000  0.28472000  1.0
  H  H3  1  0.59563000  0.14321000  0.48691000  1.0
  H  H4  1  0.48059000  0.19015000  0.46071000  1.0
  H  H5  1  0.62813000  0.04845000  0.45434000  1.0
  H  H6  1  0.83317000  0.94008000  0.47910000  1.0
  H  H7  1  0.83232000  0.86030000  0.56715000  1.0
  H  H8  1  0.26242000  0.54527000  0.23307000  1.0
  H  H9  1  0.29006000  0.65620000  0.17911000  1.0
  H  H10  1  0.48462000  0.59392000  0.12970000  1.0
  H  H11  1  0.45182000  0.48032000  0.17619000  1.0
  H  H12  1  0.46156000  0.63876000  0.04211000  1.0
  H  H13  1  0.49121000  0.84677000  0.94043000  1.0
  H  H14  1  0.58064000  0.84550000  0.86226000  1.0
  H  H15  1  0.23207000  0.25619000  0.54534000  1.0
  H  H16  1  0.17950000  0.28623000  0.65617000  1.0
  H  H17  1  0.13841000  0.48541000  0.59728000  1.0
  H  H18  1  0.18673000  0.45249000  0.48572000  1.0
  H  H19  1  0.04581000  0.46106000  0.63806000  1.0
  H  H20  1  0.93605000  0.48041000  0.83776000  1.0
  H  H21  1  0.85828000  0.57166000  0.83879000  1.0
  H  H22  1  0.24099000  0.25862000  0.95572000  1.0
  H  H23  1  0.21137000  0.31391000  0.84549000  1.0
  H  H24  1  0.01647000  0.36212000  0.90773000  1.0
  H  H25  1  0.05152000  0.31464000  0.02075000  1.0
  H  H26  1  0.03756000  0.44972000  0.86394000  1.0
  H  H27  1  0.01525000  0.56215000  0.66532000  1.0
  H  H28  1  0.92747000  0.64329000  0.66870000  1.0
  H  H29  1  0.27001000  0.96060000  0.24285000  1.0
  H  H30  1  0.32285000  0.84933000  0.21183000  1.0
  H  H31  1  0.37041000  0.91644000  0.02043000  1.0
  H  H32  1  0.32491000  0.03022000  0.05652000  1.0
  H  H33  1  0.45870000  0.87029000  0.04011000  1.0
  H  H34  1  0.56270000  0.66374000  0.01176000  1.0
  H  H35  1  0.64164000  0.66500000  0.92327000  1.0
  H  H36  1  0.95807000  0.24978000  0.26820000  1.0
  H  H37  1  0.84554000  0.22113000  0.31995000  1.0
  H  H38  1  0.89326000  0.01356000  0.35069000  1.0
  H  H39  1  0.00792000  0.04617000  0.30509000  1.0
  H  H40  1  0.85746000  0.04017000  0.44553000  1.0
  H  H41  1  0.65356000  0.01461000  0.55285000  1.0
  H  H42  1  0.65637000  0.92642000  0.63268000  1.0
  H  H43  1  0.45865000  0.76586000  0.74164000  1.0
  H  H44  1  0.34405000  0.81737000  0.71470000  1.0
  H  H45  1  0.39086000  0.85615000  0.51088000  1.0
  H  H46  1  0.50700000  0.81014000  0.54232000  1.0
  H  H47  1  0.35136000  0.94855000  0.53822000  1.0
  H  H48  1  0.14597000  0.05354000  0.51264000  1.0
  H  H49  1  0.14932000  0.13475000  0.42501000  1.0
  H  H50  1  0.73533000  0.45391000  0.75033000  1.0
  H  H51  1  0.71112000  0.34484000  0.80786000  1.0
  H  H52  1  0.51900000  0.40856000  0.86172000  1.0
  H  H53  1  0.54838000  0.52010000  0.81136000  1.0
  H  H54  1  0.54667000  0.36734000  0.95114000  1.0
  H  H55  1  0.52486000  0.16507000  0.06010000  1.0
  H  H56  1  0.43422000  0.16537000  0.13717000  1.0
  H  H57  1  0.77172000  0.74625000  0.45637000  1.0
  H  H58  1  0.82299000  0.71293000  0.34501000  1.0
  H  H59  1  0.87739000  0.52495000  0.41701000  1.0
  H  H60  1  0.83231000  0.56210000  0.53007000  1.0
  H  H61  1  0.96298000  0.54278000  0.36849000  1.0
  H  H62  1  0.06527000  0.51715000  0.16390000  1.0
  H  H63  1  0.14641000  0.42887000  0.16597000  1.0
  H  H64  1  0.75765000  0.73495000  0.04330000  1.0
  H  H65  1  0.78752000  0.68159000  0.15509000  1.0
  H  H66  1  0.98713000  0.63845000  0.09892000  1.0
  H  H67  1  0.95149000  0.68369000  0.98389000  1.0
  H  H68  1  0.96118000  0.54591000  0.13727000  1.0
  H  H69  1  0.99179000  0.44057000  0.34162000  1.0
  H  H70  1  0.08353000  0.36334000  0.34179000  1.0
  H  H71  1  0.73495000  0.04209000  0.75056000  1.0
  H  H72  1  0.68182000  0.15384000  0.78002000  1.0
  H  H73  1  0.65065000  0.10066000  0.98361000  1.0
  H  H74  1  0.69751000  0.98689000  0.94968000  1.0
  H  H75  1  0.55614000  0.13926000  0.95949000  1.0
  H  H76  1  0.44662000  0.34171000  0.98154000  1.0
  H  H77  1  0.36768000  0.34123000  0.07010000  1.0
  H  H78  1  0.05123000  0.76217000  0.75433000  1.0
  H  H79  1  0.15032000  0.78277000  0.68542000  1.0
  H  H80  1  0.07728000  0.97089000  0.63162000  1.0
  H  H81  1  0.97888000  0.94944000  0.69770000  1.0
  H  H82  1  0.11755000  0.94729000  0.54120000  1.0
  H  H83  1  0.31776000  0.96953000  0.43236000  1.0
  H  H84  1  0.32043000  0.06189000  0.35626000  1.0
  H  H85  1  0.87345000  0.87821000  0.80221000  1.0
  H  H86  1  0.69572000  0.69410000  0.69415000  1.0
  H  H87  1  0.22693000  0.19948000  0.20913000  1.0
  H  H88  1  0.32166000  0.26983000  0.28339000  1.0
  C  C1  1  0.41839000  0.23621000  0.34186000  1.0
  C  C2  1  0.49465000  0.21755000  0.35900000  1.0
  C  C3  1  0.54215000  0.22026000  0.31176000  1.0
  C  C4  1  0.60451000  0.18939000  0.32329000  1.0
  C  C5  1  0.62274000  0.15740000  0.38405000  1.0
  C  C6  1  0.57924000  0.16164000  0.43552000  1.0
  C  C7  1  0.51552000  0.18951000  0.42235000  1.0
  C  C8  1  0.68464000  0.11910000  0.39525000  1.0
  C  C9  1  0.68038000  0.06624000  0.43756000  1.0
  C  C10  1  0.79410000  0.94114000  0.51327000  1.0
  C  C11  1  0.79373000  0.89557000  0.56198000  1.0
  C  C12  1  0.32833000  0.42837000  0.22526000  1.0
  C  C13  1  0.35264000  0.50296000  0.20461000  1.0
  C  C14  1  0.30945000  0.55511000  0.20808000  1.0
  C  C15  1  0.32529000  0.61749000  0.17870000  1.0
  C  C16  1  0.38650000  0.63110000  0.14688000  1.0
  C  C17  1  0.43335000  0.58203000  0.14891000  1.0
  C  C18  1  0.41609000  0.51854000  0.17613000  1.0
  C  C19  1  0.40193000  0.69467000  0.11192000  1.0
  C  C20  1  0.44569000  0.69126000  0.06098000  1.0
  C  C21  1  0.52455000  0.80637000  0.94054000  1.0
  C  C22  1  0.57338000  0.80550000  0.89550000  1.0
  C  C23  1  0.22967000  0.32410000  0.43264000  1.0
  C  C24  1  0.20946000  0.35022000  0.50636000  1.0
  C  C25  1  0.20993000  0.30533000  0.55668000  1.0
  C  C26  1  0.18107000  0.32214000  0.61841000  1.0
  C  C27  1  0.15151000  0.38507000  0.63230000  1.0
  C  C28  1  0.15619000  0.43326000  0.58504000  1.0
  C  C29  1  0.18421000  0.41585000  0.52273000  1.0
  C  C30  1  0.11497000  0.39927000  0.69384000  1.0
  C  C31  1  0.06345000  0.44327000  0.68966000  1.0
  C  C32  1  0.93799000  0.51646000  0.80024000  1.0
  C  C33  1  0.89303000  0.56593000  0.80049000  1.0
  C  C34  1  0.17745000  0.26580000  0.07132000  1.0
  C  C35  1  0.15048000  0.28614000  0.99719000  1.0
  C  C36  1  0.19321000  0.28330000  0.94544000  1.0
  C  C37  1  0.17637000  0.31336000  0.88382000  1.0
  C  C38  1  0.11456000  0.34526000  0.87078000  1.0
  C  C39  1  0.06798000  0.34253000  0.91933000  1.0
  C  C40  1  0.08633000  0.31461000  0.98227000  1.0
  C  C41  1  0.09943000  0.38218000  0.80886000  1.0
  C  C42  1  0.05485000  0.43291000  0.81254000  1.0
  C  C43  1  0.98059000  0.56053000  0.70384000  1.0
  C  C44  1  0.93304000  0.60733000  0.70615000  1.0
  C  C45  1  0.27755000  0.07976000  0.17973000  1.0
  C  C46  1  0.29825000  0.00561000  0.15476000  1.0
  C  C47  1  0.29479000  0.95198000  0.19603000  1.0
  C  C48  1  0.32341000  0.88933000  0.17819000  1.0
  C  C49  1  0.35453000  0.87694000  0.11690000  1.0
  C  C50  1  0.35212000  0.92737000  0.07181000  1.0
  C  C51  1  0.32559000  0.99106000  0.09102000  1.0
  C  C52  1  0.38937000  0.81340000  0.10003000  1.0
  C  C53  1  0.44018000  0.81757000  0.05600000  1.0
  C  C54  1  0.56257000  0.70402000  0.97849000  1.0
  C  C55  1  0.60841000  0.70516000  0.93054000  1.0
  C  C56  1  0.06876000  0.17601000  0.26784000  1.0
  C  C57  1  0.99264000  0.15193000  0.28657000  1.0
  C  C58  1  0.94432000  0.19918000  0.28813000  1.0
  C  C59  1  0.88119000  0.18297000  0.31646000  1.0
  C  C60  1  0.86349000  0.11787000  0.34279000  1.0
  C  C61  1  0.90857000  0.06741000  0.33571000  1.0
  C  C62  1  0.97242000  0.08449000  0.30891000  1.0
  C  C63  1  0.80081000  0.10299000  0.37865000  1.0
  C  C64  1  0.80494000  0.05752000  0.42860000  1.0
  C  C65  1  0.69368000  0.98093000  0.55261000  1.0
  C  C66  1  0.69544000  0.93275000  0.59867000  1.0
  C  C67  1  0.56738000  0.76886000  0.66956000  1.0
  C  C68  1  0.49146000  0.78802000  0.64546000  1.0
  C  C69  1  0.44366000  0.78746000  0.69241000  1.0
  C  C70  1  0.37985000  0.81560000  0.67715000  1.0
  C  C71  1  0.36161000  0.84383000  0.61347000  1.0
  C  C72  1  0.40666000  0.83935000  0.56351000  1.0
  C  C73  1  0.47113000  0.81255000  0.57974000  1.0
  C  C74  1  0.29725000  0.87823000  0.59874000  1.0
  C  C75  1  0.29877000  0.92881000  0.55410000  1.0
  C  C76  1  0.18400000  0.05116000  0.47741000  1.0
  C  C77  1  0.18603000  0.09767000  0.42979000  1.0
  C  C78  1  0.67079000  0.57103000  0.76129000  1.0
  C  C79  1  0.64591000  0.49600000  0.78060000  1.0
  C  C80  1  0.68932000  0.44413000  0.77655000  1.0
  C  C81  1  0.67548000  0.38318000  0.80781000  1.0
  C  C82  1  0.61626000  0.37120000  0.84208000  1.0
  C  C83  1  0.56861000  0.41952000  0.84018000  1.0
  C  C84  1  0.58379000  0.48155000  0.81084000  1.0
  C  C85  1  0.60464000  0.31034000  0.88028000  1.0
  C  C86  1  0.56310000  0.31512000  0.93313000  1.0
  C  C87  1  0.49007000  0.20412000  0.05855000  1.0
  C  C88  1  0.44122000  0.20486000  0.10338000  1.0
  C  C89  1  0.78459000  0.68685000  0.57770000  1.0
  C  C90  1  0.80342000  0.65959000  0.50349000  1.0
  C  C91  1  0.79754000  0.69965000  0.44876000  1.0
  C  C92  1  0.82514000  0.68073000  0.38630000  1.0
  C  C93  1  0.85777000  0.61994000  0.37564000  1.0
  C  C94  1  0.85760000  0.57584000  0.42690000  1.0
  C  C95  1  0.83161000  0.59583000  0.49024000  1.0
  C  C96  1  0.89188000  0.60315000  0.31248000  1.0
  C  C97  1  0.94316000  0.55893000  0.31610000  1.0
  C  C98  1  0.06546000  0.48293000  0.20326000  1.0
  C  C99  1  0.11235000  0.43528000  0.20485000  1.0
  C  C100  1  0.82400000  0.72776000  0.92904000  1.0
  C  C101  1  0.85011000  0.70896000  0.00433000  1.0
  C  C102  1  0.80627000  0.71147000  0.05503000  1.0
  C  C103  1  0.82336000  0.68251000  0.11759000  1.0
  C  C104  1  0.88652000  0.65240000  0.13234000  1.0
  C  C105  1  0.93442000  0.65618000  0.08521000  1.0
  C  C106  1  0.91577000  0.68279000  0.02148000  1.0
  C  C107  1  0.90272000  0.61637000  0.19466000  1.0
  C  C108  1  0.94646000  0.56473000  0.19014000  1.0
  C  C109  1  0.02627000  0.44213000  0.30291000  1.0
  C  C110  1  0.07611000  0.39758000  0.30278000  1.0
  C  C111  1  0.73477000  0.93024000  0.82163000  1.0
  C  C112  1  0.71611000  0.00547000  0.84618000  1.0
  C  C113  1  0.71448000  0.05474000  0.80031000  1.0
  C  C114  1  0.68543000  0.11712000  0.81697000  1.0
  C  C115  1  0.65848000  0.13270000  0.88111000  1.0
  C  C116  1  0.66594000  0.08671000  0.93045000  1.0
  C  C117  1  0.69342000  0.02361000  0.91280000  1.0
  C  C118  1  0.62195000  0.19474000  0.89639000  1.0
  C  C119  1  0.57268000  0.19115000  0.94200000  1.0
  C  C120  1  0.44824000  0.30306000  0.01651000  1.0
  C  C121  1  0.40259000  0.30250000  0.06442000  1.0
  C  C122  1  0.94979000  0.83861000  0.76908000  1.0
  C  C123  1  0.00794000  0.85330000  0.72903000  1.0
  C  C124  1  0.05700000  0.80678000  0.72602000  1.0
  C  C125  1  0.11189000  0.81814000  0.68791000  1.0
  C  C126  1  0.11932000  0.87651000  0.65203000  1.0
  C  C127  1  0.07060000  0.92342000  0.65627000  1.0
  C  C128  1  0.01555000  0.91228000  0.69416000  1.0
  C  C129  1  0.17884000  0.89018000  0.61268000  1.0
  C  C130  1  0.17143000  0.93226000  0.55998000  1.0
  C  C131  1  0.28071000  0.00632000  0.43454000  1.0
  C  C132  1  0.28138000  0.05605000  0.39029000  1.0
  C  C133  1  0.74280000  0.03652000  0.45743000  1.0
  C  C134  1  0.74344000  0.98609000  0.50759000  1.0
  C  C135  1  0.46776000  0.75466000  0.03388000  1.0
  C  C136  1  0.51827000  0.75506000  0.98430000  1.0
  C  C137  1  0.03418000  0.46272000  0.75104000  1.0
  C  C138  1  0.98405000  0.51309000  0.75157000  1.0
  C  C139  1  0.23370000  0.95445000  0.53158000  1.0
  C  C140  1  0.23221000  0.00381000  0.48082000  1.0
  C  C141  1  0.54394000  0.25332000  0.96270000  1.0
  C  C142  1  0.49434000  0.25361000  0.01285000  1.0
  C  C143  1  0.96967000  0.53707000  0.25292000  1.0
  C  C144  1  0.02043000  0.48724000  0.25290000  1.0
  N  N1  1  0.74482000  0.89054000  0.60393000  1.0
  N  N2  1  0.74273000  0.13532000  0.36420000  1.0
  N  N3  1  0.61452000  0.75545000  0.88987000  1.0
  N  N4  1  0.37239000  0.75388000  0.12935000  1.0
  N  N5  1  0.89008000  0.61064000  0.75394000  1.0
  N  N6  1  0.13088000  0.36734000  0.75147000  1.0
  N  N7  1  0.23456000  0.10078000  0.38748000  1.0
  N  N8  1  0.23933000  0.86136000  0.62977000  1.0
  N  N9  1  0.39868000  0.25385000  0.10713000  1.0
  N  N10  1  0.63555000  0.25211000  0.86407000  1.0
  N  N11  1  0.11848000  0.39390000  0.25447000  1.0
  N  N12  1  0.87383000  0.63328000  0.25373000  1.0
  O  O1  1  0.40509000  0.27978000  0.29878000  1.0
  O  O2  1  0.36859000  0.20626000  0.37102000  1.0
  O  O3  1  0.28388000  0.42544000  0.26614000  1.0
  O  O4  1  0.35441000  0.37393000  0.19604000  1.0
  O  O5  1  0.25397000  0.26498000  0.42555000  1.0
  O  O6  1  0.21808000  0.36084000  0.38405000  1.0
  O  O7  1  0.22568000  0.22650000  0.07221000  1.0
  O  O8  1  0.15248000  0.29081000  0.12638000  1.0
  O  O9  1  0.23717000  0.08315000  0.22493000  1.0
  O  O10  1  0.30502000  0.13413000  0.15255000  1.0
  O  O11  1  0.07970000  0.23272000  0.24074000  1.0
  O  O12  1  0.11633000  0.13816000  0.28378000  1.0
  O  O13  1  0.57840000  0.74159000  0.72570000  1.0
  O  O14  1  0.61477000  0.78492000  0.63188000  1.0
  O  O15  1  0.71911000  0.57481000  0.72329000  1.0
  O  O16  1  0.64376000  0.62480000  0.78745000  1.0
  O  O17  1  0.75121000  0.73944000  0.58044000  1.0
  O  O18  1  0.80622000  0.65774000  0.63129000  1.0
  O  O19  1  0.77802000  0.76794000  0.92450000  1.0
  O  O20  1  0.84946000  0.69791000  0.87526000  1.0
  O  O21  1  0.76190000  0.92027000  0.76464000  1.0
  O  O22  1  0.72006000  0.88240000  0.85804000  1.0
  O  O23  1  0.93862000  0.78416000  0.79626000  1.0
  O  O24  1  0.90904000  0.88953000  0.77239000  1.0
  O  O25  1  0.74168000  0.74319000  0.73712000  1.0
  O  O26  1  0.25414000  0.25027000  0.25837000  1.0
