# generated using pymatgen
data_H20C33N4
_symmetry_space_group_name_H-M   'P 1'
_cell_length_a   22.01225000
_cell_length_b   44.80515000
_cell_length_c   44.80520000
_cell_angle_alpha   120.00011075
_cell_angle_beta   89.96590000
_cell_angle_gamma   90.03410004
_symmetry_Int_Tables_number   1
_chemical_formula_structural   H20C33N4
_chemical_formula_sum   'H120 C198 N24'
_cell_volume   38269.32806616
_cell_formula_units_Z   6
loop_
 _symmetry_equiv_pos_site_id
 _symmetry_equiv_pos_as_xyz
  1  'x, y, z'
loop_
 _atom_site_type_symbol
 _atom_site_label
 _atom_site_symmetry_multiplicity
 _atom_site_fract_x
 _atom_site_fract_y
 _atom_site_fract_z
 _atom_site_occupancy
  C  1  1  0.89647300  0.43716200  0.50145900  1
  C  2  1  0.86307200  0.40714500  0.47926400  1
  C  3  1  0.81588900  0.39536500  0.49195850  1
  C  4  1  0.80101500  0.41214200  0.52757300  1
  C  5  1  0.83240400  0.44338100  0.54914400  1
  C  6  1  0.87953600  0.45529700  0.53661200  1
  C  7  1  0.74890400  0.39907500  0.54057750  1
  C  8  1  0.69394000  0.41134800  0.52880400  1
  C  9  1  0.67719000  0.44670200  0.54616300  1
  C  10  1  0.62825200  0.45891100  0.53506600  1
  C  11  1  0.59425900  0.43640600  0.50542500  1
  C  12  1  0.61256700  0.40148600  0.48688600  1
  C  13  1  0.66180300  0.38951000  0.49794600  1
  C  14  1  0.74945700  0.36015000  0.52688800  1
  C  15  1  0.75135300  0.41228200  0.57939000  1
  C  16  1  0.69874100  0.42193200  0.60058600  1
  C  17  1  0.70084100  0.42889500  0.63488200  1
  C  18  1  0.75554700  0.42561200  0.64955400  1
  C  19  1  0.80834100  0.41616800  0.62880600  1
  C  20  1  0.80601700  0.40940000  0.59465100  1
  C  21  1  0.80347000  0.34012200  0.51616000  1
  C  22  1  0.80488200  0.30581800  0.50914300  1
  C  23  1  0.75246700  0.28987000  0.51313300  1
  C  24  1  0.69818800  0.30931800  0.52341600  1
  C  25  1  0.69707900  0.34359800  0.53045850  1
  C  42  1  0.89615800  0.00465150  0.50306250  1
  C  43  1  0.86273600  0.01247150  0.53307650  1
  C  44  1  0.81559900  0.03694700  0.54485650  1
  C  45  1  0.80082900  0.05581850  0.52810950  1
  C  46  1  0.83223100  0.04614600  0.49686650  1
  C  47  1  0.87929100  0.02167850  0.48493300  1
  C  48  1  0.74874000  0.08187100  0.54117250  1
  C  49  1  0.69373500  0.05782900  0.52892450  1
  C  50  1  0.67699900  0.03979600  0.49356650  1
  C  51  1  0.62800800  0.01649950  0.48137100  1
  C  52  1  0.59395000  0.00939600  0.50389250  1
  C  53  1  0.61226700  0.02578700  0.53880850  1
  C  54  1  0.66155800  0.04881350  0.55076900  1
  C  55  1  0.74935500  0.10709750  0.58009550  1
  C  56  1  0.75117300  0.10745450  0.52794100  1
  C  57  1  0.69853700  0.11901350  0.51835550  1
  C  58  1  0.70059900  0.14632950  0.51136350  1
  C  59  1  0.75528700  0.16432250  0.51462600  1
  C  60  1  0.80808500  0.15307200  0.52409050  1
  C  61  1  0.80580500  0.12565550  0.53082250  1
  C  62  1  0.80340200  0.11643050  0.60009850  1
  C  63  1  0.80489600  0.14371750  0.63440250  1
  C  64  1  0.75252200  0.16365100  0.65038500  1
  C  65  1  0.69822900  0.15449850  0.63095550  1
  C  66  1  0.69704600  0.12725100  0.59668300  1
  C  83  1  0.89697700  0.43873850  0.93550600  1
  C  84  1  0.86364900  0.46094150  0.92768500  1
  C  85  1  0.81646600  0.44826500  0.90323650  1
  C  86  1  0.80155700  0.41265550  0.88439200  1
  C  87  1  0.83288100  0.39107750  0.89406150  1
  C  88  1  0.87997700  0.40359300  0.91850500  1
  C  89  1  0.74939500  0.39968350  0.85838550  1
  C  90  1  0.69446100  0.41150350  0.88247800  1
  C  91  1  0.67768400  0.39418700  0.90052150  1
  C  92  1  0.62874800  0.40531500  0.92385850  1
  C  93  1  0.59479500  0.43496300  0.93099250  1
  C  94  1  0.61317000  0.45348600  0.91459850  1
  C  95  1  0.66240300  0.44239050  0.89153150  1
  C  96  1  0.74996800  0.41336750  0.83315050  1
  C  97  1  0.75172100  0.36086650  0.83280950  1
  C  98  1  0.69903300  0.33972950  0.82128900  1
  C  99  1  0.70100400  0.30541350  0.79399100  1
  C  100  1  0.75563700  0.29068300  0.77594450  1
  C  101  1  0.80849400  0.31138150  0.78716650  1
  C  102  1  0.80630400  0.34553350  0.81457000  1
  C  103  1  0.80400200  0.42400650  0.82374250  1
  C  104  1  0.80541400  0.43106450  0.79648250  1
  C  105  1  0.75297900  0.42712400  0.77660850  1
  C  106  1  0.69870400  0.41684650  0.78581150  1
  C  107  1  0.69760100  0.40980850  0.81305100  1
  C  124  1  0.39668800  0.48330050  0.45861550  1
  C  125  1  0.36329300  0.51331200  0.48081250  1
  C  126  1  0.31613800  0.52507800  0.46812150  1
  C  127  1  0.30132200  0.50831600  0.43250550  1
  C  128  1  0.33271700  0.47708750  0.41093200  1
  C  129  1  0.37980000  0.46517200  0.42346050  1
  C  130  1  0.24917200  0.52135150  0.41953200  1
  C  131  1  0.19421400  0.50907800  0.43134800  1
  C  132  1  0.17750000  0.47371100  0.41402750  1
  C  133  1  0.12850300  0.46149950  0.42512150  1
  C  134  1  0.09445600  0.48401000  0.45474350  1
  C  135  1  0.11280400  0.51892750  0.47328400  1
  C  136  1  0.16206600  0.53090950  0.46221200  1
  C  137  1  0.24973100  0.56027600  0.43322600  1
  C  138  1  0.25157800  0.50811650  0.38071650  1
  C  139  1  0.19894100  0.49846500  0.35955950  1
  C  140  1  0.20097000  0.49150700  0.32526200  1
  C  141  1  0.25563200  0.49481900  0.31054050  1
  C  142  1  0.30844400  0.50431150  0.33125700  1
  C  143  1  0.30618600  0.51104350  0.36540450  1
  C  144  1  0.30370800  0.58035300  0.44393200  1
  C  145  1  0.30508900  0.61464450  0.45090500  1
  C  146  1  0.25264800  0.63055300  0.44694100  1
  C  147  1  0.19841200  0.61105000  0.43664150  1
  C  148  1  0.19735300  0.57677400  0.42961450  1
  C  165  1  0.39606600  0.91579900  0.45704750  1
  C  166  1  0.36270200  0.90798050  0.42703200  1
  C  167  1  0.31554000  0.88350000  0.41524450  1
  C  168  1  0.30068600  0.86462900  0.43199300  1
  C  169  1  0.33201000  0.87431100  0.46324400  1
  C  170  1  0.37911400  0.89876950  0.47517450  1
  C  171  1  0.24859300  0.83855550  0.41890650  1
  C  172  1  0.19358500  0.86257600  0.43115150  1
  C  173  1  0.17681400  0.88059500  0.46651150  1
  C  174  1  0.12784600  0.90389250  0.47871350  1
  C  175  1  0.09386300  0.91101000  0.45620100  1
  C  176  1  0.11223500  0.89463650  0.42128650  1
  C  177  1  0.16148700  0.87160300  0.40931700  1
  C  178  1  0.24926800  0.81334550  0.37997850  1
  C  179  1  0.25105700  0.81294000  0.43209850  1
  C  180  1  0.19842600  0.80139400  0.44174450  1
  C  181  1  0.20050400  0.77407850  0.44873650  1
  C  182  1  0.25520100  0.75610600  0.44544400  1
  C  183  1  0.30799600  0.76738750  0.43596750  1
  C  184  1  0.30571600  0.79480550  0.42924600  1
  C  185  1  0.30331000  0.80403950  0.35996000  1
  C  186  1  0.30480900  0.77672400  0.32567000  1
  C  187  1  0.25242500  0.75679300  0.30969450  1
  C  188  1  0.19813200  0.76592500  0.32914850  1
  C  189  1  0.19695100  0.79317200  0.36342450  1
  C  206  1  0.39694200  0.48172450  0.02460750  1
  C  207  1  0.36348100  0.45950150  0.03237700  1
  C  208  1  0.31626700  0.47216700  0.05682250  1
  C  209  1  0.30140700  0.50777600  0.07567850  1
  C  210  1  0.33286400  0.52937850  0.06606450  1
  C  211  1  0.38002200  0.51687500  0.04164150  1
  C  212  1  0.24925200  0.52073850  0.10171200  1
  C  213  1  0.19431400  0.50891750  0.07763850  1
  C  214  1  0.17766400  0.52622950  0.05958300  1
  C  215  1  0.12873900  0.51511650  0.03625900  1
  C  216  1  0.09468300  0.48549100  0.02914850  1
  C  217  1  0.11293900  0.46697300  0.04555400  1
  C  218  1  0.16215400  0.47805400  0.06861250  1
  C  219  1  0.24984200  0.50702300  0.12692450  1
  C  220  1  0.25163400  0.55955000  0.12732250  1
  C  221  1  0.19897000  0.58069100  0.13877300  1
  C  222  1  0.20093500  0.61499650  0.16610250  1
  C  223  1  0.25555000  0.62972650  0.18416550  1
  C  224  1  0.30839800  0.60904050  0.17294650  1
  C  225  1  0.30621600  0.57489200  0.14553750  1
  C  226  1  0.30385100  0.49636200  0.13627950  1
  C  227  1  0.30525900  0.48933950  0.16356400  1
  C  228  1  0.25283800  0.49330100  0.18348250  1
  C  229  1  0.19858000  0.50358750  0.17431500  1
  C  230  1  0.19747600  0.51060750  0.14706250  1
  C  247  1  0.80479200  0.41606350  0.72283750  1
  C  249  1  0.75661500  0.42887100  0.68286700  1
  C  251  1  0.70761900  0.44383400  0.73604850  1
  C  252  1  0.75569100  0.42990900  0.74621950  1
  C  255  1  0.80437900  0.24722200  0.52421700  1
  C  257  1  0.75629500  0.19439200  0.51139300  1
  C  259  1  0.70720600  0.23256700  0.49644350  1
  C  260  1  0.75522000  0.25672200  0.51040000  1
  C  263  1  0.80453800  0.21737300  0.69301800  1
  C  265  1  0.75654700  0.25738550  0.74586550  1
  C  267  1  0.70733700  0.20426950  0.70770600  1
  C  268  1  0.75535600  0.19404500  0.68354600  1
  C  271  1  0.30471400  0.50441400  0.23723000  1
  C  273  1  0.25661300  0.49159500  0.27724100  1
  C  275  1  0.20751300  0.47663500  0.22411150  1
  C  276  1  0.25556000  0.49057250  0.21390050  1
  C  279  1  0.30445100  0.67326700  0.43587550  1
  C  281  1  0.25623600  0.72603450  0.44867400  1
  C  283  1  0.20721800  0.68780400  0.46361650  1
  C  284  1  0.25532800  0.66372000  0.44970950  1
  C  287  1  0.30441400  0.70306600  0.26707550  1
  C  289  1  0.25644300  0.66302800  0.21424050  1
  C  291  1  0.20724300  0.71613750  0.25239550  1
  C  292  1  0.25523200  0.72637250  0.27655200  1
  C  295  1  0.95598400  0.48425700  0.50111300  1
  C  297  1  0.04427400  0.47203000  0.46598400  1
  C  299  1  0.98746200  0.42583800  0.46424900  1
  C  300  1  0.94545000  0.44886500  0.48894300  1
  C  303  1  0.95558000  0.95719650  0.45596050  1
  C  305  1  0.04374100  0.93424400  0.46817950  1
  C  307  1  0.98702500  0.97872700  0.51437700  1
  C  308  1  0.94506800  0.98041850  0.49135350  1
  C  311  1  0.95633800  0.43908100  0.98295650  1
  C  313  1  0.04458100  0.47423000  0.00589950  1
  C  315  1  0.98795000  0.47594400  0.96140850  1
  C  316  1  0.94591300  0.45124050  0.95972250  1
  C  319  1  0.45603700  0.43619100  0.45896600  1
  C  321  1  0.54417800  0.44839500  0.49415800  1
  C  323  1  0.48754900  0.49460300  0.49587400  1
  C  324  1  0.44558400  0.47158500  0.47113800  1
  C  327  1  0.45552100  0.96324100  0.50414650  1
  C  329  1  0.54379200  0.98616600  0.49192100  1
  C  331  1  0.48704500  0.94170300  0.44572750  1
  C  332  1  0.44502700  0.94002000  0.46875550  1
  C  335  1  0.45648000  0.48140600  0.97719050  1
  C  337  1  0.54467400  0.44624000  0.95424700  1
  C  339  1  0.48789000  0.44451700  0.99871850  1
  C  340  1  0.44593100  0.46922950  0.00040650  1
  H  26  1  0.66093100  0.43448300  0.64834900  1
  H  27  1  0.65706500  0.42219400  0.59072700  1
  H  28  1  0.84898100  0.41290100  0.63788000  1
  H  29  1  0.84501000  0.40106700  0.58039600  1
  H  30  1  0.84381500  0.35088500  0.51524400  1
  H  31  1  0.84545900  0.29296900  0.50222500  1
  H  32  1  0.65973600  0.29959300  0.52825500  1
  H  33  1  0.65751900  0.35706900  0.53979200  1
  H  34  1  0.67422300  0.36434400  0.48267100  1
  H  35  1  0.59111400  0.38435100  0.46452600  1
  H  36  1  0.61755100  0.48452500  0.54916500  1
  H  37  1  0.70048100  0.46409600  0.56762600  1
  H  38  1  0.82138300  0.45812400  0.57460500  1
  H  39  1  0.79278100  0.37372300  0.47476100  1
  H  40  1  0.87201900  0.39380300  0.45339100  1
  H  41  1  0.90203700  0.47723700  0.55377400  1
  H  67  1  0.66065900  0.15421050  0.50583400  1
  H  68  1  0.65686100  0.10887900  0.51811150  1
  H  69  1  0.84873500  0.16541650  0.52731150  1
  H  70  1  0.84482800  0.11975000  0.53912500  1
  H  71  1  0.84372000  0.10474450  0.58931850  1
  H  72  1  0.84548700  0.14963100  0.64723250  1
  H  73  1  0.65978000  0.16903950  0.64070150  1
  H  74  1  0.65746000  0.12310750  0.58323450  1
  H  75  1  0.67396800  0.05872100  0.57593750  1
  H  76  1  0.59077000  0.02058300  0.55595700  1
  H  77  1  0.61731000  0.00497200  0.45575600  1
  H  78  1  0.70031900  0.04384850  0.47616300  1
  H  79  1  0.82127400  0.05687850  0.48213450  1
  H  80  1  0.79249900  0.04140200  0.56651000  1
  H  81  1  0.87162200  0.99993350  0.54641400  1
  H  82  1  0.90182000  0.01691100  0.46300150  1
  H  108  1  0.66101600  0.29203050  0.78610900  1
  H  109  1  0.65738700  0.34963400  0.83144950  1
  H  110  1  0.84909800  0.30226350  0.77477400  1
  H  111  1  0.84535600  0.35973850  0.82044300  1
  H  112  1  0.84434600  0.42495500  0.83541850  1
  H  113  1  0.84598800  0.43798950  0.79053450  1
  H  114  1  0.66020300  0.41206150  0.77131600  1
  H  115  1  0.65800500  0.40052750  0.81724350  1
  H  116  1  0.67485500  0.45764750  0.88161850  1
  H  117  1  0.59175100  0.47585250  0.91982350  1
  H  118  1  0.61800500  0.39122850  0.93538650  1
  H  119  1  0.70092700  0.37271300  0.89644450  1
  H  120  1  0.82182700  0.36562000  0.88334850  1
  H  121  1  0.79342500  0.46546900  0.89878550  1
  H  122  1  0.87262600  0.48681100  0.94020900  1
  H  123  1  0.90244700  0.38642200  0.92326750  1
  H  149  1  0.16103500  0.48590500  0.31183350  1
  H  150  1  0.15728200  0.49816750  0.36943850  1
  H  151  1  0.34905000  0.50762900  0.32216500  1
  H  152  1  0.34518400  0.51943200  0.37963650  1
  H  153  1  0.34406900  0.56962950  0.44485350  1
  H  154  1  0.34562600  0.62754750  0.45786850  1
  H  155  1  0.15991700  0.62073750  0.43182950  1
  H  156  1  0.15779800  0.56327800  0.42030350  1
  H  157  1  0.17446800  0.55608550  0.47746900  1
  H  158  1  0.09128700  0.53607200  0.49562250  1
  H  159  1  0.11778600  0.43588300  0.41102500  1
  H  160  1  0.20079000  0.45631950  0.39255950  1
  H  161  1  0.32172700  0.46234600  0.38547100  1
  H  162  1  0.29304100  0.54671850  0.48532300  1
  H  163  1  0.37219500  0.52664700  0.50668700  1
  H  164  1  0.40230100  0.44324000  0.40629750  1
  H  190  1  0.16057600  0.76618350  0.45429300  1
  H  191  1  0.15674800  0.81151350  0.44200950  1
  H  192  1  0.34864400  0.75505650  0.43272200  1
  H  193  1  0.34471900  0.80070800  0.42089300  1
  H  194  1  0.34363800  0.81572500  0.37072750  1
  H  195  1  0.34539100  0.77083000  0.31281450  1
  H  196  1  0.15967800  0.75137200  0.31941950  1
  H  197  1  0.15735500  0.79730100  0.37688000  1
  H  198  1  0.17391900  0.86169400  0.38414500  1
  H  199  1  0.09076200  0.89983250  0.40414050  1
  H  200  1  0.11709400  0.91539800  0.50432450  1
  H  201  1  0.20006600  0.87652150  0.48390550  1
  H  202  1  0.32098000  0.86358200  0.47797800  1
  H  203  1  0.29248400  0.87904850  0.39359300  1
  H  204  1  0.37165400  0.92051950  0.41369650  1
  H  205  1  0.40157400  0.90355050  0.49711600  1
  H  231  1  0.16095800  0.62837450  0.17398150  1
  H  232  1  0.15731600  0.57076800  0.12865100  1
  H  233  1  0.34899200  0.61817600  0.18533550  1
  H  234  1  0.34524400  0.56068500  0.13967000  1
  H  235  1  0.34420600  0.49545050  0.12461100  1
  H  236  1  0.34583200  0.48243950  0.16950650  1
  H  237  1  0.16009600  0.50839400  0.18884700  1
  H  238  1  0.15790200  0.51990800  0.14290500  1
  H  239  1  0.17450500  0.46280850  0.07854600  1
  H  240  1  0.09142100  0.44463150  0.04035900  1
  H  241  1  0.11807000  0.52920550  0.02473150  1
  H  242  1  0.20096500  0.54769750  0.06365650  1
  H  243  1  0.32186200  0.55483950  0.07679600  1
  H  244  1  0.29314800  0.45495200  0.06124450  1
  H  245  1  0.37243600  0.43363100  0.01984450  1
  H  246  1  0.40256900  0.53405300  0.03689950  1
  H  253  1  0.84065500  0.40444150  0.72740650  1
  H  254  1  0.67037500  0.45447650  0.75138600  1
  H  261  1  0.84022700  0.26345150  0.53583650  1
  H  262  1  0.66995200  0.23722150  0.48579350  1
  H  269  1  0.84037600  0.21276000  0.67677550  1
  H  270  1  0.67004400  0.18897300  0.70306250  1
  H  277  1  0.34057800  0.51603200  0.23262150  1
  H  278  1  0.17024800  0.46598150  0.20880550  1
  H  285  1  0.34034600  0.65708350  0.42426650  1
  H  286  1  0.16995700  0.68310300  0.47425150  1
  H  293  1  0.34024200  0.70769400  0.28331000  1
  H  294  1  0.16996400  0.73142550  0.25703900  1
  H  301  1  0.92747300  0.50277500  0.51851900  1
  H  302  1  0.98416400  0.39984200  0.45449300  1
  H  309  1  0.92710500  0.95610200  0.43744350  1
  H  310  1  0.98374200  0.99496350  0.54037200  1
  H  317  1  0.92779500  0.42167400  0.98406200  1
  H  318  1  0.98472800  0.48569850  0.94516850  1
  H  325  1  0.42754100  0.41767800  0.44153600  1
  H  326  1  0.48430300  0.52059950  0.50563900  1
  H  333  1  0.42699800  0.96434350  0.52266650  1
  H  334  1  0.48377600  0.92546800  0.41973150  1
  H  341  1  0.42799800  0.49882300  0.97608900  1
  H  342  1  0.48457100  0.43475050  0.01494900  1
  N  248  1  0.80348400  0.41571700  0.69244700  1
  N  250  1  0.70926700  0.44269750  0.70522000  1
  N  256  1  0.80313900  0.21716900  0.52454950  1
  N  258  1  0.70892100  0.20286850  0.49756450  1
  N  264  1  0.80336500  0.24775800  0.72306850  1
  N  266  1  0.70911800  0.23508850  0.73740150  1
  N  272  1  0.30346900  0.50475450  0.26761800  1
  N  274  1  0.20922200  0.47776500  0.25493550  1
  N  280  1  0.30314000  0.70331150  0.43553150  1
  N  282  1  0.20886300  0.71749950  0.46248600  1
  N  288  1  0.30324400  0.67267450  0.23703000  1
  N  290  1  0.20902800  0.68531250  0.22270400  1
  N  296  1  0.00401000  0.49451900  0.48952850  1
  N  298  1  0.03467800  0.43785100  0.45378800  1
  N  304  1  0.00353400  0.93532750  0.44569350  1
  N  306  1  0.03416600  0.95622900  0.50236050  1
  N  312  1  0.00429000  0.45067600  0.00482650  1
  N  314  1  0.03508700  0.48641850  0.98390850  1
  N  320  1  0.50395300  0.42591600  0.47057600  1
  N  322  1  0.53465400  0.48257700  0.50636000  1
  N  328  1  0.50352200  0.98509800  0.51441100  1
  N  330  1  0.53423200  0.96418650  0.45774150  1
  N  336  1  0.50446400  0.46980600  0.95532500  1
  N  338  1  0.53506300  0.43404000  0.97622650  1
