# generated using pymatgen
data_Ni3H32(C10O3)6
_symmetry_space_group_name_H-M   'P 1'
_cell_length_a   10.66491000
_cell_length_b   14.18875000
_cell_length_c   27.64693000
_cell_angle_alpha   89.95609000
_cell_angle_beta   89.91986000
_cell_angle_gamma   89.89006000
_symmetry_Int_Tables_number   1
_chemical_formula_structural   Ni3H32(C10O3)6
_chemical_formula_sum   'Ni6 H64 C120 O36'
_cell_volume   4183.56858801
_cell_formula_units_Z   2
loop_
 _symmetry_equiv_pos_site_id
 _symmetry_equiv_pos_as_xyz
  1  'x, y, z'
loop_
 _atom_site_type_symbol
 _atom_site_label
 _atom_site_symmetry_multiplicity
 _atom_site_fract_x
 _atom_site_fract_y
 _atom_site_fract_z
 _atom_site_occupancy
  Ni  Ni0  1  0.84813000  0.30231000  0.99998000  1
  Ni  Ni1  1  0.14378000  0.80234000  0.50045000  1
  Ni  Ni2  1  0.84972000  0.20313000  0.50013000  1
  Ni  Ni3  1  0.14431000  0.69999000  0.00127000  1
  Ni  Ni4  1  0.99580000  0.50136000  0.99978000  1
  Ni  Ni5  1  0.99835000  0.00321000  0.50073000  1
  H  H6  1  0.33182000  0.39947000  0.18881000  1
  H  H7  1  0.22310000  0.43427000  0.11145000  1
  H  H8  1  0.08036000  0.16559000  0.21333000  1
  H  H9  1  0.97736000  0.19836000  0.13422000  1
  H  H10  1  0.41101000  0.34294000  0.33729000  1
  H  H11  1  0.60071000  0.12238000  0.25880000  1
  H  H12  1  0.72245000  0.08133000  0.33327000  1
  H  H13  1  0.54263000  0.30783000  0.41001000  1
  H  H14  1  0.65960000  0.89742000  0.31289000  1
  H  H15  1  0.76849000  0.93531000  0.38935000  1
  H  H16  1  0.91571000  0.66631000  0.28877000  1
  H  H17  1  0.02065000  0.70253000  0.36704000  1
  H  H18  1  0.57755000  0.84481000  0.16301000  1
  H  H19  1  0.39339000  0.62191000  0.24429000  1
  H  H20  1  0.26350000  0.58487000  0.17158000  1
  H  H21  1  0.43587000  0.80958000  0.09263000  1
  H  H22  1  0.33308000  0.10162000  0.31163000  1
  H  H23  1  0.22513000  0.06743000  0.38894000  1
  H  H24  1  0.08054000  0.33486000  0.28667000  1
  H  H25  1  0.97694000  0.30278000  0.36571000  1
  H  H26  1  0.41404000  0.15635000  0.16097000  1
  H  H27  1  0.59852000  0.37537000  0.24179000  1
  H  H28  1  0.72151000  0.41984000  0.16814000  1
  H  H29  1  0.54759000  0.19389000  0.08904000  1
  H  H30  1  0.66318000  0.60382000  0.19085000  1
  H  H31  1  0.76908000  0.56568000  0.11368000  1
  H  H32  1  0.91660000  0.83665000  0.21279000  1
  H  H33  1  0.01969000  0.80007000  0.13403000  1
  H  H34  1  0.58222000  0.65544000  0.33920000  1
  H  H35  1  0.39830000  0.87472000  0.25797000  1
  H  H36  1  0.27149000  0.91763000  0.33135000  1
  H  H37  1  0.44581000  0.69260000  0.41087000  1
  H  H38  1  0.65902000  0.60415000  0.81095000  1
  H  H39  1  0.76859000  0.56696000  0.88781000  1
  H  H40  1  0.91326000  0.83706000  0.78731000  1
  H  H41  1  0.01736000  0.80127000  0.86561000  1
  H  H42  1  0.57845000  0.65441000  0.66195000  1
  H  H43  1  0.39142000  0.87479000  0.74174000  1
  H  H44  1  0.27111000  0.91882000  0.66748000  1
  H  H45  1  0.44649000  0.69208000  0.58951000  1
  H  H46  1  0.33480000  0.10371000  0.68849000  1
  H  H47  1  0.22591000  0.06825000  0.61163000  1
  H  H48  1  0.08151000  0.33685000  0.71306000  1
  H  H49  1  0.97618000  0.30218000  0.63452000  1
  H  H50  1  0.41217000  0.15696000  0.83935000  1
  H  H51  1  0.59725000  0.37584000  0.75799000  1
  H  H52  1  0.72236000  0.41910000  0.83149000  1
  H  H53  1  0.54704000  0.19430000  0.91102000  1
  H  H54  1  0.65745000  0.89908000  0.68934000  1
  H  H55  1  0.76570000  0.93596000  0.61206000  1
  H  H56  1  0.91109000  0.66695000  0.71348000  1
  H  H57  1  0.01609000  0.70115000  0.63478000  1
  H  H58  1  0.57809000  0.84403000  0.83744000  1
  H  H59  1  0.39421000  0.62340000  0.75795000  1
  H  H60  1  0.26809000  0.58235000  0.83186000  1
  H  H61  1  0.44546000  0.80886000  0.90958000  1
  H  H62  1  0.33441000  0.39845000  0.81143000  1
  H  H63  1  0.22637000  0.43471000  0.88876000  1
  H  H64  1  0.07970000  0.16665000  0.78743000  1
  H  H65  1  0.97644000  0.20100000  0.86647000  1
  H  H66  1  0.41144000  0.34372000  0.66295000  1
  H  H67  1  0.59900000  0.12271000  0.74137000  1
  H  H68  1  0.72096000  0.08116000  0.66676000  1
  H  H69  1  0.54332000  0.30856000  0.59009000  1
  C  C70  1  0.04013000  0.33949000  0.06865000  1
  C  C71  1  0.21768000  0.27742000  0.20596000  1
  C  C72  1  0.49452000  0.23306000  0.29357000  1
  C  C73  1  0.09906000  0.31512000  0.11662000  1
  C  C74  1  0.25517000  0.35451000  0.17691000  1
  C  C75  1  0.19645000  0.37352000  0.13319000  1
  C  C76  1  0.11366000  0.22336000  0.19070000  1
  C  C77  1  0.05620000  0.24109000  0.14623000  1
  C  C78  1  0.48002000  0.28615000  0.33633000  1
  C  C79  1  0.58696000  0.16166000  0.29221000  1
  C  C80  1  0.65435000  0.13868000  0.33347000  1
  C  C81  1  0.63753000  0.19035000  0.37631000  1
  C  C82  1  0.71349000  0.16065000  0.41946000  1
  C  C83  1  0.55176000  0.26589000  0.37722000  1
  C  C84  1  0.95602000  0.84312000  0.43132000  1
  C  C85  1  0.77669000  0.77653000  0.29572000  1
  C  C86  1  0.50034000  0.73250000  0.20759000  1
  C  C87  1  0.89696000  0.81873000  0.38378000  1
  C  C88  1  0.73778000  0.85367000  0.32439000  1
  C  C89  1  0.79694000  0.87503000  0.36756000  1
  C  C90  1  0.88222000  0.72419000  0.31110000  1
  C  C91  1  0.94045000  0.74393000  0.35502000  1
  C  C92  1  0.50974000  0.78689000  0.16482000  1
  C  C93  1  0.40672000  0.66164000  0.21074000  1
  C  C94  1  0.33377000  0.64046000  0.17078000  1
  C  C95  1  0.34581000  0.69236000  0.12785000  1
  C  C96  1  0.25747000  0.66728000  0.08803000  1
  C  C97  1  0.43170000  0.76729000  0.12547000  1
  C  C98  1  0.03896000  0.16102000  0.43053000  1
  C  C99  1  0.21850000  0.22391000  0.29419000  1
  C  C100  1  0.49460000  0.26567000  0.20576000  1
  C  C101  1  0.09810000  0.18508000  0.38279000  1
  C  C102  1  0.25641000  0.14692000  0.32323000  1
  C  C103  1  0.19729000  0.12745000  0.36678000  1
  C  C104  1  0.11402000  0.27763000  0.30946000  1
  C  C105  1  0.05559000  0.25969000  0.35364000  1
  C  C106  1  0.48142000  0.21376000  0.16260000  1
  C  C107  1  0.58586000  0.33744000  0.20803000  1
  C  C108  1  0.65414000  0.36215000  0.16740000  1
  C  C109  1  0.63883000  0.31118000  0.12432000  1
  C  C110  1  0.71824000  0.34163000  0.08238000  1
  C  C111  1  0.55446000  0.23513000  0.12221000  1
  C  C112  1  0.95119000  0.66080000  0.06908000  1
  C  C113  1  0.77769000  0.72590000  0.20657000  1
  C  C114  1  0.50127000  0.76450000  0.29466000  1
  C  C115  1  0.89540000  0.68445000  0.11754000  1
  C  C116  1  0.74012000  0.64784000  0.17838000  1
  C  C117  1  0.79780000  0.62683000  0.13475000  1
  C  C118  1  0.88289000  0.77833000  0.19084000  1
  C  C119  1  0.93999000  0.75863000  0.14652000  1
  C  C120  1  0.51324000  0.71228000  0.33772000  1
  C  C121  1  0.40947000  0.83622000  0.29179000  1
  C  C122  1  0.34004000  0.86058000  0.33227000  1
  C  C123  1  0.35423000  0.81003000  0.37560000  1
  C  C124  1  0.27350000  0.84096000  0.41720000  1
  C  C125  1  0.43916000  0.73408000  0.37787000  1
  C  C126  1  0.95448000  0.66033000  0.93056000  1
  C  C127  1  0.77410000  0.72583000  0.79426000  1
  C  C128  1  0.49834000  0.76548000  0.70579000  1
  C  C129  1  0.89584000  0.68451000  0.88254000  1
  C  C130  1  0.73653000  0.64827000  0.82296000  1
  C  C131  1  0.79662000  0.62749000  0.86615000  1
  C  C132  1  0.87924000  0.77887000  0.80947000  1
  C  C133  1  0.93816000  0.75917000  0.85339000  1
  C  C134  1  0.51167000  0.71265000  0.66291000  1
  C  C135  1  0.40623000  0.83706000  0.70794000  1
  C  C136  1  0.33896000  0.86136000  0.66704000  1
  C  C137  1  0.35552000  0.81066000  0.62398000  1
  C  C138  1  0.27952000  0.84288000  0.58167000  1
  C  C139  1  0.43924000  0.73402000  0.62233000  1
  C  C140  1  0.04057000  0.16290000  0.56924000  1
  C  C141  1  0.21890000  0.22558000  0.70582000  1
  C  C142  1  0.49437000  0.26571000  0.79417000  1
  C  C143  1  0.09897000  0.18609000  0.61715000  1
  C  C144  1  0.25687000  0.14819000  0.67704000  1
  C  C145  1  0.19785000  0.12845000  0.63353000  1
  C  C146  1  0.11396000  0.27877000  0.69056000  1
  C  C147  1  0.05573000  0.26006000  0.64647000  1
  C  C148  1  0.48088000  0.21366000  0.83736000  1
  C  C149  1  0.58579000  0.33738000  0.79171000  1
  C  C150  1  0.65462000  0.36166000  0.83220000  1
  C  C151  1  0.63906000  0.31080000  0.87534000  1
  C  C152  1  0.71717000  0.34179000  0.91749000  1
  C  C153  1  0.55431000  0.23494000  0.87761000  1
  C  C154  1  0.95730000  0.84430000  0.57090000  1
  C  C155  1  0.77349000  0.77831000  0.70611000  1
  C  C156  1  0.49697000  0.73401000  0.79355000  1
  C  C157  1  0.89484000  0.81875000  0.61793000  1
  C  C158  1  0.73493000  0.85512000  0.67718000  1
  C  C159  1  0.79445000  0.87558000  0.63381000  1
  C  C160  1  0.87795000  0.72466000  0.69088000  1
  C  C161  1  0.93677000  0.74354000  0.64686000  1
  C  C162  1  0.51011000  0.78684000  0.83638000  1
  C  C163  1  0.40571000  0.66214000  0.79166000  1
  C  C164  1  0.33741000  0.63880000  0.83260000  1
  C  C165  1  0.35256000  0.69058000  0.87563000  1
  C  C166  1  0.27105000  0.66229000  0.91751000  1
  C  C167  1  0.43793000  0.76599000  0.87707000  1
  C  C168  1  0.03963000  0.34250000  0.93084000  1
  C  C169  1  0.21778000  0.27780000  0.79448000  1
  C  C170  1  0.49424000  0.23374000  0.70654000  1
  C  C171  1  0.09868000  0.31749000  0.88318000  1
  C  C172  1  0.25659000  0.35458000  0.82335000  1
  C  C173  1  0.19816000  0.37446000  0.86699000  1
  C  C174  1  0.11315000  0.22443000  0.80984000  1
  C  C175  1  0.05567000  0.24301000  0.85416000  1
  C  C176  1  0.47994000  0.28682000  0.66385000  1
  C  C177  1  0.58579000  0.16183000  0.70795000  1
  C  C178  1  0.65341000  0.13886000  0.66681000  1
  C  C179  1  0.63776000  0.19132000  0.62420000  1
  C  C180  1  0.71808000  0.16252000  0.58201000  1
  C  C181  1  0.55214000  0.26693000  0.62301000  1
  C  C182  1  0.28836000  0.25055000  0.24996000  1
  C  C183  1  0.41811000  0.24930000  0.24965000  1
  C  C184  1  0.70809000  0.75068000  0.25112000  1
  C  C185  1  0.57841000  0.74844000  0.25105000  1
  C  C186  1  0.70359000  0.75183000  0.75024000  1
  C  C187  1  0.57392000  0.75009000  0.74988000  1
  C  C188  1  0.28805000  0.25148000  0.75024000  1
  C  C189  1  0.41772000  0.25015000  0.75041000  1
  O  O190  1  0.96706000  0.27687000  0.05010000  1
  O  O191  1  0.06810000  0.41942000  0.05192000  1
  O  O192  1  0.72539000  0.22509000  0.45290000  1
  O  O193  1  0.76052000  0.08023000  0.42029000  1
  O  O194  1  0.02510000  0.77904000  0.45101000  1
  O  O195  1  0.92915000  0.92326000  0.44794000  1
  O  O196  1  0.26905000  0.71889000  0.04892000  1
  O  O197  1  0.18132000  0.60186000  0.09485000  1
  O  O198  1  0.96697000  0.22384000  0.44965000  1
  O  O199  1  0.06689000  0.08107000  0.44733000  1
  O  O200  1  0.72379000  0.28074000  0.04683000  1
  O  O201  1  0.77423000  0.41864000  0.08415000  1
  O  O202  1  0.02304000  0.72408000  0.05007000  1
  O  O203  1  0.91644000  0.58380000  0.05075000  1
  O  O204  1  0.26629000  0.78064000  0.45292000  1
  O  O205  1  0.21934000  0.91903000  0.41491000  1
  O  O206  1  0.02681000  0.72316000  0.94945000  1
  O  O207  1  0.92334000  0.58101000  0.94744000  1
  O  O208  1  0.26766000  0.78041000  0.54720000  1
  O  O209  1  0.23245000  0.92321000  0.58260000  1
  O  O210  1  0.96716000  0.22527000  0.55052000  1
  O  O211  1  0.07337000  0.08463000  0.55172000  1
  O  O212  1  0.72290000  0.28079000  0.95297000  1
  O  O213  1  0.77227000  0.41933000  0.91596000  1
  O  O214  1  0.02615000  0.78021000  0.55096000  1
  O  O215  1  0.93347000  0.92610000  0.55548000  1
  O  O216  1  0.27060000  0.71934000  0.95487000  1
  O  O217  1  0.20856000  0.58849000  0.91370000  1
  O  O218  1  0.96617000  0.28085000  0.94989000  1
  O  O219  1  0.06880000  0.42217000  0.94752000  1
  O  O220  1  0.72533000  0.22448000  0.54707000  1
  O  O221  1  0.77493000  0.08536000  0.58301000  1
  O  O222  1  0.85027000  0.43265000  0.00002000  1
  O  O223  1  0.14340000  0.93346000  0.49998000  1
  O  O224  1  0.85289000  0.07141000  0.50078000  1
  O  O225  1  0.13970000  0.56893000  0.00132000  1
