# generated using pymatgen
data_ZnH10C12(NO)4
_symmetry_space_group_name_H-M   'P 1'
_cell_length_a   17.16410000
_cell_length_b   17.18521657
_cell_length_c   17.30260000
_cell_angle_alpha   115.42475147
_cell_angle_beta   115.42928000
_cell_angle_gamma   97.74508110
_symmetry_Int_Tables_number   1
_chemical_formula_structural   ZnH10C12(NO)4
_chemical_formula_sum   'Zn8 H80 C96 N32 O32'
_cell_volume   3831.01917050
_cell_formula_units_Z   8
loop_
 _symmetry_equiv_pos_site_id
 _symmetry_equiv_pos_as_xyz
  1  'x, y, z'
loop_
 _atom_site_type_symbol
 _atom_site_label
 _atom_site_symmetry_multiplicity
 _atom_site_fract_x
 _atom_site_fract_y
 _atom_site_fract_z
 _atom_site_occupancy
  Zn  Zn0  1  0.84696000  0.46485000  0.06231000  1
  Zn  Zn1  1  0.59752000  0.71536000  0.56235000  1
  Zn  Zn2  1  0.40247000  0.28464000  0.43764000  1
  Zn  Zn3  1  0.15303000  0.53515000  0.93769000  1
  Zn  Zn4  1  0.96474000  0.90275000  0.11778000  1
  Zn  Zn5  1  0.21497000  0.65279000  0.61752000  1
  Zn  Zn6  1  0.78502000  0.34721000  0.38248000  1
  Zn  Zn7  1  0.03525000  0.09725000  0.88222000  1
  H  H8  1  0.97261000  0.64325000  0.08734000  1
  H  H9  1  0.68784000  0.46325000  0.87555000  1
  H  H10  1  0.63888000  0.53902000  0.75486000  1
  H  H11  1  0.80678000  0.69861000  0.82061000  1
  H  H12  1  0.88186000  0.35390000  0.88355000  1
  H  H13  1  0.71223000  0.24993000  0.96406000  1
  H  H14  1  0.67023000  0.05537000  0.84020000  1
  H  H15  1  0.74670000  0.01960000  0.70127000  1
  H  H16  1  0.90733000  0.69790000  0.96673000  1
  H  H17  1  0.83784000  0.17651000  0.79084000  1
  H  H18  1  0.44437000  0.61414000  0.58704000  1
  H  H19  1  0.41233000  0.68853000  0.37632000  1
  H  H20  1  0.21564000  0.61715000  0.25611000  1
  H  H21  1  0.12184000  0.51215000  0.31958000  1
  H  H22  1  0.53074000  0.50194000  0.38447000  1
  H  H23  1  0.71432000  0.75188000  0.46396000  1
  H  H24  1  0.78549000  0.66996000  0.34017000  1
  H  H25  1  0.68186000  0.45475000  0.20171000  1
  H  H26  1  0.26892000  0.55911000  0.46683000  1
  H  H27  1  0.61517000  0.45331000  0.29126000  1
  H  H28  1  0.55562000  0.38586000  0.41296000  1
  H  H29  1  0.58766000  0.31147000  0.62368000  1
  H  H30  1  0.78434000  0.38284000  0.74387000  1
  H  H31  1  0.87815000  0.48785000  0.68042000  1
  H  H32  1  0.46925000  0.49806000  0.61553000  1
  H  H33  1  0.28567000  0.24812000  0.53603000  1
  H  H34  1  0.21450000  0.33004000  0.65982000  1
  H  H35  1  0.31813000  0.54525000  0.79829000  1
  H  H36  1  0.73107000  0.44089000  0.53316000  1
  H  H37  1  0.38482000  0.54669000  0.70873000  1
  H  H38  1  0.02738000  0.35675000  0.91265000  1
  H  H39  1  0.31215000  0.53675000  0.12444000  1
  H  H40  1  0.36111000  0.46098000  0.24513000  1
  H  H41  1  0.19321000  0.30139000  0.17939000  1
  H  H42  1  0.11813000  0.64610000  0.11645000  1
  H  H43  1  0.28776000  0.75007000  0.03594000  1
  H  H44  1  0.32976000  0.94463000  0.15980000  1
  H  H45  1  0.25329000  0.98040000  0.29873000  1
  H  H46  1  0.09266000  0.30210000  0.03326000  1
  H  H47  1  0.16215000  0.82349000  0.20916000  1
  H  H48  1  0.14201000  0.05530000  0.16823000  1
  H  H49  1  0.96300000  0.08799000  0.27562000  1
  H  H50  1  0.03970000  0.28429000  0.40168000  1
  H  H51  1  0.19795000  0.37725000  0.39083000  1
  H  H52  1  0.85369000  0.97032000  0.97096000  1
  H  H53  1  0.74961000  0.78701000  0.03773000  1
  H  H54  1  0.55529000  0.71609000  0.88535000  1
  H  H55  1  0.51918000  0.81830000  0.77182000  1
  H  H56  1  0.19744000  0.23054000  0.28933000  1
  H  H57  1  0.67634000  0.88542000  0.83784000  1
  H  H58  1  0.11363000  0.52664000  0.66884000  1
  H  H59  1  0.18727000  0.81252000  0.77507000  1
  H  H60  1  0.11575000  0.86166000  0.90043000  1
  H  H61  1  0.01474000  0.69327000  0.89242000  1
  H  H62  1  0.00073000  0.61665000  0.47010000  1
  H  H63  1  0.25105000  0.78856000  0.53806000  1
  H  H64  1  0.16966000  0.83006000  0.38540000  1
  H  H65  1  0.95378000  0.75267000  0.27212000  1
  H  H66  1  0.05922000  0.59229000  0.78983000  1
  H  H67  1  0.95264000  0.66137000  0.33757000  1
  H  H68  1  0.88636000  0.47336000  0.33116000  1
  H  H69  1  0.81272000  0.18748000  0.22493000  1
  H  H70  1  0.88424000  0.13834000  0.09956000  1
  H  H71  1  0.98525000  0.30673000  0.10758000  1
  H  H72  1  0.99926000  0.38335000  0.52989000  1
  H  H73  1  0.74894000  0.21144000  0.46193000  1
  H  H74  1  0.83033000  0.16994000  0.61459000  1
  H  H75  1  0.04620000  0.24732000  0.72787000  1
  H  H76  1  0.94077000  0.40771000  0.21017000  1
  H  H77  1  0.04735000  0.33863000  0.66242000  1
  H  H78  1  0.85798000  0.94470000  0.83177000  1
  H  H79  1  0.03698000  0.91200000  0.72436000  1
  H  H80  1  0.96029000  0.71571000  0.59831000  1
  H  H81  1  0.80204000  0.62275000  0.60916000  1
  H  H82  1  0.14630000  0.02968000  0.02903000  1
  H  H83  1  0.25038000  0.21299000  0.96226000  1
  H  H84  1  0.44470000  0.28391000  0.11464000  1
  H  H85  1  0.48080000  0.18169000  0.22816000  1
  H  H86  1  0.80255000  0.76946000  0.71067000  1
  H  H87  1  0.32363000  0.11457000  0.16215000  1
  C  C88  1  0.90122000  0.61163000  0.02307000  1
  C  C89  1  0.75350000  0.51945000  0.91223000  1
  C  C90  1  0.77286000  0.58163000  0.88546000  1
  C  C91  1  0.71188000  0.58791000  0.80236000  1
  C  C92  1  0.73548000  0.64763000  0.77731000  1
  C  C93  1  0.66352000  0.64715000  0.69047000  1
  C  C94  1  0.83807000  0.30575000  0.88766000  1
  C  C95  1  0.74925000  0.24906000  0.92654000  1
  C  C96  1  0.75388000  0.17327000  0.85624000  1
  C  C97  1  0.70934000  0.07464000  0.81097000  1
  C  C98  1  0.71002000  0.00519000  0.73468000  1
  C  C99  1  0.65941000  0.90524000  0.68996000  1
  C  C100  1  0.41157000  0.62156000  0.52303000  1
  C  C101  1  0.39287000  0.65918000  0.41276000  1
  C  C102  1  0.30386000  0.61280000  0.38587000  1
  C  C103  1  0.21438000  0.59079000  0.30295000  1
  C  C104  1  0.12955000  0.54132000  0.27724000  1
  C  C105  1  0.04316000  0.52723000  0.19101000  1
  C  C106  1  0.58289000  0.54977000  0.38834000  1
  C  C107  1  0.67797000  0.67740000  0.42666000  1
  C  C108  1  0.68360000  0.60256000  0.35642000  1
  C  C109  1  0.73695000  0.60174000  0.31102000  1
  C  C110  1  0.72992000  0.52457000  0.23481000  1
  C  C111  1  0.78487000  0.52958000  0.18955000  1
  C  C112  1  0.58842000  0.37844000  0.47697000  1
  C  C113  1  0.60711000  0.34081000  0.58722000  1
  C  C114  1  0.69613000  0.38720000  0.61413000  1
  C  C115  1  0.78561000  0.40921000  0.69705000  1
  C  C116  1  0.87044000  0.45868000  0.72275000  1
  C  C117  1  0.95683000  0.47277000  0.80899000  1
  C  C118  1  0.41710000  0.45023000  0.61166000  1
  C  C119  1  0.32202000  0.32260000  0.57333000  1
  C  C120  1  0.31639000  0.39744000  0.64358000  1
  C  C121  1  0.26304000  0.39826000  0.68897000  1
  C  C122  1  0.27007000  0.47543000  0.76518000  1
  C  C123  1  0.21512000  0.47042000  0.81045000  1
  C  C124  1  0.09876000  0.38836000  0.97691000  1
  C  C125  1  0.24649000  0.48055000  0.08776000  1
  C  C126  1  0.22713000  0.41837000  0.11454000  1
  C  C127  1  0.28811000  0.41209000  0.19763000  1
  C  C128  1  0.26450000  0.35236000  0.22268000  1
  C  C129  1  0.33647000  0.35285000  0.30953000  1
  C  C130  1  0.16192000  0.69425000  0.11233000  1
  C  C131  1  0.25074000  0.75094000  0.07345000  1
  C  C132  1  0.24611000  0.82673000  0.14375000  1
  C  C133  1  0.29065000  0.92536000  0.18902000  1
  C  C134  1  0.28997000  0.99481000  0.26531000  1
  C  C135  1  0.34058000  0.09476000  0.31003000  1
  C  C136  1  0.11072000  0.08820000  0.20869000  1
  C  C137  1  0.01905000  0.10726000  0.26564000  1
  C  C138  1  0.08130000  0.19603000  0.30842000  1
  C  C139  1  0.08799000  0.28549000  0.37654000  1
  C  C140  1  0.14768000  0.37010000  0.41237000  1
  C  C141  1  0.14827000  0.45684000  0.48496000  1
  C  C142  1  0.80546000  0.91820000  0.96674000  1
  C  C143  1  0.74869000  0.82331000  0.99954000  1
  C  C144  1  0.67302000  0.81748000  0.91891000  1
  C  C145  1  0.57447000  0.76418000  0.86503000  1
  C  C146  1  0.50494000  0.77071000  0.79446000  1
  C  C147  1  0.40503000  0.71526000  0.74501000  1
  C  C148  1  0.12083000  0.59828000  0.70902000  1
  C  C149  1  0.15808000  0.74662000  0.76530000  1
  C  C150  1  0.11226000  0.72727000  0.80835000  1
  C  C151  1  0.09052000  0.78847000  0.87622000  1
  C  C152  1  0.04246000  0.76474000  0.91279000  1
  C  C153  1  0.02791000  0.83668000  0.98494000  1
  C  C154  1  0.04870000  0.66105000  0.46635000  1
  C  C155  1  0.17651000  0.75105000  0.49970000  1
  C  C156  1  0.10172000  0.74613000  0.41911000  1
  C  C157  1  0.10118000  0.79070000  0.36520000  1
  C  C158  1  0.02400000  0.78954000  0.29458000  1
  C  C159  1  0.02989000  0.83991000  0.24506000  1
  C  C160  1  0.87916000  0.40172000  0.29098000  1
  C  C161  1  0.84191000  0.25338000  0.23470000  1
  C  C162  1  0.88773000  0.27273000  0.19165000  1
  C  C163  1  0.90947000  0.21153000  0.12377000  1
  C  C164  1  0.95753000  0.23526000  0.08721000  1
  C  C165  1  0.97208000  0.16332000  0.01505000  1
  C  C166  1  0.95129000  0.33895000  0.53364000  1
  C  C167  1  0.82348000  0.24895000  0.50030000  1
  C  C168  1  0.89826000  0.25387000  0.58088000  1
  C  C169  1  0.89881000  0.20930000  0.63480000  1
  C  C170  1  0.97599000  0.21046000  0.70542000  1
  C  C171  1  0.97010000  0.16009000  0.75493000  1
  C  C172  1  0.88927000  0.91180000  0.79130000  1
  C  C173  1  0.98094000  0.89274000  0.73436000  1
  C  C174  1  0.91869000  0.80397000  0.69157000  1
  C  C175  1  0.91200000  0.71451000  0.62346000  1
  C  C176  1  0.85230000  0.62989000  0.58762000  1
  C  C177  1  0.85172000  0.54316000  0.51504000  1
  C  C178  1  0.19452000  0.08179000  0.03325000  1
  C  C179  1  0.25130000  0.17669000  0.00046000  1
  C  C180  1  0.32697000  0.18252000  0.08108000  1
  C  C181  1  0.42552000  0.23582000  0.13497000  1
  C  C182  1  0.49505000  0.22929000  0.20553000  1
  C  C183  1  0.59496000  0.28474000  0.25499000  1
  N  N184  1  0.83379000  0.53863000  0.99743000  1
  N  N185  1  0.86745000  0.63880000  0.95741000  1
  N  N186  1  0.80144000  0.33060000  0.94509000  1
  N  N187  1  0.81054000  0.21194000  0.83307000  1
  N  N188  1  0.45893000  0.66374000  0.49767000  1
  N  N189  1  0.31868000  0.58971000  0.45746000  1
  N  N190  1  0.61516000  0.64373000  0.44548000  1
  N  N191  1  0.62206000  0.52277000  0.33358000  1
  N  N192  1  0.54106000  0.33626000  0.50232000  1
  N  N193  1  0.68131000  0.41029000  0.54253000  1
  N  N194  1  0.38483000  0.35627000  0.55451000  1
  N  N195  1  0.37793000  0.47723000  0.66641000  1
  N  N196  1  0.16620000  0.46137000  0.00256000  1
  N  N197  1  0.13254000  0.36120000  0.04258000  1
  N  N198  1  0.19855000  0.66940000  0.05490000  1
  N  N199  1  0.18945000  0.78806000  0.16693000  1
  N  N200  1  0.03786000  0.04111000  0.20366000  1
  N  N201  1  0.13811000  0.18100000  0.27004000  1
  N  N202  1  0.83017000  0.88617000  0.02865000  1
  N  N203  1  0.71168000  0.87877000  0.90036000  1
  N  N204  1  0.16254000  0.66592000  0.70359000  1
  N  N205  1  0.08939000  0.63229000  0.77045000  1
  N  N206  1  0.14269000  0.69832000  0.52841000  1
  N  N207  1  0.02178000  0.68873000  0.40028000  1
  N  N208  1  0.83745000  0.33408000  0.29641000  1
  N  N209  1  0.91060000  0.36771000  0.22955000  1
  N  N210  1  0.85730000  0.30168000  0.47159000  1
  N  N211  1  0.97821000  0.31127000  0.59971000  1
  N  N212  1  0.96213000  0.95889000  0.79633000  1
  N  N213  1  0.86187000  0.81899000  0.72994000  1
  N  N214  1  0.16982000  0.11383000  0.97134000  1
  N  N215  1  0.28831000  0.12123000  0.09963000  1
  O  O216  1  0.69528000  0.70717000  0.67211000  1
  O  O217  1  0.57906000  0.59445000  0.63863000  1
  O  O218  1  0.65529000  0.84733000  0.60806000  1
  O  O219  1  0.62313000  0.87873000  0.72922000  1
  O  O220  1  0.96467000  0.47670000  0.17214000  1
  O  O221  1  0.04414000  0.56083000  0.14004000  1
  O  O222  1  0.76049000  0.45148000  0.10782000  1
  O  O223  1  0.85081000  0.60466000  0.22805000  1
  O  O224  1  0.03531000  0.52329000  0.82785000  1
  O  O225  1  0.95585000  0.43917000  0.85995000  1
  O  O226  1  0.23950000  0.54852000  0.89217000  1
  O  O227  1  0.14918000  0.39534000  0.77194000  1
  O  O228  1  0.30470000  0.29282000  0.32788000  1
  O  O229  1  0.42093000  0.40555000  0.36137000  1
  O  O230  1  0.34470000  0.15267000  0.39194000  1
  O  O231  1  0.37686000  0.12127000  0.27077000  1
  O  O232  1  0.20762000  0.53497000  0.51218000  1
  O  O233  1  0.09705000  0.45656000  0.51877000  1
  O  O234  1  0.34670000  0.73885000  0.69033000  1
  O  O235  1  0.37887000  0.64967000  0.75534000  1
  O  O236  1  0.97680000  0.80460000  0.01204000  1
  O  O237  1  0.06175000  0.92160000  0.01842000  1
  O  O238  1  0.95171000  0.84400000  0.19077000  1
  O  O239  1  0.10582000  0.87606000  0.25510000  1
  O  O240  1  0.02319000  0.19540000  0.98795000  1
  O  O241  1  0.93824000  0.07840000  0.98158000  1
  O  O242  1  0.04828000  0.15600000  0.80922000  1
  O  O243  1  0.89417000  0.12394000  0.74490000  1
  O  O244  1  0.79237000  0.46503000  0.48782000  1
  O  O245  1  0.90294000  0.54344000  0.48122000  1
  O  O246  1  0.65329000  0.26115000  0.30967000  1
  O  O247  1  0.62112000  0.35033000  0.24466000  1
