# generated using pymatgen
data_H6C9N2O
_symmetry_space_group_name_H-M   'P 1'
_cell_length_a   9.85166667
_cell_length_b   39.31865000
_cell_length_c   39.31870000
_cell_angle_alpha   120.00012620
_cell_angle_beta   90.00000000
_cell_angle_gamma   90.00000000
_symmetry_Int_Tables_number   1
_chemical_formula_structural   H6C9N2O
_chemical_formula_sum   'H108 C162 N36 O18'
_cell_volume   13189.77954027
_cell_formula_units_Z   18
loop_
 _symmetry_equiv_pos_site_id
 _symmetry_equiv_pos_as_xyz
  1  'x, y, z'
loop_
 _atom_site_type_symbol
 _atom_site_label
 _atom_site_symmetry_multiplicity
 _atom_site_fract_x
 _atom_site_fract_y
 _atom_site_fract_z
 _atom_site_occupancy
  C  1  1  0.97685300  0.85422100  0.36754000  1
  C  2  1  0.97683200  0.89317000  0.37484200  1
  C  3  1  0.97618800  0.90132800  0.34367700  1
  C  4  1  0.97590900  0.86961800  0.30452800  1
  C  5  1  0.97564400  0.83028700  0.29665300  1
  C  6  1  0.97613100  0.82292400  0.32839600  1
  C  10  1  0.97685700  0.47578400  0.13073800  1
  C  11  1  0.97685200  0.44414300  0.09178700  1
  C  12  1  0.97620400  0.40482000  0.08362000  1
  C  13  1  0.97591900  0.39737100  0.11532400  1
  C  14  1  0.97565400  0.42882200  0.15465800  1
  C  15  1  0.97612100  0.46793200  0.16203000  1
  C  19  1  0.97696300  0.61740600  0.50915800  1
  C  20  1  0.97683600  0.61009600  0.54079800  1
  C  21  1  0.97620300  0.64125600  0.58012200  1
  C  22  1  0.97588900  0.68040800  0.58756900  1
  C  23  1  0.97573700  0.68828900  0.55611800  1
  C  24  1  0.97627800  0.65655200  0.51700900  1
  C  28  1  0.97685300  0.11071100  0.63742400  1
  C  29  1  0.97681300  0.07175400  0.63009600  1
  C  30  1  0.97616300  0.06357300  0.66124500  1
  C  31  1  0.97588800  0.09526800  0.70040200  1
  C  32  1  0.97565000  0.13460500  0.70829800  1
  C  33  1  0.97614100  0.14199400  0.67657500  1
  C  37  1  0.97692900  0.48914700  0.87423700  1
  C  38  1  0.97682300  0.52078600  0.91319200  1
  C  39  1  0.97616700  0.56011400  0.92136400  1
  C  40  1  0.97591900  0.56756400  0.88966100  1
  C  41  1  0.97572000  0.53611500  0.85032300  1
  C  42  1  0.97623200  0.49700500  0.84294500  1
  C  46  1  0.97689800  0.34753200  0.49580400  1
  C  47  1  0.97685700  0.35483800  0.46415900  1
  C  48  1  0.97617300  0.32367500  0.42483600  1
  C  49  1  0.97590300  0.28452400  0.41739300  1
  C  50  1  0.97566300  0.27664700  0.44884700  1
  C  51  1  0.97616200  0.30838600  0.48795400  1
  C  55  1  0.97779500  0.48957700  0.63702000  1
  C  56  1  0.97713800  0.52145500  0.63005000  1
  C  57  1  0.97680200  0.56065200  0.66143700  1
  C  58  1  0.97698500  0.56779100  0.70046900  1
  C  59  1  0.97715700  0.53613000  0.70804900  1
  C  60  1  0.97761200  0.49714100  0.67607500  1
  C  64  1  0.97771300  0.34791200  0.87503100  1
  C  65  1  0.97711700  0.35488800  0.91387900  1
  C  66  1  0.97681200  0.32350400  0.92169300  1
  C  67  1  0.97701500  0.28447000  0.88980400  1
  C  68  1  0.97709100  0.27688500  0.85056000  1
  C  69  1  0.97750000  0.30885700  0.84354400  1
  C  73  1  0.97770300  0.10988900  0.49537600  1
  C  74  1  0.97708200  0.07104100  0.46350000  1
  C  75  1  0.97677200  0.06322700  0.42430300  1
  C  76  1  0.97699400  0.09512000  0.41716100  1
  C  77  1  0.97709500  0.13436200  0.44882300  1
  C  78  1  0.97752400  0.14137700  0.48781100  1
  C  82  1  0.97778500  0.47536700  0.36793200  1
  C  83  1  0.97711600  0.44349300  0.37490900  1
  C  84  1  0.97679200  0.40429700  0.34352700  1
  C  85  1  0.97698500  0.39715200  0.30449200  1
  C  86  1  0.97714200  0.42880700  0.29690600  1
  C  87  1  0.97760200  0.46779800  0.32887800  1
  C  91  1  0.97776700  0.61700800  0.12988600  1
  C  92  1  0.97718200  0.61004600  0.09104000  1
  C  93  1  0.97685700  0.64143500  0.08323700  1
  C  94  1  0.97702500  0.68046700  0.11513600  1
  C  95  1  0.97711700  0.68803900  0.15437500  1
  C  96  1  0.97751400  0.65605800  0.16138000  1
  C  100  1  0.97769700  0.85503400  0.50959400  1
  C  101  1  0.97709500  0.89388600  0.54146500  1
  C  102  1  0.97681100  0.90170700  0.58066300  1
  C  103  1  0.97704600  0.86982200  0.58781300  1
  C  104  1  0.97712600  0.83057800  0.55616100  1
  C  105  1  0.97749600  0.82355200  0.51716800  1
  C  109  1  0.10139600  0.74561900  0.20595800  1
  C  110  1  0.97876500  0.72689700  0.18701000  1
  C  111  1  0.85620200  0.74558800  0.20564000  1
  C  113  1  0.97612200  0.79810100  0.25792100  1
  C  117  1  0.34734400  0.74594600  0.20839700  1
  C  121  1  0.10145700  0.42280200  0.23931900  1
  C  122  1  0.97885000  0.42256500  0.25804200  1
  C  123  1  0.85626300  0.42249500  0.23935600  1
  C  125  1  0.97615100  0.42226700  0.18683900  1
  C  129  1  0.34740500  0.42492700  0.23898600  1
  C  133  1  0.10145300  0.77899300  0.56216600  1
  C  134  1  0.97885300  0.79797600  0.56243000  1
  C  135  1  0.85630500  0.77928800  0.56240500  1
  C  137  1  0.97620200  0.72702400  0.56266800  1
  C  141  1  0.34740000  0.77654600  0.56003300  1
  C  145  1  0.10141100  0.21929800  0.79898800  1
  C  146  1  0.97881000  0.23802100  0.81794300  1
  C  147  1  0.85623400  0.21933000  0.79932800  1
  C  149  1  0.97613100  0.16677400  0.74703400  1
  C  153  1  0.34735400  0.21896600  0.79651800  1
  C  157  1  0.10143700  0.54212700  0.76564600  1
  C  158  1  0.97886000  0.54239400  0.74692000  1
  C  159  1  0.85630400  0.54238700  0.76558400  1
  C  161  1  0.97613300  0.54266900  0.81814300  1
  C  165  1  0.34738500  0.54001300  0.76598900  1
  C  169  1  0.10142600  0.18594800  0.44283300  1
  C  170  1  0.97882000  0.16698500  0.44258400  1
  C  171  1  0.85624800  0.18560600  0.44251500  1
  C  173  1  0.97614600  0.23791800  0.44229400  1
  C  177  1  0.34737000  0.18840000  0.44494000  1
  C  181  1  0.85253800  0.84838300  0.45209000  1
  C  182  1  0.97561300  0.84852300  0.47077000  1
  C  183  1  0.09809900  0.84835500  0.45202700  1
  C  185  1  0.97722700  0.84759100  0.39952800  1
  C  189  1  0.60666000  0.85128800  0.45238700  1
  C  193  1  0.85253800  0.56617600  0.13655600  1
  C  194  1  0.97563000  0.58468700  0.13638100  1
  C  195  1  0.09811700  0.56613200  0.13658600  1
  C  197  1  0.97717700  0.51440000  0.13736900  1
  C  201  1  0.60666100  0.56356800  0.13363700  1
  C  205  1  0.85260100  0.53286800  0.41877500  1
  C  206  1  0.97569600  0.51418900  0.40024300  1
  C  207  1  0.09817900  0.53293100  0.41882400  1
  C  209  1  0.97726800  0.58542100  0.47053200  1
  C  213  1  0.60672300  0.53254900  0.42138100  1
  C  217  1  0.85258400  0.11652100  0.55286100  1
  C  218  1  0.97568000  0.11639400  0.53419400  1
  C  219  1  0.09815800  0.11662700  0.55297000  1
  C  221  1  0.97724300  0.11736400  0.60545000  1
  C  225  1  0.60669600  0.11361800  0.55256600  1
  C  229  1  0.85254800  0.39876000  0.86837700  1
  C  230  1  0.97563400  0.38022500  0.86852200  1
  C  231  1  0.09812300  0.39880800  0.86836900  1
  C  233  1  0.97722600  0.45052100  0.86759300  1
  C  237  1  0.60666600  0.40137000  0.87130100  1
  C  241  1  0.85256800  0.43208600  0.58618500  1
  C  242  1  0.97568900  0.45076100  0.60468900  1
  C  243  1  0.09818400  0.43199200  0.58615600  1
  C  245  1  0.97721800  0.37952000  0.53442900  1
  C  249  1  0.60669100  0.43241100  0.58358700  1
  C  253  1  0.10142600  0.96307900  0.36441300  1
  C  254  1  0.97869800  0.94133800  0.35334700  1
  C  255  1  0.85642600  0.96306700  0.36371900  1
  C  257  1  0.97686300  0.02356800  0.39395400  1
  C  261  1  0.34725500  0.96461200  0.36805700  1
  C  265  1  0.10147700  0.36382400  0.02190200  1
  C  266  1  0.97871400  0.37449100  0.04359700  1
  C  267  1  0.85638600  0.36305500  0.02192300  1
  C  269  1  0.97690200  0.33282900  0.96134300  1
  C  273  1  0.34729400  0.36591900  0.02032600  1
  C  277  1  0.10126600  0.62043400  0.62102800  1
  C  278  1  0.97845800  0.63156200  0.61045100  1
  C  279  1  0.85622300  0.62138000  0.62198000  1
  C  281  1  0.97672100  0.59099000  0.65212200  1
  C  285  1  0.34709600  0.61687900  0.61900900  1
  C  289  1  0.10147200  0.00185700  0.64052000  1
  C  290  1  0.97867200  0.02354200  0.65153300  1
  C  291  1  0.85632500  0.00186900  0.64128100  1
  C  293  1  0.97688300  0.94136700  0.61100700  1
  C  297  1  0.34730500  0.00031500  0.63687000  1
  C  301  1  0.10141200  0.60109300  0.98306200  1
  C  302  1  0.97853600  0.59043400  0.96139600  1
  C  303  1  0.85626900  0.60190100  0.98309700  1
  C  305  1  0.97692000  0.63212800  0.04357600  1
  C  309  1  0.34723300  0.59898900  0.98455500  1
  C  313  1  0.10134700  0.34448400  0.38387900  1
  C  314  1  0.97868400  0.33333333  0.39448733  1
  C  315  1  0.85638500  0.34360000  0.38304900  1
  C  317  1  0.97671600  0.37396100  0.35284700  1
  C  321  1  0.34719300  0.34811700  0.38591700  1
  H  7  1  0.97630500  0.87522000  0.28174000  1
  H  8  1  0.97622700  0.79457900  0.32302800  1
  H  9  1  0.97762200  0.91596200  0.40332000  1
  H  16  1  0.97634000  0.36897900  0.10971600  1
  H  17  1  0.97620800  0.49090300  0.19037500  1
  H  18  1  0.97763200  0.44983400  0.06899700  1
  H  25  1  0.97622700  0.70319200  0.61596200  1
  H  26  1  0.97641600  0.66192400  0.49403600  1
  H  27  1  0.97756100  0.58161800  0.53510600  1
  H  34  1  0.97628900  0.08964400  0.72317700  1
  H  35  1  0.97625300  0.17034200  0.68195700  1
  H  36  1  0.97761200  0.04897400  0.60161300  1
  H  43  1  0.97626800  0.59595900  0.89527500  1
  H  44  1  0.97633500  0.47403500  0.81460100  1
  H  45  1  0.97756100  0.51508900  0.93597600  1
  H  52  1  0.97628400  0.26173800  0.38900300  1
  H  53  1  0.97625400  0.30301700  0.51092900  1
  H  54  1  0.97763900  0.38331400  0.46984500  1
  H  61  1  0.97717200  0.59609800  0.72341500  1
  H  62  1  0.97772700  0.47402300  0.68121700  1
  H  63  1  0.97667800  0.51597500  0.60164400  1
  H  70  1  0.97726900  0.26152200  0.89516600  1
  H  71  1  0.97758100  0.30371200  0.81528000  1
  H  72  1  0.97670000  0.38329600  0.93680200  1
  H  79  1  0.97724300  0.08976300  0.38885600  1
  H  80  1  0.97763200  0.16963900  0.51093000  1
  H  81  1  0.97666900  0.04811600  0.46898200  1
  H  88  1  0.97718800  0.36884300  0.28154500  1
  H  89  1  0.97771300  0.49091500  0.32373100  1
  H  90  1  0.97666100  0.44898100  0.40331800  1
  H  97  1  0.97725900  0.70342000  0.10978400  1
  H  98  1  0.97756800  0.66119300  0.18963900  1
  H  99  1  0.97676100  0.58164000  0.06811100  1
  H  106  1  0.97731900  0.87518800  0.61612400  1
  H  107  1  0.97758100  0.79528700  0.49405400  1
  H  108  1  0.97666100  0.91680800  0.53597700  1
  H  116  1  0.76457900  0.73264900  0.19429500  1
  H  118  1  0.35765700  0.77432200  0.20989600  1
  H  119  1  0.43137600  0.72723700  0.19112400  1
  H  120  1  0.35327200  0.74994100  0.23791800  1
  H  128  1  0.76464400  0.42415400  0.25232100  1
  H  130  1  0.35775100  0.39809000  0.21057500  1
  H  131  1  0.43145300  0.42632400  0.25767500  1
  H  132  1  0.35326400  0.45049700  0.23506500  1
  H  140  1  0.76468000  0.79061900  0.56079100  1
  H  142  1  0.35775500  0.77501900  0.58689600  1
  H  143  1  0.43143100  0.79382500  0.55860800  1
  H  144  1  0.35329800  0.74703600  0.53449100  1
  H  152  1  0.76460500  0.23229700  0.81062400  1
  H  154  1  0.35771900  0.19056200  0.79495600  1
  H  155  1  0.43141100  0.23765900  0.81379800  1
  H  156  1  0.35318700  0.21503400  0.76702100  1
  H  164  1  0.76468500  0.54077600  0.75263700  1
  H  166  1  0.35768400  0.56689700  0.79436300  1
  H  167  1  0.43143200  0.53857200  0.74728300  1
  H  168  1  0.35329300  0.51449300  0.76999300  1
  H  176  1  0.76461900  0.17430300  0.44417300  1
  H  178  1  0.35768400  0.18994600  0.41808600  1
  H  179  1  0.43142300  0.17111700  0.44634700  1
  H  180  1  0.35326300  0.21790200  0.47049400  1
  H  188  1  0.18983800  0.85013500  0.46499000  1
  H  190  1  0.60183100  0.87720300  0.44901600  1
  H  191  1  0.52289900  0.85267000  0.47115200  1
  H  192  1  0.59483600  0.82479100  0.42376700  1
  H  200  1  0.18986400  0.57726100  0.13472800  1
  H  202  1  0.60190100  0.53431800  0.10767000  1
  H  203  1  0.52290800  0.58097500  0.13229600  1
  H  204  1  0.59477600  0.56135600  0.16008200  1
  H  212  1  0.18991900  0.51996800  0.40764600  1
  H  214  1  0.60192000  0.53589900  0.45065700  1
  H  215  1  0.52297900  0.51378100  0.40399100  1
  H  216  1  0.59485700  0.56117800  0.42352400  1
  H  224  1  0.18990100  0.11479700  0.53999200  1
  H  226  1  0.60189200  0.08768100  0.55589700  1
  H  227  1  0.52294000  0.11225800  0.53380800  1
  H  228  1  0.59485700  0.14009200  0.58120400  1
  H  236  1  0.18985900  0.38763000  0.87015700  1
  H  238  1  0.60186600  0.43064500  0.89722500  1
  H  239  1  0.52291900  0.38397800  0.87267500  1
  H  240  1  0.59481000  0.40351500  0.84481500  1
  H  248  1  0.18993000  0.44497400  0.59729700  1
  H  250  1  0.60191700  0.42912300  0.55433500  1
  H  251  1  0.52294900  0.45116300  0.60099600  1
  H  252  1  0.59479700  0.40375400  0.58137900  1
  H  260  1  0.76475600  0.94924300  0.35918100  1
  H  262  1  0.35880400  0.98070500  0.35224800  1
  H  263  1  0.43098600  0.94384700  0.35991700  1
  H  264  1  0.35243600  0.98501400  0.39965400  1
  H  272  1  0.76469600  0.37241700  0.03571100  1
  H  274  1  0.35885400  0.33401600  0.00414400  1
  H  275  1  0.43108500  0.37849200  0.04107500  1
  H  276  1  0.35236000  0.37720600  0.99999900  1
  H  284  1  0.76452400  0.62599900  0.61277600  1
  H  286  1  0.35843000  0.63289300  0.65091600  1
  H  287  1  0.43082800  0.62493000  0.60630900  1
  H  288  1  0.35250100  0.58532300  0.60803500  1
  H  296  1  0.76465400  0.01566500  0.64570600  1
  H  298  1  0.35889700  0.98411900  0.65257300  1
  H  299  1  0.43105600  0.02108300  0.64506500  1
  H  300  1  0.35239900  0.98000600  0.60525400  1
  H  308  1  0.76458300  0.59264200  0.96928000  1
  H  310  1  0.35874900  0.63089200  0.00057600  1
  H  311  1  0.43092500  0.58632800  0.96378300  1
  H  312  1  0.35251100  0.58787100  0.00501900  1
  H  320  1  0.76469500  0.33913200  0.39237900  1
  H  322  1  0.35863800  0.33230300  0.35401300  1
  H  323  1  0.43098600  0.33997800  0.39852200  1
  H  324  1  0.35236800  0.37971400  0.39710500  1
  N  112  1  0.85817300  0.77990300  0.24041000  1
  N  114  1  0.09490500  0.78014200  0.24084800  1
  N  124  1  0.85821800  0.42297400  0.20505200  1
  N  126  1  0.09495100  0.42314300  0.20478300  1
  N  136  1  0.85826300  0.74451600  0.56194700  1
  N  138  1  0.09498100  0.74410100  0.56179300  1
  N  148  1  0.85823300  0.18501800  0.76455200  1
  N  150  1  0.09488400  0.18475400  0.76412100  1
  N  160  1  0.85824200  0.54194300  0.79990500  1
  N  162  1  0.09491200  0.54176800  0.80017200  1
  N  172  1  0.85824800  0.22038900  0.44299700  1
  N  174  1  0.09490100  0.22082700  0.44317900  1
  N  184  1  0.09562000  0.84855000  0.41762600  1
  N  186  1  0.85850700  0.84845800  0.41746100  1
  N  196  1  0.09557000  0.53153000  0.13637900  1
  N  198  1  0.85849200  0.53149300  0.13652100  1
  N  208  1  0.09569300  0.56733700  0.45341800  1
  N  210  1  0.85853900  0.56750000  0.45347800  1
  N  220  1  0.09564600  0.11641200  0.58736200  1
  N  222  1  0.85853300  0.11647900  0.58750800  1
  N  232  1  0.09565100  0.43340500  0.86856400  1
  N  234  1  0.85849500  0.43346600  0.86845200  1
  N  244  1  0.09566100  0.39760100  0.55154800  1
  N  246  1  0.85849500  0.39744000  0.55149600  1
  N  256  1  0.85897400  0.00293400  0.38437400  1
  N  258  1  0.09512900  0.00313200  0.38502400  1
  N  268  1  0.85911600  0.34390100  0.98205600  1
  N  270  1  0.09507400  0.34435500  0.98185200  1
  N  280  1  0.85886700  0.60072200  0.64118900  1
  N  282  1  0.09491100  0.59982600  0.64047300  1
  N  292  1  0.85897400  0.96200000  0.62058300  1
  N  294  1  0.09517500  0.96180200  0.61995400  1
  N  304  1  0.85895900  0.62113400  0.02296700  1
  N  306  1  0.09514400  0.62056200  0.02311700  1
  N  316  1  0.85894300  0.36430400  0.36388500  1
  N  318  1  0.09496700  0.36506300  0.36440300  1
  O  115  1  0.22240300  0.72707300  0.18953900  1
  O  127  1  0.22248400  0.42486600  0.25782900  1
  O  139  1  0.22246300  0.79542100  0.56005400  1
  O  151  1  0.22244300  0.23781300  0.81542400  1
  O  163  1  0.22246300  0.53999400  0.74710600  1
  O  175  1  0.22245300  0.16951100  0.44491100  1
  O  187  1  0.73178800  0.85035200  0.47068700  1
  O  199  1  0.73178700  0.58284600  0.13466000  1
  O  211  1  0.73186400  0.51426900  0.40213800  1
  O  223  1  0.73182300  0.11459000  0.53428400  1
  O  235  1  0.73180200  0.38212400  0.87033600  1
  O  247  1  0.73182800  0.45066100  0.60285600  1
  O  259  1  0.22206700  0.94295300  0.35769600  1
  O  271  1  0.22217300  0.37715300  0.04201800  1
  O  283  1  0.22189300  0.62701700  0.60750300  1
  O  295  1  0.22214300  0.02199000  0.64733200  1
  O  307  1  0.22200500  0.58763100  0.96291800  1
  O  319  1  0.22206700  0.33776400  0.39725200  1
