# generated using pymatgen
data_H28C41(N2O)2
_symmetry_space_group_name_H-M   'P 1'
_cell_length_a   16.46000000
_cell_length_b   16.46000000
_cell_length_c   65.83960000
_cell_angle_alpha   90.00010000
_cell_angle_beta   90.00010000
_cell_angle_gamma   90.00000000
_symmetry_Int_Tables_number   1
_chemical_formula_structural   H28C41(N2O)2
_chemical_formula_sum   'H112 C164 N16 O8'
_cell_volume   17838.02817131
_cell_formula_units_Z   4
loop_
 _symmetry_equiv_pos_site_id
 _symmetry_equiv_pos_as_xyz
  1  'x, y, z'
loop_
 _atom_site_type_symbol
 _atom_site_label
 _atom_site_symmetry_multiplicity
 _atom_site_fract_x
 _atom_site_fract_y
 _atom_site_fract_z
 _atom_site_occupancy
  C  1  1  0.89700100  0.97652700  0.17303000  1
  C  2  1  0.87519000  0.90979000  0.16072400  1
  C  3  1  0.82180900  0.92000500  0.14428400  1
  C  4  1  0.78603400  0.99645700  0.13971000  1
  C  5  1  0.81511800  0.06407400  0.15098700  1
  C  6  1  0.86805200  0.05434700  0.16760400  1
  C  7  1  0.72557900  0.00415700  0.12219900  1
  C  8  1  0.78432700  0.00560900  0.10421300  1
  C  9  1  0.82754100  0.07777900  0.09926700  1
  C  10  1  0.88293000  0.08100400  0.08302700  1
  C  11  1  0.89889000  0.01113700  0.07128000  1
  C  12  1  0.86094900  0.93744400  0.07679200  1
  C  13  1  0.80615000  0.93469500  0.09317600  1
  C  14  1  0.66213700  0.93640800  0.12200100  1
  C  15  1  0.66928500  0.07776700  0.12294900  1
  C  16  1  0.64115300  0.11596300  0.10491300  1
  C  17  1  0.58787600  0.18249800  0.10547500  1
  C  18  1  0.55818700  0.21192000  0.12420000  1
  C  19  1  0.57924300  0.17025700  0.14215600  1
  C  20  1  0.63240800  0.10344600  0.14140200  1
  C  21  1  0.63274800  0.90090400  0.14028000  1
  C  22  1  0.57495900  0.83814300  0.14016900  1
  C  23  1  0.54209800  0.81043900  0.12165600  1
  C  24  1  0.56449100  0.84986800  0.10347800  1
  C  25  1  0.62166600  0.91330000  0.10381900  1
  C  42  1  0.51792500  0.28522800  0.12522600  1
  C  43  1  0.94084700  0.96280900  0.19062400  1
  C  46  1  0.95115600  0.01550600  0.05490600  1
  C  48  1  0.50168600  0.73740500  0.12125600  1
  C  50  1  0.02353100  0.90562600  0.67859200  1
  C  51  1  0.09116700  0.87972600  0.66712900  1
  C  52  1  0.08075900  0.82845600  0.65028800  1
  C  53  1  0.00303600  0.79879000  0.64449900  1
  C  54  1  0.93528500  0.83248100  0.65490100  1
  C  55  1  0.94510900  0.88312800  0.67196400  1
  C  56  1  0.99397800  0.74084100  0.62653400  1
  C  57  1  0.99382600  0.80170600  0.60900500  1
  C  58  1  0.92123500  0.84104100  0.60264800  1
  C  59  1  0.91954700  0.89268100  0.58562100  1
  C  60  1  0.99156300  0.90981000  0.57481700  1
  C  61  1  0.06574100  0.87927600  0.58242600  1
  C  62  1  0.06671800  0.82774200  0.59944500  1
  C  63  1  0.06050300  0.67616000  0.62556600  1
  C  64  1  0.91946700  0.68567400  0.62697100  1
  C  65  1  0.88413000  0.65594000  0.60872400  1
  C  66  1  0.81675200  0.60364500  0.60887900  1
  C  67  1  0.78365600  0.57623400  0.62743700  1
  C  68  1  0.82248400  0.59880400  0.64568500  1
  C  69  1  0.89004800  0.65109300  0.64534300  1
  C  70  1  0.09293500  0.64049800  0.64349300  1
  C  71  1  0.15620200  0.58325700  0.64278100  1
  C  72  1  0.18727800  0.55701100  0.62393600  1
  C  73  1  0.15010800  0.58498800  0.60593400  1
  C  74  1  0.08642700  0.64176700  0.60684600  1
  C  91  1  0.71048500  0.53533500  0.62797800  1
  C  92  1  0.03662200  0.94734200  0.69649900  1
  C  95  1  0.98801500  0.94859600  0.55622200  1
  C  97  1  0.26029000  0.51629500  0.62340900  1
  C  99  1  0.08426700  0.00947300  0.82662500  1
  C  100  1  0.10650200  0.93650500  0.83638200  1
  C  101  1  0.16256600  0.93747400  0.85248600  1
  C  102  1  0.20175700  0.01023700  0.85877400  1
  C  103  1  0.17287400  0.08352300  0.84990200  1
  C  104  1  0.11628200  0.08337800  0.83388900  1
  C  105  1  0.26435700  0.00945500  0.87591300  1
  C  106  1  0.20779700  0.01118500  0.89431500  1
  C  107  1  0.17192100  0.08519700  0.90093700  1
  C  108  1  0.11776100  0.08820400  0.91743000  1
  C  109  1  0.09572300  0.01647200  0.92776100  1
  C  110  1  0.12634500  0.94162400  0.92064000  1
  C  111  1  0.17980000  0.93919900  0.90397300  1
  C  112  1  0.32305000  0.93769800  0.87511100  1
  C  113  1  0.32553600  0.07909600  0.87536700  1
  C  114  1  0.35893300  0.11243800  0.89344300  1
  C  115  1  0.41506700  0.17664800  0.89295100  1
  C  116  1  0.44241900  0.20804000  0.87420900  1
  C  117  1  0.41634400  0.17052400  0.85609800  1
  C  118  1  0.36030500  0.10613600  0.85678100  1
  C  119  1  0.34975200  0.90402900  0.85636800  1
  C  120  1  0.40487300  0.83891700  0.85558600  1
  C  121  1  0.43768800  0.80677500  0.87365000  1
  C  122  1  0.41766800  0.84373800  0.89232200  1
  C  123  1  0.36299100  0.90926000  0.89289000  1
  C  140  1  0.48250400  0.28138200  0.87336600  1
  C  141  1  0.03870600  0.00785600  0.80911400  1
  C  144  1  0.04450300  0.02025700  0.94432300  1
  C  146  1  0.47831300  0.73381000  0.87312100  1
  C  148  1  0.00657700  0.92058000  0.32115600  1
  C  149  1  0.93248800  0.89326000  0.32949600  1
  C  150  1  0.93220900  0.83946200  0.34606400  1
  C  151  1  0.00538700  0.80788600  0.35436800  1
  C  152  1  0.07889600  0.84238500  0.34697800  1
  C  153  1  0.07990700  0.89649800  0.33043400  1
  C  154  1  0.00478500  0.74788000  0.37205400  1
  C  155  1  0.00378800  0.80722100  0.38989900  1
  C  156  1  0.07647300  0.83791400  0.39867800  1
  C  157  1  0.07512000  0.88981600  0.41565000  1
  C  158  1  0.00050200  0.91668100  0.42380500  1
  C  159  1  0.92788400  0.89392800  0.41397000  1
  C  160  1  0.92992500  0.84144400  0.39713200  1
  C  161  1  0.93400700  0.68784000  0.37193400  1
  C  162  1  0.07551300  0.68787700  0.37202600  1
  C  163  1  0.10495600  0.65273100  0.39032500  1
  C  164  1  0.16993600  0.59737900  0.39041100  1
  C  165  1  0.20561800  0.57190000  0.37198500  1
  C  166  1  0.17196000  0.59965900  0.35355000  1
  C  167  1  0.10721600  0.65535000  0.35365400  1
  C  168  1  0.90398900  0.65370600  0.35356900  1
  C  169  1  0.83815000  0.59929300  0.35337400  1
  C  170  1  0.80193000  0.57413600  0.37174000  1
  C  171  1  0.83619400  0.60076400  0.39023500  1
  C  172  1  0.90194800  0.65518600  0.39024600  1
  C  189  1  0.27801000  0.52975400  0.37182100  1
  C  190  1  0.00726300  0.96437100  0.30333400  1
  C  193  1  0.99712400  0.95714800  0.44212200  1
  C  195  1  0.72895200  0.53299300  0.37136600  1
  C  197  1  0.94246300  0.97967400  0.22617900  1
  C  198  1  0.95423700  0.04434600  0.23991500  1
  C  199  1  0.97027900  0.02880600  0.26057000  1
  C  200  1  0.97239900  0.94812600  0.26793300  1
  C  201  1  0.95847500  0.88327700  0.25429500  1
  C  204  1  0.94443800  0.89913700  0.23359100  1
  C  210  1  0.02032400  0.94345700  0.73196400  1
  C  211  1  0.95628200  0.95843900  0.74568500  1
  C  212  1  0.97263100  0.97353300  0.76635100  1
  C  213  1  0.05332500  0.97160400  0.77372300  1
  C  214  1  0.11734500  0.95405200  0.76009800  1
  C  217  1  0.10080800  0.94089000  0.73939300  1
  C  223  1  0.96428700  0.98994000  0.01936800  1
  C  224  1  0.91383400  0.98858600  0.00206400  1
  C  225  1  0.94745900  0.98927300  0.98242300  1
  C  226  1  0.03264900  0.99075500  0.97964100  1
  C  227  1  0.08353900  0.99010500  0.99695700  1
  C  230  1  0.04948600  0.98946600  0.01660900  1
  C  236  1  0.02216300  0.92254700  0.52101200  1
  C  237  1  0.05791400  0.85917200  0.50975700  1
  C  238  1  0.05874700  0.86155400  0.48845100  1
  C  239  1  0.02436200  0.92754400  0.47783100  1
  C  240  1  0.99030800  0.99277500  0.48906500  1
  C  243  1  0.98883800  0.98960400  0.51050600  1
  C  249  1  0.53727500  0.59735400  0.11450000  1
  C  250  1  0.47118500  0.55277200  0.12245900  1
  C  251  1  0.47433000  0.46732800  0.12318300  1
  C  252  1  0.54379300  0.42562200  0.11607400  1
  C  253  1  0.60960600  0.47022600  0.10797900  1
  C  256  1  0.60572400  0.55542100  0.10708700  1
  C  262  1  0.40002500  0.54686000  0.61488600  1
  C  263  1  0.44450700  0.48573600  0.62505900  1
  C  264  1  0.52992100  0.48921500  0.62577400  1
  C  265  1  0.57198600  0.55413600  0.61644300  1
  C  266  1  0.52755800  0.61435500  0.60591400  1
  C  269  1  0.44231300  0.61006600  0.60506200  1
  C  275  1  0.45127800  0.59380400  0.88190500  1
  C  276  1  0.51779100  0.55107500  0.87353100  1
  C  277  1  0.51835500  0.46552400  0.87350500  1
  C  278  1  0.45225000  0.42181700  0.88176600  1
  C  279  1  0.38611200  0.46458800  0.89030200  1
  C  282  1  0.38644700  0.54994200  0.89055000  1
  C  288  1  0.58970700  0.55461600  0.38184500  1
  C  289  1  0.54645700  0.49292700  0.37155600  1
  C  290  1  0.46091500  0.49254400  0.37167800  1
  C  291  1  0.41743300  0.55404900  0.38200300  1
  C  292  1  0.46075800  0.61492400  0.39258200  1
  C  295  1  0.54618300  0.61437200  0.39263300  1
  H  26  1  0.57298400  0.21083300  0.09213100  1
  H  27  1  0.66055400  0.09676500  0.09097600  1
  H  28  1  0.55873900  0.18999100  0.15599300  1
  H  29  1  0.64609300  0.07505100  0.15477200  1
  H  30  1  0.65542700  0.91837400  0.15404700  1
  H  31  1  0.56069900  0.81000800  0.15358700  1
  H  32  1  0.54214000  0.83044500  0.08979600  1
  H  33  1  0.63653200  0.93997700  0.09030600  1
  H  34  1  0.78214000  0.87949100  0.09692600  1
  H  35  1  0.87338600  0.88498300  0.06902700  1
  H  36  1  0.91057800  0.13515800  0.07970700  1
  H  37  1  0.81779000  0.12992700  0.10734700  1
  H  38  1  0.79638100  0.12160600  0.14755300  1
  H  39  1  0.80632900  0.86951000  0.13611000  1
  H  40  1  0.89511200  0.85238400  0.16410500  1
  H  41  1  0.88405400  0.10438200  0.17593500  1
  H  44  1  0.45096200  0.72958200  0.12918500  1
  H  45  1  0.46962000  0.29233900  0.13409600  1
  H  47  1  0.00378500  0.04454500  0.05647100  1
  H  49  1  0.98220800  0.91860500  0.19078300  1
  H  75  1  0.79081300  0.58746800  0.59532800  1
  H  76  1  0.90605000  0.67374100  0.59490200  1
  H  77  1  0.80048600  0.57952600  0.65941700  1
  H  78  1  0.91651200  0.66537000  0.65891800  1
  H  79  1  0.07346300  0.65896600  0.65748900  1
  H  80  1  0.18225300  0.56464300  0.65612700  1
  H  81  1  0.17146900  0.56712500  0.59202100  1
  H  82  1  0.06185200  0.66094300  0.59342900  1
  H  83  1  0.12174200  0.80609200  0.60415800  1
  H  84  1  0.11934700  0.89149700  0.57513900  1
  H  85  1  0.86472300  0.91436400  0.58064000  1
  H  86  1  0.86735900  0.82879600  0.60973800  1
  H  87  1  0.87743600  0.81811600  0.65057700  1
  H  88  1  0.13178100  0.81007800  0.64272800  1
  H  89  1  0.14902200  0.89517600  0.67139000  1
  H  90  1  0.89465300  0.90229300  0.67969600  1
  H  93  1  0.26880100  0.46661500  0.63170800  1
  H  94  1  0.70177300  0.49018900  0.63775600  1
  H  96  1  0.95281800  0.99703400  0.55432300  1
  H  98  1  0.08122700  0.98820800  0.69711300  1
  H  124  1  0.43284900  0.20269900  0.90636400  1
  H  125  1  0.34064000  0.09203700  0.90736600  1
  H  126  1  0.43456500  0.19224200  0.84224600  1
  H  127  1  0.34230800  0.08129400  0.84328800  1
  H  128  1  0.32756900  0.92532300  0.84288800  1
  H  129  1  0.41786900  0.81306900  0.84180900  1
  H  130  1  0.44058500  0.82163300  0.90569000  1
  H  131  1  0.35030500  0.93432700  0.90673200  1
  H  132  1  0.19843400  0.88344600  0.89900200  1
  H  133  1  0.10930900  0.88819700  0.92738000  1
  H  134  1  0.09536100  0.14339300  0.92194400  1
  H  135  1  0.18596600  0.13870100  0.89388200  1
  H  136  1  0.19459500  0.13846400  0.85465200  1
  H  137  1  0.17738400  0.88316900  0.85904600  1
  H  138  1  0.08385200  0.88192300  0.83150300  1
  H  139  1  0.10099500  0.13734000  0.82714700  1
  H  142  1  0.52657900  0.72629200  0.86425900  1
  H  143  1  0.53143400  0.28856700  0.86471700  1
  H  145  1  0.99347600  0.05239000  0.94331000  1
  H  147  1  0.98342700  0.03199900  0.80880700  1
  H  173  1  0.19261600  0.57787300  0.40405300  1
  H  174  1  0.08105500  0.66938400  0.40402900  1
  H  175  1  0.19648000  0.58250600  0.33990700  1
  H  176  1  0.08509000  0.67407400  0.33993100  1
  H  177  1  0.92787100  0.67078100  0.33989400  1
  H  178  1  0.81490600  0.58101300  0.33968300  1
  H  179  1  0.81173500  0.58310400  0.40384200  1
  H  180  1  0.92442000  0.67303500  0.40400600  1
  H  181  1  0.87570500  0.82552600  0.39070300  1
  H  182  1  0.87270100  0.91247000  0.41947600  1
  H  183  1  0.12894100  0.90607900  0.42231300  1
  H  184  1  0.13187000  0.81991800  0.39331200  1
  H  185  1  0.13342500  0.82597300  0.35316500  1
  H  186  1  0.87710000  0.82128800  0.35157300  1
  H  187  1  0.87816800  0.91061100  0.32326200  1
  H  188  1  0.13463200  0.91578700  0.32481200  1
  H  191  1  0.72051400  0.48684600  0.36186900  1
  H  192  1  0.28679000  0.48458900  0.36206000  1
  H  194  1  0.96484900  0.00778700  0.44334700  1
  H  196  1  0.03273600  0.01903600  0.30277500  1
  H  202  1  0.97692300  0.07674600  0.27030400  1
  H  203  1  0.94974800  0.10319900  0.23502700  1
  H  205  1  0.93203800  0.85154000  0.22408100  1
  H  207  1  0.90260900  0.79330800  0.26540100  1
  H  215  1  0.92514000  0.98350300  0.77604100  1
  H  216  1  0.89733900  0.95770700  0.74074300  1
  H  218  1  0.14774000  0.92641600  0.72985800  1
  H  220  1  0.20446100  0.89442900  0.77139000  1
  H  228  1  0.90924500  0.98794500  0.97018300  1
  H  229  1  0.85194200  0.98777800  0.00363300  1
  H  231  1  0.08739400  0.98824000  0.02890900  1
  H  233  1  0.18308900  0.04555900  0.99355500  1
  H  241  1  0.08283000  0.81314500  0.48073400  1
  H  242  1  0.08143700  0.80928500  0.51697000  1
  H  244  1  0.96194500  0.03587300  0.51838600  1
  H  246  1  0.99762900  0.09801300  0.47795100  1
  H  254  1  0.42655300  0.43610300  0.12930400  1
  H  255  1  0.42148000  0.58202600  0.12821500  1
  H  257  1  0.65476400  0.58686700  0.10159300  1
  H  259  1  0.71305200  0.42440800  0.11298300  1
  H  267  1  0.56069300  0.44604400  0.63385800  1
  H  268  1  0.41515900  0.44054000  0.63277300  1
  H  270  1  0.41101300  0.65599200  0.59804800  1
  H  272  1  0.57125100  0.72047300  0.60746500  1
  H  280  1  0.56594300  0.43562100  0.86690000  1
  H  281  1  0.56489400  0.58165300  0.86690600  1
  H  283  1  0.33706600  0.57993000  0.89635500  1
  H  285  1  0.28369300  0.41443000  0.88678300  1
  H  293  1  0.43088500  0.44920300  0.36347800  1
  H  294  1  0.57658500  0.44999900  0.36324500  1
  H  296  1  0.57643700  0.66066600  0.39978200  1
  H  298  1  0.41255000  0.71925000  0.39230700  1
  N  208  1  0.91771500  0.99535500  0.20740900  1
  N  209  1  0.98024000  0.92897000  0.28735500  1
  N  221  1  0.00399300  0.92139100  0.71301800  1
  N  222  1  0.07343300  0.98074800  0.79305500  1
  N  234  1  0.92816300  0.98955500  0.03741600  1
  N  235  1  0.06769400  0.99087300  0.96144900  1
  N  247  1  0.01918600  0.91170600  0.54091800  1
  N  248  1  0.02286600  0.91892600  0.45782500  1
  N  260  1  0.54390400  0.67715500  0.11492200  1
  N  261  1  0.55401900  0.34633200  0.11723100  1
  N  273  1  0.32039500  0.55563000  0.61588800  1
  N  274  1  0.65085000  0.56704100  0.61827700  1
  N  286  1  0.44112400  0.67321100  0.88103400  1
  N  287  1  0.44436300  0.34222400  0.88086000  1
  N  299  1  0.66884900  0.56664400  0.38046300  1
  N  300  1  0.33800900  0.56438300  0.38071500  1
  O  206  1  0.95822900  0.80462000  0.26073100  1
  O  219  1  0.19595900  0.95023100  0.76649200  1
  O  232  1  0.16590000  0.98866500  0.99508700  1
  O  245  1  0.95457900  0.05724500  0.47978600  1
  O  258  1  0.67803300  0.43272400  0.10105700  1
  O  271  1  0.56528300  0.67863800  0.59690100  1
  O  284  1  0.32060900  0.42508100  0.89822600  1
  O  297  1  0.42162700  0.67630400  0.40244700  1
