# generated using pymatgen
data_Zn2H32C41(N2O7)2
_symmetry_space_group_name_H-M   'P 1'
_cell_length_a   9.43070000
_cell_length_b   10.40433000
_cell_length_c   11.97486000
_cell_angle_alpha   80.13756000
_cell_angle_beta   89.17142000
_cell_angle_gamma   89.12126000
_symmetry_Int_Tables_number   1
_chemical_formula_structural   Zn2H32C41(N2O7)2
_chemical_formula_sum   'Zn2 H32 C41 N4 O14'
_cell_volume   1157.39098857
_cell_formula_units_Z   1
loop_
 _symmetry_equiv_pos_site_id
 _symmetry_equiv_pos_as_xyz
  1  'x, y, z'
loop_
 _atom_site_type_symbol
 _atom_site_label
 _atom_site_symmetry_multiplicity
 _atom_site_fract_x
 _atom_site_fract_y
 _atom_site_fract_z
 _atom_site_occupancy
  Zn  Zn0  1  0.37601000  0.49623000  0.99631000  1
  Zn  Zn1  1  0.03206000  0.00393000  0.50808000  1
  H  H2  1  0.20402000  0.81802000  0.38945000  1
  H  H3  1  0.40408000  0.82911000  0.25089000  1
  H  H4  1  0.37428000  0.25003000  0.20986000  1
  H  H5  1  0.17446000  0.22087000  0.35326000  1
  H  H6  1  0.49967000  0.88055000  0.08127000  1
  H  H7  1  0.63899000  0.90515000  0.17480000  1
  H  H8  1  0.69236000  0.20493000  0.02323000  1
  H  H9  1  0.80151000  0.08913000  0.11383000  1
  H  H10  1  0.09704000  0.16060000  0.82334000  1
  H  H11  1  0.30838000  0.29409000  0.85658000  1
  H  H12  1  0.11347000  0.40925000  0.13588000  1
  H  H13  1  0.90162000  0.27841000  0.12010000  1
  H  H14  1  0.66596000  0.70201000  0.74930000  1
  H  H15  1  0.04558000  0.58299000  0.58711000  1
  H  H16  1  0.76198000  0.29373000  0.75980000  1
  H  H17  1  0.21604000  0.18968000  0.61247000  1
  H  H18  1  0.42062000  0.17543000  0.74235000  1
  H  H19  1  0.38599000  0.75484000  0.79267000  1
  H  H20  1  0.18207000  0.78698000  0.65784000  1
  H  H21  1  0.49655000  0.12019000  0.91821000  1
  H  H22  1  0.64443000  0.10434000  0.82716000  1
  H  H23  1  0.70424000  0.80077000  0.97696000  1
  H  H24  1  0.81060000  0.91866000  0.88699000  1
  H  H25  1  0.09419000  0.82980000  0.18225000  1
  H  H26  1  0.30720000  0.69211000  0.14549000  1
  H  H27  1  0.12443000  0.59746000  0.85868000  1
  H  H28  1  0.91354000  0.73571000  0.87632000  1
  H  H29  1  0.66803000  0.29333000  0.25809000  1
  H  H30  1  0.00901000  0.43498000  0.43878000  1
  H  H31  1  0.74401000  0.70579000  0.22096000  1
  H  H32  1  0.96721000  0.27855000  0.59329000  1
  H  H33  1  0.94845000  0.71898000  0.42233000  1
  C  C34  1  0.24447000  0.91195000  0.34797000  1
  C  C35  1  0.35532000  0.91848000  0.26944000  1
  C  C36  1  0.40005000  0.04218000  0.21568000  1
  C  C37  1  0.33634000  0.15374000  0.24747000  1
  C  C38  1  0.22732000  0.13717000  0.32668000  1
  C  C39  1  0.57477000  0.95167000  0.10280000  1
  C  C40  1  0.75742000  0.11564000  0.02846000  1
  C  C41  1  0.98213000  0.20898000  0.96818000  1
  C  C42  1  0.09926000  0.21322000  0.89406000  1
  C  C43  1  0.21469000  0.28730000  0.91117000  1
  C  C44  1  0.10769000  0.35133000  0.06848000  1
  C  C45  1  0.98766000  0.27863000  0.05874000  1
  C  C46  1  0.56938000  0.45627000  0.83212000  1
  C  C47  1  0.69927000  0.49402000  0.76041000  1
  C  C48  1  0.73470000  0.62538000  0.72679000  1
  C  C49  1  0.85866000  0.65746000  0.66293000  1
  C  C50  1  0.94886000  0.55864000  0.63613000  1
  C  C51  1  0.78895000  0.39539000  0.73171000  1
  C  C52  1  0.89631000  0.79672000  0.62302000  1
  C  C53  1  0.91450000  0.42739000  0.67018000  1
  C  C54  1  0.25632000  0.09498000  0.65373000  1
  C  C55  1  0.36969000  0.08695000  0.72753000  1
  C  C56  1  0.41398000  0.96279000  0.78215000  1
  C  C57  1  0.34873000  0.85190000  0.75470000  1
  C  C58  1  0.23696000  0.87005000  0.68016000  1
  C  C59  1  0.57880000  0.05285000  0.89665000  1
  C  C60  1  0.76463000  0.89103000  0.97233000  1
  C  C61  1  0.98748000  0.79419000  0.03245000  1
  C  C62  1  0.10044000  0.78165000  0.10879000  1
  C  C63  1  0.21602000  0.70479000  0.08998000  1
  C  C64  1  0.11589000  0.65238000  0.92824000  1
  C  C65  1  0.99637000  0.72873000  0.93917000  1
  C  C66  1  0.57044000  0.53364000  0.15085000  1
  C  C67  1  0.69060000  0.50283000  0.23277000  1
  C  C68  1  0.72722000  0.37426000  0.27992000  1
  C  C69  1  0.84139000  0.34959000  0.35491000  1
  C  C70  1  0.91930000  0.45397000  0.38210000  1
  C  C71  1  0.76980000  0.60622000  0.25974000  1
  C  C72  1  0.88405000  0.21076000  0.39830000  1
  C  C73  1  0.88392000  0.58290000  0.33398000  1
  C  C74  1  0.66930000  0.00248000  0.00034000  1
  N  N75  1  0.17938000  0.01849000  0.37591000  1
  N  N76  1  0.22030000  0.35710000  0.99668000  1
  N  N77  1  0.18821000  0.98944000  0.63116000  1
  N  N78  1  0.22495000  0.63958000  0.00137000  1
  O  O79  1  0.54315000  0.33817000  0.86630000  1
  O  O80  1  0.49165000  0.55219000  0.85723000  1
  O  O81  1  0.97011000  0.81902000  0.52723000  1
  O  O82  1  0.86368000  0.88439000  0.67789000  1
  O  O83  1  0.87170000  0.13718000  0.94530000  1
  O  O84  1  0.50062000  0.06405000  0.13365000  1
  O  O85  1  0.00884000  0.33464000  0.64461000  1
  O  O86  1  0.54313000  0.64967000  0.10718000  1
  O  O87  1  0.49992000  0.43461000  0.12789000  1
  O  O88  1  0.95691000  0.18750000  0.49358000  1
  O  O89  1  0.85684000  0.12240000  0.34418000  1
  O  O90  1  0.87702000  0.86967000  0.05527000  1
  O  O91  1  0.51516000  0.94050000  0.86158000  1
  O  O92  1  0.96675000  0.68641000  0.34995000  1
