# generated using pymatgen
data_H11C16(NO)2
_symmetry_space_group_name_H-M   'P 1'
_cell_length_a   15.97130000
_cell_length_b   29.64570000
_cell_length_c   29.64570000
_cell_angle_alpha   90.00000000
_cell_angle_beta   90.00000000
_cell_angle_gamma   90.00000000
_symmetry_Int_Tables_number   1
_chemical_formula_structural   H11C16(NO)2
_chemical_formula_sum   'H176 C256 N32 O32'
_cell_volume   14036.65695777
_cell_formula_units_Z   16
loop_
 _symmetry_equiv_pos_site_id
 _symmetry_equiv_pos_as_xyz
  1  'x, y, z'
loop_
 _atom_site_type_symbol
 _atom_site_label
 _atom_site_symmetry_multiplicity
 _atom_site_fract_x
 _atom_site_fract_y
 _atom_site_fract_z
 _atom_site_occupancy
  C  1  1  0.14420800  0.17342900  0.09255800  1
  C  2  1  0.10469900  0.19869200  0.12693900  1
  C  3  1  0.10330500  0.24629800  0.12579100  1
  C  4  1  0.14121700  0.26896100  0.08897400  1
  C  5  1  0.18068600  0.24427800  0.05388400  1
  C  6  1  0.18330400  0.19654900  0.05626800  1
  C  9  1  0.14324600  0.12539400  0.09445500  1
  C  10  1  0.18288400  0.10128600  0.12991800  1
  C  11  1  0.18026900  0.05344000  0.13110800  1
  C  12  1  0.14038400  0.02983600  0.09536400  1
  C  13  1  0.09966500  0.05352700  0.06013000  1
  C  14  1  0.10163300  0.10109400  0.06014400  1
  C  23  1  0.62777600  0.62658900  0.09511200  1
  C  24  1  0.58895100  0.60304500  0.05921600  1
  C  25  1  0.58863100  0.55538900  0.05715400  1
  C  26  1  0.62802700  0.53101400  0.09250600  1
  C  27  1  0.66759200  0.55383000  0.12880500  1
  C  28  1  0.66873800  0.60158100  0.12944400  1
  C  31  1  0.62738200  0.67475200  0.09584100  1
  C  32  1  0.66394800  0.70010100  0.06032000  1
  C  33  1  0.66314000  0.74788500  0.06144900  1
  C  34  1  0.62861600  0.77025300  0.09950800  1
  C  35  1  0.59247600  0.74553400  0.13560800  1
  C  36  1  0.59216800  0.69793500  0.13303100  1
  C  45  1  0.63304800  0.13257700  0.59434200  1
  C  46  1  0.66970200  0.10859800  0.63060400  1
  C  47  1  0.66904400  0.06092400  0.63234700  1
  C  48  1  0.62999300  0.03709100  0.59648400  1
  C  49  1  0.59195500  0.06038200  0.55999300  1
  C  50  1  0.59268900  0.10813400  0.55940300  1
  C  53  1  0.63475200  0.18069000  0.59387600  1
  C  54  1  0.59520500  0.20608600  0.62838400  1
  C  55  1  0.59689000  0.25386800  0.62741200  1
  C  56  1  0.63598500  0.27617800  0.59060100  1
  C  57  1  0.67487700  0.25137300  0.55536500  1
  C  58  1  0.67353400  0.20375600  0.55768600  1
  C  67  1  0.11645900  0.67984200  0.59552900  1
  C  68  1  0.15579300  0.70503600  0.56101800  1
  C  69  1  0.15543000  0.75267200  0.56130900  1
  C  70  1  0.11554600  0.77548800  0.59742200  1
  C  71  1  0.07664400  0.75099500  0.63288000  1
  C  72  1  0.07614300  0.70316700  0.63132500  1
  C  75  1  0.11760400  0.63172300  0.59377200  1
  C  76  1  0.07931300  0.60772000  0.55776700  1
  C  77  1  0.08115300  0.55986800  0.55668100  1
  C  78  1  0.11970200  0.53612800  0.59275300  1
  C  79  1  0.15852900  0.55959800  0.62879200  1
  C  80  1  0.15689600  0.60720700  0.62877500  1
  C  89  1  0.38541000  0.90196100  0.37322100  1
  C  90  1  0.42642800  0.93637100  0.39759900  1
  C  91  1  0.42359200  0.93750400  0.44511000  1
  C  92  1  0.38057800  0.90290200  0.46862100  1
  C  93  1  0.33869700  0.86822300  0.44464800  1
  C  94  1  0.34044300  0.86814900  0.39686000  1
  C  97  1  0.38820400  0.90248400  0.32538900  1
  C  98  1  0.34669200  0.93655000  0.30028200  1
  C  99  1  0.34985200  0.93631000  0.25249400  1
  C  100  1  0.39359400  0.90130700  0.22998800  1
  C  101  1  0.43399800  0.86688000  0.25498000  1
  C  102  1  0.43139400  0.86785200  0.30245200  1
  C  111  1  0.87251600  0.90549300  0.82472900  1
  C  112  1  0.91382100  0.87114700  0.80034100  1
  C  113  1  0.91385800  0.87112400  0.75280000  1
  C  114  1  0.87343000  0.90663700  0.72933600  1
  C  115  1  0.83114200  0.94109700  0.75338700  1
  C  116  1  0.83020800  0.94028100  0.80111400  1
  C  119  1  0.87271000  0.90420100  0.87253700  1
  C  120  1  0.82888100  0.87010900  0.89635800  1
  C  121  1  0.83048100  0.86924500  0.94411600  1
  C  122  1  0.87460600  0.90317900  0.96797100  1
  C  123  1  0.91691400  0.93787200  0.94428100  1
  C  124  1  0.91637000  0.93779100  0.89674300  1
  C  133  1  0.88863200  0.40024000  0.31507500  1
  C  134  1  0.84579800  0.43394100  0.29060300  1
  C  135  1  0.84390800  0.43332700  0.24304700  1
  C  136  1  0.88433600  0.39781400  0.21962200  1
  C  137  1  0.92783400  0.36375200  0.24366100  1
  C  138  1  0.93049400  0.36530400  0.29141600  1
  C  141  1  0.88840600  0.40173400  0.36294300  1
  C  142  1  0.92914800  0.43689900  0.38688900  1
  C  143  1  0.92627400  0.43814400  0.43464900  1
  C  144  1  0.88391100  0.40339700  0.45836600  1
  C  145  1  0.84409600  0.36796200  0.43457200  1
  C  146  1  0.84603300  0.36760800  0.38708800  1
  C  155  1  0.37622100  0.40423000  0.86432700  1
  C  156  1  0.33846500  0.36860300  0.88861700  1
  C  157  1  0.34255400  0.36683900  0.93614500  1
  C  158  1  0.38326200  0.40224000  0.95968600  1
  C  159  1  0.42265900  0.43774300  0.93575000  1
  C  160  1  0.41969000  0.43849800  0.88806400  1
  C  163  1  0.37404700  0.40407800  0.81644500  1
  C  164  1  0.41845700  0.37097100  0.79155800  1
  C  165  1  0.41788100  0.37190200  0.74378700  1
  C  166  1  0.37400800  0.40664200  0.72098800  1
  C  167  1  0.33121300  0.44047800  0.74568200  1
  C  168  1  0.33087500  0.43859600  0.79321700  1
  C  177  1  0.96152600  0.97173200  0.96804500  1
  C  178  1  0.91957500  0.00441000  0.99449100  1
  C  179  1  0.96536400  0.03338400  0.02350200  1
  C  180  1  0.05369700  0.02987700  0.02643400  1
  C  181  1  0.09514100  0.99842000  0.99836300  1
  C  182  1  0.04977200  0.96967800  0.96965100  1
  C  184  1  0.83632600  0.06746300  0.04816300  1
  C  185  1  0.79071200  0.03867900  0.01884800  1
  C  189  1  0.79780600  0.10192600  0.07759700  1
  C  193  1  0.69874800  0.03826200  0.01304800  1
  C  197  1  0.47474700  0.83093900  0.23240200  1
  C  198  1  0.42841200  0.79581800  0.21200800  1
  C  199  1  0.46818500  0.76454200  0.18275200  1
  C  200  1  0.55476400  0.76872500  0.17279200  1
  C  201  1  0.60130400  0.80188300  0.19638800  1
  C  202  1  0.56196600  0.83281100  0.22541300  1
  C  204  1  0.33606100  0.72673900  0.17227900  1
  C  205  1  0.29619500  0.75883800  0.20051700  1
  C  209  1  0.29320200  0.68754300  0.15209100  1
  C  213  1  0.20627800  0.75966100  0.21241200  1
  C  217  1  0.80102400  0.33357300  0.45830500  1
  C  218  1  0.84448400  0.29786000  0.47946900  1
  C  219  1  0.80207600  0.26798700  0.50914900  1
  C  220  1  0.71580300  0.27424200  0.51890800  1
  C  221  1  0.67217400  0.30812900  0.49473200  1
  C  222  1  0.71403200  0.33761000  0.46524400  1
  C  224  1  0.93083900  0.22701900  0.52003100  1
  C  225  1  0.97339600  0.25777800  0.49144700  1
  C  229  1  0.97019700  0.18688300  0.54046600  1
  C  233  1  0.06325700  0.25611400  0.47952300  1
  C  237  1  0.28855600  0.47569800  0.72271100  1
  C  238  1  0.33273300  0.50898400  0.69809700  1
  C  239  1  0.28957700  0.53880300  0.66872000  1
  C  240  1  0.20154400  0.53556800  0.66348900  1
  C  241  1  0.15772200  0.50369100  0.69004500  1
  C  242  1  0.20049800  0.47407500  0.71907200  1
  C  244  1  0.42091000  0.57288900  0.64781000  1
  C  245  1  0.46383100  0.54324900  0.67744700  1
  C  249  1  0.46224300  0.60780100  0.62005200  1
  C  253  1  0.55527900  0.54225400  0.68524500  1
  C  257  1  0.55507300  0.27968800  0.66123500  1
  C  258  1  0.59799700  0.31169600  0.68820700  1
  C  259  1  0.55297900  0.34175600  0.71644700  1
  C  260  1  0.46454600  0.33973200  0.71864700  1
  C  261  1  0.42217800  0.30716100  0.69243700  1
  C  262  1  0.46675000  0.27777400  0.66399800  1
  C  264  1  0.68203000  0.37755500  0.73824100  1
  C  265  1  0.72726200  0.34710200  0.71049400  1
  C  269  1  0.72079400  0.41377300  0.76538500  1
  C  273  1  0.81908200  0.34660000  0.70411800  1
  C  277  1  0.19808200  0.77730300  0.52692600  1
  C  278  1  0.15644500  0.80957400  0.49963400  1
  C  279  1  0.20259400  0.83880900  0.47103900  1
  C  280  1  0.29089700  0.83570900  0.46876200  1
  C  281  1  0.33185800  0.80253000  0.49488100  1
  C  282  1  0.28614500  0.77376700  0.52349200  1
  C  284  1  0.07504200  0.87599800  0.44897900  1
  C  285  1  0.02861400  0.84633800  0.47701000  1
  C  289  1  0.03776200  0.91238100  0.42144700  1
  C  293  1  0.93682400  0.84704300  0.48348600  1
  C  297  1  0.70969200  0.52840000  0.16268400  1
  C  298  1  0.66594500  0.49861800  0.19167300  1
  C  299  1  0.71018600  0.46810100  0.21977200  1
  C  300  1  0.79877700  0.46705500  0.21924900  1
  C  301  1  0.84207400  0.49748500  0.19094700  1
  C  302  1  0.79817000  0.52767100  0.16303700  1
  C  304  1  0.57957800  0.43731100  0.24605300  1
  C  305  1  0.53533100  0.46810500  0.21820900  1
  C  309  1  0.53936400  0.40335000  0.27541500  1
  C  313  1  0.44333400  0.47132900  0.21412200  1
  C  317  1  0.46407700  0.97292600  0.46888000  1
  C  318  1  0.41820000  0.00404200  0.49536300  1
  C  319  1  0.46031300  0.03492800  0.52400500  1
  C  320  1  0.54896100  0.03537100  0.52608900  1
  C  321  1  0.59419900  0.00548000  0.49802800  1
  C  322  1  0.55241600  0.97468000  0.46985200  1
  C  324  1  0.32729300  0.06342600  0.54964700  1
  C  325  1  0.28530000  0.03293300  0.52050000  1
  C  329  1  0.28452300  0.09610300  0.57942200  1
  C  333  1  0.19354700  0.02866700  0.51526100  1
  C  337  1  0.95370500  0.83573300  0.72872900  1
  C  338  1  0.90664600  0.80462500  0.70290400  1
  C  339  1  0.94711800  0.77480000  0.67249500  1
  C  340  1  0.03550300  0.77509600  0.66821100  1
  C  341  1  0.08210500  0.80474300  0.69596200  1
  C  342  1  0.04186800  0.83484500  0.72555100  1
  C  344  1  0.81275200  0.74594600  0.64948000  1
  C  345  1  0.77260500  0.77490100  0.68084700  1
  C  349  1  0.76829800  0.71417400  0.61950600  1
  C  353  1  0.68143600  0.77763000  0.68910100  1
  C  357  1  0.30441000  0.33063900  0.96009400  1
  C  358  1  0.35166300  0.30180700  0.98848000  1
  C  359  1  0.31099600  0.27102600  0.01784300  1
  C  360  1  0.22249400  0.26823200  0.01881100  1
  C  361  1  0.17598500  0.29571600  0.98895900  1
  C  362  1  0.21629000  0.32643500  0.96003400  1
  C  364  1  0.44482300  0.24759800  0.04702600  1
  C  365  1  0.48555800  0.27789300  0.01717200  1
  C  369  1  0.48866400  0.21768000  0.07914500  1
  C  373  1  0.57702900  0.28461800  0.01341100  1
  C  377  1  0.06260100  0.27111400  0.16063700  1
  C  378  1  0.10609000  0.30357500  0.18681000  1
  C  379  1  0.06178100  0.33327200  0.21574500  1
  C  380  1  0.97363400  0.33047000  0.21948100  1
  C  381  1  0.93092600  0.29702500  0.19452100  1
  C  382  1  0.97477400  0.26775300  0.16556400  1
  C  384  1  0.19058700  0.37066700  0.23488500  1
  C  385  1  0.23518000  0.34064900  0.20645900  1
  C  389  1  0.22998000  0.40773200  0.26053600  1
  C  393  1  0.32668500  0.34269700  0.19936500  1
  C  397  1  0.70127700  0.77376700  0.02644200  1
  C  398  1  0.65580200  0.80650700  0.00161600  1
  C  399  1  0.69797100  0.83746000  0.97306800  1
  C  400  1  0.78606000  0.83557100  0.96839200  1
  C  401  1  0.83087200  0.80210500  0.99218700  1
  C  402  1  0.78914800  0.77185800  0.02096600  1
  C  404  1  0.56711300  0.87416600  0.95657000  1
  C  405  1  0.52466600  0.84285700  0.98464100  1
  C  409  1  0.52578000  0.91141600  0.93205300  1
  C  413  1  0.43372700  0.84234100  0.99399500  1
  C  417  1  0.46492300  0.47211900  0.96003700  1
  C  418  1  0.42048100  0.50751000  0.98115000  1
  C  419  1  0.46190400  0.53755800  0.01104000  1
  C  420  1  0.54828900  0.53198200  0.02086700  1
  C  421  1  0.59283800  0.49830800  0.99686900  1
  C  422  1  0.55188400  0.46853600  0.96729600  1
  C  424  1  0.33187100  0.57722300  0.02222200  1
  C  425  1  0.29037100  0.54639600  0.99327300  1
  C  429  1  0.29114300  0.61662200  0.04327200  1
  C  433  1  0.20049100  0.54730700  0.98133200  1
  C  437  1  0.78971700  0.97587800  0.72918800  1
  C  438  1  0.83474200  0.01173400  0.70921900  1
  C  439  1  0.79423200  0.04241400  0.67957500  1
  C  440  1  0.70821400  0.03696200  0.66872000  1
  C  441  1  0.66292000  0.00293300  0.69180600  1
  C  442  1  0.70294200  0.97257900  0.72116600  1
  C  444  1  0.92440800  0.08259900  0.67082900  1
  C  445  1  0.96506900  0.05107900  0.69937200  1
  C  449  1  0.96558200  0.12272300  0.65144000  1
  C  453  1  0.05453400  0.05181200  0.71222400  1
  C  457  1  0.21970800  0.02857900  0.16651400  1
  C  458  1  0.17450100  0.99773900  0.19383100  1
  C  459  1  0.21710200  0.96799100  0.22348300  1
  C  460  1  0.30547500  0.96910800  0.22683500  1
  C  461  1  0.35004800  0.00068000  0.20042000  1
  C  462  1  0.30787900  0.02980300  0.17063100  1
  C  464  1  0.08583600  0.93395600  0.24433700  1
  C  465  1  0.04300900  0.96405100  0.21512700  1
  C  469  1  0.04458600  0.89889500  0.27194400  1
  C  473  1  0.95159500  0.96514100  0.20730200  1
  C  477  1  0.96448600  0.47389600  0.45925000  1
  C  478  1  0.91567400  0.50495000  0.48424900  1
  C  479  1  0.95398000  0.53487000  0.51540000  1
  C  480  1  0.04210000  0.53503200  0.52110000  1
  C  481  1  0.09053800  0.50542900  0.49421300  1
  C  482  1  0.05238900  0.47504000  0.46409000  1
  C  484  1  0.81785900  0.56260700  0.53678900  1
  C  485  1  0.77992700  0.53371300  0.50458200  1
  C  489  1  0.77113400  0.59355300  0.56663500  1
  C  493  1  0.68921800  0.53026500  0.49520500  1
  H  7  1  0.07620500  0.18218100  0.15315300  1
  H  16  1  0.07188500  0.11831700  0.03479500  1
  H  19  1  0.27348400  0.16073600  0.03470500  1
  H  20  1  0.27528300  0.13480900  0.15207300  1
  H  21  1  0.19198800  0.32711300  0.09198600  1
  H  22  1  0.19319000  0.97318600  0.08610900  1
  H  29  1  0.56047900  0.62100700  0.03399500  1
  H  38  1  0.56605500  0.67979100  0.15886200  1
  H  41  1  0.76206100  0.63372000  0.15244100  1
  H  42  1  0.75302600  0.66704000  0.03384300  1
  H  43  1  0.68033400  0.47373400  0.08516100  1
  H  44  1  0.68407800  0.82662800  0.10684000  1
  H  51  1  0.69755800  0.12625800  0.65623300  1
  H  60  1  0.70100200  0.18545800  0.53238000  1
  H  63  1  0.50491200  0.14433500  0.53558100  1
  H  64  1  0.50316600  0.17329000  0.65215100  1
  H  65  1  0.57622100  0.98012800  0.60313900  1
  H  66  1  0.58304600  0.33319400  0.58260700  1
  H  73  1  0.18557100  0.68841600  0.53529500  1
  H  82  1  0.18524000  0.62432600  0.65464400  1
  H  85  1  0.98891800  0.66546900  0.65346000  1
  H  86  1  0.99159800  0.64440000  0.53450900  1
  H  87  1  0.06211700  0.83281800  0.59312400  1
  H  88  1  0.06724700  0.47917900  0.60077800  1
  H  95  1  0.45804000  0.96117400  0.38053700  1
  H  104  1  0.46057600  0.84285300  0.32045700  1
  H  107  1  0.24799000  0.84809900  0.36202900  1
  H  108  1  0.25209000  0.95727800  0.33308700  1
  H  109  1  0.42953500  0.89099200  0.52563100  1
  H  110  1  0.44658300  0.91179100  0.17373700  1
  H  117  1  0.94358000  0.84566300  0.81735600  1
  H  126  1  0.94780900  0.96259400  0.87958700  1
  H  129  1  0.73401700  0.96166600  0.83166800  1
  H  130  1  0.73359200  0.85075700  0.86347300  1
  H  131  1  0.92634700  0.92049700  0.67382700  1
  H  132  1  0.92705000  0.88969300  0.02373700  1
  H  139  1  0.81531300  0.45918300  0.30761700  1
  H  148  1  0.81619000  0.34223100  0.36994200  1
  H  151  1  0.02465100  0.34567500  0.32520700  1
  H  152  1  0.02465600  0.45847400  0.35581900  1
  H  153  1  0.82999600  0.38380200  0.16454100  1
  H  154  1  0.82923800  0.41370900  0.51435400  1
  H  161  1  0.30839900  0.34333800  0.87144400  1
  H  170  1  0.29978300  0.46298400  0.81111500  1
  H  173  1  0.51342100  0.46156100  0.85651100  1
  H  174  1  0.51298300  0.35086700  0.82478300  1
  H  175  1  0.33272800  0.41456200  0.01621200  1
  H  176  1  0.32322500  0.39550400  0.66428100  1
  H  187  1  0.08154600  0.94566100  0.95167200  1
  H  188  1  0.15879800  0.99477100  0.00006300  1
  H  190  1  0.84511000  0.12004400  0.09709800  1
  H  191  1  0.75463600  0.08587800  0.10118700  1
  H  192  1  0.76373200  0.12641500  0.05715800  1
  H  194  1  0.66703400  0.06310000  0.03406800  1
  H  195  1  0.67449800  0.00495300  0.02173800  1
  H  196  1  0.68342600  0.04539500  0.97789500  1
  H  207  1  0.59677800  0.85828900  0.23927400  1
  H  208  1  0.66397900  0.80576500  0.19033400  1
  H  210  1  0.33776900  0.66581900  0.13470400  1
  H  211  1  0.24611800  0.69889300  0.12795400  1
  H  212  1  0.26310500  0.66753600  0.17839100  1
  H  214  1  0.17064500  0.73289500  0.19611500  1
  H  215  1  0.17929100  0.79192200  0.20224200  1
  H  216  1  0.19935800  0.75597400  0.24884900  1
  H  227  1  0.68120700  0.36351600  0.45077700  1
  H  228  1  0.60966400  0.31331200  0.50025100  1
  H  230  1  0.92377000  0.16636900  0.55792500  1
  H  231  1  0.01816900  0.19716700  0.56457400  1
  H  232  1  0.99859200  0.16599200  0.51430300  1
  H  234  1  0.09652900  0.22869000  0.49616900  1
  H  235  1  0.09308600  0.28777400  0.48926400  1
  H  236  1  0.06976900  0.25176700  0.44313600  1
  H  247  1  0.16713200  0.44967000  0.73563000  1
  H  248  1  0.09424500  0.50021700  0.68678400  1
  H  250  1  0.41678700  0.62656200  0.59989800  1
  H  251  1  0.50701700  0.59207500  0.59711500  1
  H  252  1  0.49502700  0.63167300  0.64178900  1
  H  254  1  0.58894400  0.56742100  0.66553600  1
  H  255  1  0.57968000  0.50904100  0.67630300  1
  H  256  1  0.56802000  0.54848400  0.72086900  1
  H  267  1  0.43362100  0.25619600  0.64379300  1
  H  268  1  0.35814200  0.30563900  0.69263900  1
  H  270  1  0.67368400  0.43297300  0.78396500  1
  H  271  1  0.76435900  0.39922100  0.78971600  1
  H  272  1  0.75445700  0.43702800  0.74336500  1
  H  274  1  0.85105500  0.37245800  0.72374000  1
  H  275  1  0.84376400  0.31379300  0.71422100  1
  H  276  1  0.83357000  0.35209100  0.66856200  1
  H  287  1  0.31837800  0.75171700  0.54361600  1
  H  288  1  0.39581700  0.80026700  0.49466100  1
  H  290  1  0.08562300  0.93078200  0.40261500  1
  H  291  1  0.99352600  0.89809900  0.39730200  1
  H  292  1  0.00514900  0.93628700  0.44322100  1
  H  294  1  0.90590600  0.87314100  0.46368900  1
  H  295  1  0.91067800  0.81447500  0.47367700  1
  H  296  1  0.92271500  0.85300000  0.51901200  1
  H  307  1  0.83150400  0.54756300  0.14125500  1
  H  308  1  0.90607000  0.49670200  0.18912600  1
  H  310  1  0.58587100  0.38340100  0.29364000  1
  H  311  1  0.49935900  0.42006400  0.30013300  1
  H  312  1  0.50163900  0.38041200  0.25506200  1
  H  314  1  0.41085700  0.44755500  0.23592900  1
  H  315  1  0.42311500  0.50531400  0.22316300  1
  H  316  1  0.42490500  0.46454600  0.17932900  1
  H  327  1  0.58714600  0.95194800  0.45179500  1
  H  328  1  0.65820000  0.00433500  0.49958300  1
  H  330  1  0.32948500  0.11608900  0.59870300  1
  H  331  1  0.24426300  0.07824700  0.60321000  1
  H  332  1  0.24661100  0.11914600  0.55926400  1
  H  334  1  0.15879100  0.05207400  0.53652600  1
  H  335  1  0.17436300  0.99443000  0.52402200  1
  H  336  1  0.17649200  0.03517800  0.48021400  1
  H  347  1  0.07733900  0.85775600  0.74294300  1
  H  348  1  0.14587500  0.80649100  0.69294000  1
  H  350  1  0.81203500  0.69631600  0.59754600  1
  H  351  1  0.72415000  0.73250000  0.59821100  1
  H  352  1  0.73441800  0.68932700  0.63959300  1
  H  354  1  0.64559600  0.75411500  0.66848400  1
  H  355  1  0.65956400  0.81172900  0.68174700  1
  H  356  1  0.66868100  0.77011100  0.72446900  1
  H  367  1  0.18033000  0.34763500  0.94085400  1
  H  368  1  0.11191300  0.29541500  0.98988000  1
  H  370  1  0.44444800  0.19735700  0.09857500  1
  H  371  1  0.52547900  0.23781200  0.10273000  1
  H  372  1  0.53010200  0.19483700  0.06086000  1
  H  374  1  0.61259900  0.26320500  0.03632100  1
  H  375  1  0.59219400  0.31971200  0.02097900  1
  H  376  1  0.59702100  0.27711200  0.97902100  1
  H  387  1  0.94127000  0.24561200  0.14615300  1
  H  388  1  0.86698000  0.29502200  0.19573000  1
  H  390  1  0.18402900  0.42570400  0.28108000  1
  H  391  1  0.27826300  0.39439400  0.28289600  1
  H  392  1  0.25802800  0.43176900  0.23717900  1
  H  394  1  0.34397900  0.37545000  0.18542800  1
  H  395  1  0.35906300  0.33772800  0.23137900  1
  H  396  1  0.34754700  0.31658900  0.17592100  1
  H  407  1  0.82422200  0.74982800  0.03967700  1
  H  408  1  0.89483600  0.80078000  0.99031500  1
  H  410  1  0.57094400  0.93119300  0.91269100  1
  H  411  1  0.47943700  0.89783600  0.90866400  1
  H  412  1  0.49485700  0.93391500  0.95594500  1
  H  414  1  0.39988700  0.86890800  0.97631600  1
  H  415  1  0.40757700  0.80994100  0.98364600  1
  H  416  1  0.42332400  0.84667800  0.03012000  1
  H  427  1  0.58539500  0.44289000  0.95282500  1
  H  428  1  0.65543200  0.49356200  0.00251500  1
  H  430  1  0.33683000  0.63718800  0.06120900  1
  H  431  1  0.24333000  0.60549000  0.06709600  1
  H  432  1  0.26230800  0.63772100  0.01741500  1
  H  434  1  0.16634900  0.57431900  0.99813700  1
  H  435  1  0.17165900  0.51531500  0.99085400  1
  H  436  1  0.19387900  0.55183000  0.94497300  1
  H  447  1  0.66890000  0.94676700  0.73495900  1
  H  448  1  0.60045100  0.99839000  0.68564300  1
  H  450  1  0.92036400  0.14387000  0.63380800  1
  H  451  1  0.01417100  0.11242200  0.62769600  1
  H  452  1  0.99354500  0.14298000  0.67822600  1
  H  454  1  0.08914800  0.07921600  0.69635700  1
  H  455  1  0.08381400  0.02006800  0.70227300  1
  H  456  1  0.05988400  0.05552800  0.74873200  1
  H  467  1  0.34272200  0.05041800  0.15025800  1
  H  468  1  0.41411200  0.00144600  0.20129700  1
  H  470  1  0.09013000  0.87984300  0.29177400  1
  H  471  1  0.00028200  0.91454000  0.29519200  1
  H  472  1  0.01130200  0.87530000  0.25012600  1
  H  474  1  0.91783400  0.94005400  0.22706100  1
  H  475  1  0.92734500  0.99839300  0.21618300  1
  H  476  1  0.93884000  0.95886000  0.17168300  1
  H  487  1  0.08914800  0.45223700  0.44734900  1
  H  488  1  0.15416300  0.50402500  0.49817000  1
  H  490  1  0.81334700  0.61145700  0.58940400  1
  H  491  1  0.72661600  0.57454500  0.58709600  1
  H  492  1  0.73739200  0.61839600  0.54647300  1
  H  494  1  0.65182600  0.55330400  0.51555500  1
  H  495  1  0.66807400  0.49592300  0.50203500  1
  H  496  1  0.67771600  0.53794900  0.45974600  1
  N  183  1  0.92104900  0.06305600  0.04906400  1
  N  186  1  0.83481600  0.00855700  0.99376900  1
  N  203  1  0.41946700  0.73174100  0.16437700  1
  N  206  1  0.34465600  0.79164500  0.21890800  1
  N  223  1  0.84797800  0.23421000  0.52786700  1
  N  226  1  0.92779000  0.29153100  0.47262100  1
  N  243  1  0.33626700  0.56884100  0.64486200  1
  N  246  1  0.41741700  0.51274200  0.70078600  1
  N  263  1  0.59735500  0.37326100  0.73965100  1
  N  266  1  0.68273200  0.31595000  0.68691500  1
  N  283  1  0.15950500  0.87065200  0.44758600  1
  N  286  1  0.07190400  0.81487000  0.50084100  1
  N  303  1  0.66460500  0.43888300  0.24519400  1
  N  306  1  0.58090600  0.49696200  0.19242600  1
  N  323  1  0.41242100  0.06258500  0.54996100  1
  N  326  1  0.33308100  0.00474000  0.49514700  1
  N  343  1  0.89769800  0.74759500  0.64692600  1
  N  346  1  0.82172400  0.80302300  0.70550500  1
  N  363  1  0.35981000  0.24600000  0.04586400  1
  N  366  1  0.43671600  0.30350900  0.98973800  1
  N  383  1  0.10630500  0.36545200  0.23791100  1
  N  386  1  0.19054300  0.30877800  0.18392100  1
  N  403  1  0.65147900  0.86981800  0.95237700  1
  N  406  1  0.57139300  0.81086900  0.00572000  1
  N  423  1  0.41493800  0.57074300  0.03002300  1
  N  426  1  0.33704300  0.51320000  0.97423100  1
  N  443  1  0.84169800  0.07614800  0.66195400  1
  N  446  1  0.91789700  0.01737500  0.71712500  1
  N  463  1  0.17053800  0.93751100  0.24681900  1
  N  466  1  0.08972400  0.99416000  0.19142100  1
  N  483  1  0.90269700  0.56153500  0.54047600  1
  N  486  1  0.83088400  0.50612400  0.48041300  1
  O  8  1  0.13556100  0.31497600  0.08653000  1
  O  15  1  0.13749000  0.98373000  0.09556800  1
  O  17  1  0.22118500  0.17307500  0.02226700  1
  O  18  1  0.22143500  0.12410500  0.16410500  1
  O  30  1  0.62401300  0.48489300  0.09266800  1
  O  37  1  0.62659300  0.81639800  0.10067700  1
  O  39  1  0.70787000  0.62324300  0.16421400  1
  O  40  1  0.69838400  0.67872800  0.02395800  1
  O  52  1  0.63293600  0.99095200  0.59599500  1
  O  59  1  0.63963600  0.32229600  0.58991600  1
  O  61  1  0.55629900  0.13019500  0.52398400  1
  O  62  1  0.55694500  0.18469700  0.66362000  1
  O  74  1  0.11908400  0.82159900  0.59890200  1
  O  81  1  0.12315200  0.49003400  0.59203800  1
  O  83  1  0.03948400  0.67982500  0.66582300  1
  O  84  1  0.04306000  0.63046200  0.52275300  1
  O  96  1  0.37655000  0.90384700  0.51465800  1
  O  103  1  0.39274800  0.89932400  0.18393300  1
  O  105  1  0.29994400  0.83474400  0.37382500  1
  O  106  1  0.30475400  0.97037600  0.32193500  1
  O  118  1  0.87288100  0.90699700  0.68324200  1
  O  125  1  0.87379200  0.90325300  0.01406800  1
  O  127  1  0.78975400  0.97363100  0.82420000  1
  O  128  1  0.78667400  0.83722700  0.87346500  1
  O  140  1  0.88383600  0.39716700  0.17353600  1
  O  147  1  0.88463100  0.40309000  0.50449100  1
  O  149  1  0.97199400  0.33224700  0.31445400  1
  O  150  1  0.96931400  0.47049300  0.36402900  1
  O  162  1  0.38623700  0.40189600  0.00576300  1
  O  169  1  0.37625600  0.40856500  0.67494700  1
  O  171  1  0.45777100  0.47280300  0.86520100  1
  O  172  1  0.46083300  0.33740100  0.81337900  1
