# generated using pymatgen
data_CdH20C19(NO)4
_symmetry_space_group_name_H-M   'P 1'
_cell_length_a   9.82738000
_cell_length_b   10.75873000
_cell_length_c   23.54027000
_cell_angle_alpha   89.99990000
_cell_angle_beta   89.99955000
_cell_angle_gamma   77.11211000
_symmetry_Int_Tables_number   1
_chemical_formula_structural   CdH20C19(NO)4
_chemical_formula_sum   'Cd4 H80 C76 N16 O16'
_cell_volume   2426.21588706
_cell_formula_units_Z   4
loop_
 _symmetry_equiv_pos_site_id
 _symmetry_equiv_pos_as_xyz
  1  'x, y, z'
loop_
 _atom_site_type_symbol
 _atom_site_label
 _atom_site_symmetry_multiplicity
 _atom_site_fract_x
 _atom_site_fract_y
 _atom_site_fract_z
 _atom_site_occupancy
  Cd  Cd0  1  0.52485000  0.31845000  0.89526000  1
  Cd  Cd1  1  0.97516000  0.68155000  0.39526000  1
  Cd  Cd2  1  0.47516000  0.68155000  0.10474000  1
  Cd  Cd3  1  0.02484000  0.31845000  0.60474000  1
  H  H4  1  0.75894000  0.96969000  0.01409000  1
  H  H5  1  0.04164000  0.16846000  0.93420000  1
  H  H6  1  0.22132000  0.53043000  0.04268000  1
  H  H7  1  0.00584000  0.38035000  0.90931000  1
  H  H8  1  0.45774000  0.61483000  0.94734000  1
  H  H9  1  0.72253000  0.48223000  0.80900000  1
  H  H10  1  0.75070000  0.72629000  0.83754000  1
  H  H11  1  0.67515000  0.84365000  0.94494000  1
  H  H12  1  0.50811000  0.82370000  0.96683000  1
  H  H13  1  0.57400000  0.94994000  0.85572000  1
  H  H14  1  0.49116000  0.02893000  0.91574000  1
  H  H15  1  0.29556000  0.91010000  0.90282000  1
  H  H16  1  0.37909000  0.83787000  0.84150000  1
  H  H17  1  0.27269000  0.12821000  0.85751000  1
  H  H18  1  0.35698000  0.05484000  0.79645000  1
  H  H19  1  0.16591000  0.93105000  0.78530000  1
  H  H20  1  0.07954000  0.01423000  0.84466000  1
  H  H21  1  0.91236000  0.22018000  0.82756000  1
  H  H22  1  0.84439000  0.37215000  0.73057000  1
  H  H23  1  0.20760000  0.09110000  0.69674000  1
  H  H24  1  0.74107000  0.03031000  0.51409000  1
  H  H25  1  0.45836000  0.83154000  0.43420000  1
  H  H26  1  0.27869000  0.46958000  0.54268000  1
  H  H27  1  0.49416000  0.61965000  0.40931000  1
  H  H28  1  0.04226000  0.38518000  0.44735000  1
  H  H29  1  0.77748000  0.51778000  0.30900000  1
  H  H30  1  0.74930000  0.27372000  0.33754000  1
  H  H31  1  0.82486000  0.15636000  0.44494000  1
  H  H32  1  0.99189000  0.17631000  0.46683000  1
  H  H33  1  0.92601000  0.05007000  0.35572000  1
  H  H34  1  0.00884000  0.97107000  0.41574000  1
  H  H35  1  0.20444000  0.08991000  0.40282000  1
  H  H36  1  0.12092000  0.16213000  0.34150000  1
  H  H37  1  0.22731000  0.87179000  0.35751000  1
  H  H38  1  0.14302000  0.94516000  0.29645000  1
  H  H39  1  0.33409000  0.06895000  0.28530000  1
  H  H40  1  0.42046000  0.98577000  0.34466000  1
  H  H41  1  0.58765000  0.77982000  0.32756000  1
  H  H42  1  0.65561000  0.62786000  0.23057000  1
  H  H43  1  0.29241000  0.90891000  0.19674000  1
  H  H44  1  0.24107000  0.03031000  0.98591000  1
  H  H45  1  0.95836000  0.83154000  0.06580000  1
  H  H46  1  0.77869000  0.46958000  0.95732000  1
  H  H47  1  0.99416000  0.61965000  0.09069000  1
  H  H48  1  0.54227000  0.38518000  0.05266000  1
  H  H49  1  0.27747000  0.51778000  0.19100000  1
  H  H50  1  0.24930000  0.27371000  0.16246000  1
  H  H51  1  0.32486000  0.15636000  0.05506000  1
  H  H52  1  0.49189000  0.17631000  0.03318000  1
  H  H53  1  0.42601000  0.05006000  0.14428000  1
  H  H54  1  0.50884000  0.97107000  0.08426000  1
  H  H55  1  0.70444000  0.08991000  0.09719000  1
  H  H56  1  0.62092000  0.16213000  0.15850000  1
  H  H57  1  0.72732000  0.87179000  0.14249000  1
  H  H58  1  0.64302000  0.94516000  0.20356000  1
  H  H59  1  0.83409000  0.06895000  0.21470000  1
  H  H60  1  0.92047000  0.98577000  0.15534000  1
  H  H61  1  0.08765000  0.77982000  0.17244000  1
  H  H62  1  0.15561000  0.62786000  0.26943000  1
  H  H63  1  0.79241000  0.90891000  0.30326000  1
  H  H64  1  0.25894000  0.96969000  0.48591000  1
  H  H65  1  0.54165000  0.16846000  0.56580000  1
  H  H66  1  0.72132000  0.53042000  0.45732000  1
  H  H67  1  0.50585000  0.38035000  0.59069000  1
  H  H68  1  0.95774000  0.61483000  0.55266000  1
  H  H69  1  0.22253000  0.48223000  0.69100000  1
  H  H70  1  0.25070000  0.72629000  0.66246000  1
  H  H71  1  0.17515000  0.84364000  0.55506000  1
  H  H72  1  0.00812000  0.82370000  0.53317000  1
  H  H73  1  0.07400000  0.94994000  0.64428000  1
  H  H74  1  0.99117000  0.02893000  0.58426000  1
  H  H75  1  0.79557000  0.91010000  0.59718000  1
  H  H76  1  0.87909000  0.83787000  0.65850000  1
  H  H77  1  0.77269000  0.12821000  0.64249000  1
  H  H78  1  0.85699000  0.05484000  0.70356000  1
  H  H79  1  0.66592000  0.93105000  0.71470000  1
  H  H80  1  0.57954000  0.01423000  0.65534000  1
  H  H81  1  0.41236000  0.22018000  0.67244000  1
  H  H82  1  0.34439000  0.37215000  0.76943000  1
  H  H83  1  0.70760000  0.09110000  0.80326000  1
  C  C84  1  0.76821000  0.16026000  0.93941000  1
  C  C85  1  0.88764000  0.07730000  0.97067000  1
  C  C86  1  0.86470000  0.98263000  0.00820000  1
  C  C87  1  0.02411000  0.09403000  0.96269000  1
  C  C88  1  0.26566000  0.39515000  0.94535000  1
  C  C89  1  0.12818000  0.44887000  0.97331000  1
  C  C90  1  0.12407000  0.51717000  0.02439000  1
  C  C91  1  0.00288000  0.43249000  0.94903000  1
  C  C92  1  0.53066000  0.61199000  0.91266000  1
  C  C93  1  0.66999000  0.54702000  0.84130000  1
  C  C94  1  0.68524000  0.66726000  0.85500000  1
  C  C95  1  0.57382000  0.83030000  0.92971000  1
  C  C96  1  0.50385000  0.94028000  0.89105000  1
  C  C97  1  0.36348000  0.92495000  0.86749000  1
  C  C98  1  0.29036000  0.04016000  0.83219000  1
  C  C99  1  0.15102000  0.02045000  0.80949000  1
  C  C100  1  0.96169000  0.21704000  0.78603000  1
  C  C101  1  0.93034000  0.29159000  0.73827000  1
  C  C102  1  0.11656000  0.14613000  0.71821000  1
  C  C103  1  0.73179000  0.83974000  0.43941000  1
  C  C104  1  0.61237000  0.92271000  0.47067000  1
  C  C105  1  0.63531000  0.01738000  0.50820000  1
  C  C106  1  0.47589000  0.90597000  0.46269000  1
  C  C107  1  0.23434000  0.60485000  0.44535000  1
  C  C108  1  0.37182000  0.55113000  0.47331000  1
  C  C109  1  0.37594000  0.48284000  0.52439000  1
  C  C110  1  0.49713000  0.56752000  0.44903000  1
  C  C111  1  0.96934000  0.38801000  0.41267000  1
  C  C112  1  0.83001000  0.45299000  0.34130000  1
  C  C113  1  0.81477000  0.33275000  0.35500000  1
  C  C114  1  0.92619000  0.16971000  0.42971000  1
  C  C115  1  0.99615000  0.05972000  0.39105000  1
  C  C116  1  0.13653000  0.07505000  0.36749000  1
  C  C117  1  0.20964000  0.95985000  0.33219000  1
  C  C118  1  0.34898000  0.97956000  0.30949000  1
  C  C119  1  0.53832000  0.78296000  0.28603000  1
  C  C120  1  0.56967000  0.70841000  0.23827000  1
  C  C121  1  0.38345000  0.85387000  0.21821000  1
  C  C122  1  0.23179000  0.83974000  0.06059000  1
  C  C123  1  0.11237000  0.92271000  0.02934000  1
  C  C124  1  0.13531000  0.01737000  0.99180000  1
  C  C125  1  0.97589000  0.90597000  0.03731000  1
  C  C126  1  0.73434000  0.60486000  0.05465000  1
  C  C127  1  0.87183000  0.55113000  0.02669000  1
  C  C128  1  0.87594000  0.48284000  0.97561000  1
  C  C129  1  0.99713000  0.56752000  0.05097000  1
  C  C130  1  0.46934000  0.38801000  0.08734000  1
  C  C131  1  0.33001000  0.45299000  0.15870000  1
  C  C132  1  0.31477000  0.33275000  0.14500000  1
  C  C133  1  0.42619000  0.16970000  0.07030000  1
  C  C134  1  0.49615000  0.05972000  0.10895000  1
  C  C135  1  0.63653000  0.07505000  0.13251000  1
  C  C136  1  0.70964000  0.95985000  0.16781000  1
  C  C137  1  0.84898000  0.97956000  0.19052000  1
  C  C138  1  0.03832000  0.78296000  0.21397000  1
  C  C139  1  0.06967000  0.70841000  0.26173000  1
  C  C140  1  0.88345000  0.85387000  0.28179000  1
  C  C141  1  0.26821000  0.16026000  0.56059000  1
  C  C142  1  0.38764000  0.07730000  0.52933000  1
  C  C143  1  0.36469000  0.98263000  0.49180000  1
  C  C144  1  0.52411000  0.09404000  0.53731000  1
  C  C145  1  0.76566000  0.39515000  0.55465000  1
  C  C146  1  0.62818000  0.44888000  0.52669000  1
  C  C147  1  0.62407000  0.51716000  0.47561000  1
  C  C148  1  0.50288000  0.43249000  0.55097000  1
  C  C149  1  0.03066000  0.61199000  0.58734000  1
  C  C150  1  0.16999000  0.54702000  0.65870000  1
  C  C151  1  0.18524000  0.66726000  0.64500000  1
  C  C152  1  0.07382000  0.83030000  0.57029000  1
  C  C153  1  0.00386000  0.94028000  0.60895000  1
  C  C154  1  0.86348000  0.92495000  0.63251000  1
  C  C155  1  0.79037000  0.04016000  0.66781000  1
  C  C156  1  0.65103000  0.02045000  0.69051000  1
  C  C157  1  0.46168000  0.21705000  0.71397000  1
  C  C158  1  0.43034000  0.29159000  0.76173000  1
  C  C159  1  0.61656000  0.14613000  0.78179000  1
  N  N160  1  0.57306000  0.51363000  0.87745000  1
  N  N161  1  0.59647000  0.70691000  0.90049000  1
  N  N162  1  0.07937000  0.12427000  0.77236000  1
  N  N163  1  0.02757000  0.24669000  0.69639000  1
  N  N164  1  0.92694000  0.48638000  0.37745000  1
  N  N165  1  0.90353000  0.29309000  0.40050000  1
  N  N166  1  0.42063000  0.87574000  0.27236000  1
  N  N167  1  0.47243000  0.75331000  0.19639000  1
  N  N168  1  0.42694000  0.48638000  0.12255000  1
  N  N169  1  0.40353000  0.29309000  0.09951000  1
  N  N170  1  0.92063000  0.87574000  0.22764000  1
  N  N171  1  0.97243000  0.75331000  0.30361000  1
  N  N172  1  0.07306000  0.51363000  0.62255000  1
  N  N173  1  0.09647000  0.70691000  0.59951000  1
  N  N174  1  0.57937000  0.12427000  0.72764000  1
  N  N175  1  0.52757000  0.24669000  0.80361000  1
  O  O176  1  0.64358000  0.16318000  0.95719000  1
  O  O177  1  0.79293000  0.22454000  0.89698000  1
  O  O178  1  0.37440000  0.42561000  0.96600000  1
  O  O179  1  0.27178000  0.32222000  0.90217000  1
  O  O180  1  0.85643000  0.83682000  0.45719000  1
  O  O181  1  0.70707000  0.77546000  0.39698000  1
  O  O182  1  0.12561000  0.57440000  0.46600000  1
  O  O183  1  0.22823000  0.67777000  0.40217000  1
  O  O184  1  0.35643000  0.83682000  0.04281000  1
  O  O185  1  0.20707000  0.77546000  0.10302000  1
  O  O186  1  0.62561000  0.57440000  0.03400000  1
  O  O187  1  0.72822000  0.67778000  0.09783000  1
  O  O188  1  0.14358000  0.16319000  0.54281000  1
  O  O189  1  0.29293000  0.22454000  0.60302000  1
  O  O190  1  0.87440000  0.42561000  0.53400000  1
  O  O191  1  0.77178000  0.32223000  0.59783000  1
