# generated using pymatgen
data_H9C18N6O7
_symmetry_space_group_name_H-M   'P 1'
_cell_length_a   43.83560000
_cell_length_b   43.83560000
_cell_length_c   43.83560000
_cell_angle_alpha   90.00000000
_cell_angle_beta   90.00000000
_cell_angle_gamma   90.00000000
_symmetry_Int_Tables_number   1
_chemical_formula_structural   H9C18N6O7
_chemical_formula_sum   'H144 C288 N96 O112'
_cell_volume   84232.72796822
_cell_formula_units_Z   16
loop_
 _symmetry_equiv_pos_site_id
 _symmetry_equiv_pos_as_xyz
  1  'x, y, z'
loop_
 _atom_site_type_symbol
 _atom_site_label
 _atom_site_symmetry_multiplicity
 _atom_site_fract_x
 _atom_site_fract_y
 _atom_site_fract_z
 _atom_site_occupancy
  H  7  1  0.04197700  0.99255700  0.95408300  1
  H  8  1  0.12408100  0.99656900  0.00407200  1
  H  15  1  0.91616000  0.00023200  0.99822300  1
  H  16  1  0.99868900  0.95857700  0.02330300  1
  H  19  1  0.03366900  0.98857100  0.06627700  1
  H  20  1  0.01018600  0.04385400  0.95377300  1
  H  35  1  0.45784000  0.00723200  0.45412200  1
  H  36  1  0.37576800  0.00320400  0.50415900  1
  H  43  1  0.58368800  0.99961300  0.49817700  1
  H  44  1  0.50116100  0.04125200  0.52330300  1
  H  47  1  0.46621300  0.01127000  0.56630700  1
  H  48  1  0.48967500  0.95593800  0.45379300  1
  H  63  1  0.23377100  0.78802200  0.20601200  1
  H  64  1  0.25037200  0.87015200  0.25210600  1
  H  71  1  0.24735800  0.66142600  0.24833700  1
  H  72  1  0.29250900  0.74353300  0.26685600  1
  H  75  1  0.28458800  0.77863700  0.30683100  1
  H  76  1  0.19372200  0.75093600  0.21091800  1
  H  91  1  0.26614200  0.21184200  0.70604100  1
  H  92  1  0.24945700  0.12970800  0.75209000  1
  H  99  1  0.25259800  0.33842800  0.74831400  1
  H  100  1  0.20737400  0.25636000  0.76681500  1
  H  103  1  0.21520100  0.22122100  0.80679000  1
  H  104  1  0.30623800  0.24885700  0.71103700  1
  H  119  1  0.76992700  0.22420800  0.79133900  1
  H  120  1  0.74713700  0.14242600  0.74722900  1
  H  127  1  0.75499400  0.35083600  0.74979000  1
  H  128  1  0.70692600  0.26928100  0.73666200  1
  H  131  1  0.71113000  0.23422300  0.69500200  1
  H  132  1  0.81066100  0.25981400  0.78118300  1
  H  147  1  0.72981600  0.77558500  0.29123400  1
  H  148  1  0.75271300  0.85738800  0.24722800  1
  H  155  1  0.74470600  0.64898000  0.24964000  1
  H  156  1  0.79284700  0.73050000  0.23657900  1
  H  159  1  0.78876100  0.76563400  0.19497300  1
  H  160  1  0.68907300  0.73995400  0.28106200  1
  H  175  1  0.51417800  0.51212300  0.45491100  1
  H  176  1  0.59671600  0.49461900  0.50009800  1
  H  183  1  0.38855900  0.50549100  0.49952300  1
  H  184  1  0.46930600  0.45837900  0.51924700  1
  H  187  1  0.50573300  0.46739000  0.55877900  1
  H  188  1  0.48426400  0.56435900  0.49675400  1
  H  203  1  0.98564200  0.48777000  0.95487000  1
  H  204  1  0.90312700  0.50516300  0.00013700  1
  H  211  1  0.11129300  0.49451200  0.99929500  1
  H  212  1  0.03051900  0.54151400  0.01917500  1
  H  215  1  0.99414200  0.53244000  0.05875000  1
  H  216  1  0.01564800  0.43552700  0.99666100  1
  H  231  1  0.91540200  0.88958300  0.03891500  1
  H  238  1  0.80955000  0.88911100  0.18242900  1
  H  239  1  0.84606600  0.80641600  0.15015000  1
  H  240  1  0.93113400  0.94937300  0.11235500  1
  H  248  1  0.81703000  0.81161500  0.19956800  1
  H  250  1  0.96291400  0.94954400  0.06529900  1
  H  257  1  0.58455900  0.11017400  0.53889600  1
  H  264  1  0.69029800  0.11073000  0.68246800  1
  H  265  1  0.65386800  0.19341800  0.65010000  1
  H  266  1  0.56870700  0.05048500  0.61239300  1
  H  274  1  0.68287200  0.18822800  0.69953000  1
  H  276  1  0.53698600  0.05032200  0.56532800  1
  H  283  1  0.35680800  0.65485800  0.29039700  1
  H  290  1  0.33956400  0.56031000  0.43893800  1
  H  291  1  0.42782600  0.58400000  0.41006400  1
  H  292  1  0.29860900  0.68541800  0.36037200  1
  H  300  1  0.38929300  0.55243200  0.47163100  1
  H  302  1  0.30183000  0.71117600  0.31083900  1
  H  309  1  0.14298600  0.34505500  0.79021400  1
  H  316  1  0.16031200  0.43970200  0.93874000  1
  H  317  1  0.07204600  0.41604100  0.90983800  1
  H  318  1  0.20117400  0.31451200  0.86020100  1
  H  326  1  0.11057500  0.44756300  0.97141400  1
  H  328  1  0.19782400  0.28865400  0.81070000  1
  H  335  1  0.58641600  0.89091300  0.45789500  1
  H  342  1  0.69213200  0.88979100  0.31281900  1
  H  343  1  0.66069600  0.80778200  0.35150000  1
  H  344  1  0.57405900  0.95209200  0.38497300  1
  H  352  1  0.68785700  0.81012300  0.30181400  1
  H  354  1  0.54161500  0.95357900  0.43041100  1
  H  361  1  0.91347500  0.10896100  0.95793400  1
  H  368  1  0.80762700  0.11000800  0.81293100  1
  H  369  1  0.83903800  0.19202000  0.85161000  1
  H  370  1  0.92574100  0.04774500  0.88502800  1
  H  378  1  0.81188800  0.18967500  0.80194200  1
  H  380  1  0.95825600  0.04628500  0.93042700  1
  H  387  1  0.14171800  0.65432200  0.20353500  1
  H  394  1  0.16438800  0.55084900  0.05959200  1
  H  395  1  0.07611400  0.57522000  0.08782300  1
  H  396  1  0.20764600  0.67507500  0.13688900  1
  H  404  1  0.11404800  0.54301300  0.02645700  1
  H  406  1  0.20343000  0.70463300  0.18307500  1
  H  413  1  0.35824800  0.34550700  0.70364100  1
  H  420  1  0.33544000  0.44913300  0.55977400  1
  H  421  1  0.42372400  0.42480600  0.58801800  1
  H  422  1  0.29229000  0.32481100  0.63701200  1
  H  430  1  0.38578200  0.45697100  0.52664700  1
  H  432  1  0.29662900  0.29513500  0.68308900  1
  H  439  1  0.11290700  0.11562100  0.98377600  1
  H  446  1  0.19404900  0.09903200  0.82510400  1
  H  447  1  0.16712100  0.18522800  0.85760700  1
  H  448  1  0.08016400  0.05287200  0.91897300  1
  H  456  1  0.18726500  0.17572800  0.80455400  1
  H  458  1  0.07229300  0.07757200  0.99651200  1
  H  465  1  0.38693000  0.88420400  0.48381000  1
  H  472  1  0.30575400  0.90082100  0.32515400  1
  H  473  1  0.33263800  0.81461900  0.35766800  1
  H  474  1  0.41968900  0.94692300  0.41898400  1
  H  482  1  0.31252000  0.82413200  0.30461800  1
  H  484  1  0.42758000  0.92222300  0.49652100  1
  H  491  1  0.63996600  0.35609200  0.72241300  1
  H  498  1  0.62963900  0.44689900  0.56900600  1
  H  499  1  0.54901500  0.41663000  0.61140500  1
  H  500  1  0.69091400  0.33040300  0.64517900  1
  H  508  1  0.55150600  0.43847500  0.55791700  1
  H  510  1  0.69365800  0.30254200  0.69385600  1
  H  517  1  0.85988800  0.64370500  0.22245800  1
  H  524  1  0.87019000  0.55282900  0.06907100  1
  H  525  1  0.95081700  0.58312200  0.11145700  1
  H  526  1  0.80896600  0.66938500  0.14521000  1
  H  534  1  0.94834400  0.56129700  0.05797900  1
  H  536  1  0.80633100  0.69733800  0.19387400  1
  H  543  1  0.39230700  0.10903700  0.52131800  1
  H  550  1  0.31312500  0.10180200  0.68251400  1
  H  551  1  0.32383300  0.18502200  0.63594500  1
  H  552  1  0.43164000  0.06035600  0.59404900  1
  H  560  1  0.30708800  0.18119100  0.69033000  1
  H  562  1  0.43887600  0.07672700  0.51429200  1
  H  569  1  0.10747200  0.89083100  0.02134500  1
  H  576  1  0.18674900  0.89804400  0.18250100  1
  H  577  1  0.17609100  0.81485200  0.13588500  1
  H  578  1  0.06816100  0.93944900  0.09413100  1
  H  586  1  0.19283100  0.81867100  0.19026400  1
  H  588  1  0.06086900  0.92310600  0.01437400  1
  H  595  1  0.86645800  0.35517700  0.77948500  1
  H  602  1  0.87154300  0.45258700  0.93035100  1
  H  603  1  0.95257800  0.42523200  0.88680000  1
  H  604  1  0.80964800  0.33742500  0.85484200  1
  H  612  1  0.95107900  0.44758800  0.93907300  1
  H  614  1  0.80678100  0.30710700  0.80892500  1
  H  621  1  0.63339000  0.64455600  0.27941900  1
  H  628  1  0.62832300  0.54717600  0.43030100  1
  H  629  1  0.54727900  0.57461500  0.38680900  1
  H  630  1  0.69023600  0.66231400  0.35474400  1
  H  638  1  0.54877100  0.55225700  0.43907000  1
  H  640  1  0.69306700  0.69263100  0.30887000  1
  C  1  1  0.03614300  0.99998500  0.00143300  1
  C  2  1  0.05319300  0.99526700  0.97446200  1
  C  3  1  0.08533600  0.99401400  0.97533100  1
  C  4  1  0.10065100  0.99742900  0.00342100  1
  C  5  1  0.08396000  0.00205500  0.03057500  1
  C  6  1  0.05164800  0.00305300  0.02968700  1
  C  9  1  0.00373900  0.00042000  0.99991100  1
  C  10  1  0.98776800  0.02450500  0.98529100  1
  C  11  1  0.95540900  0.02474200  0.98492100  1
  C  12  1  0.93953600  0.00016700  0.99849900  1
  C  13  1  0.95490700  0.97577600  0.01288700  1
  C  14  1  0.98710900  0.97629100  0.01337900  1
  C  21  1  0.93795900  0.95185000  0.02693800  1
  C  22  1  0.93832400  0.04889700  0.97147300  1
  C  23  1  0.10082300  0.98998300  0.95026000  1
  C  24  1  0.09863200  0.00482900  0.05633500  1
  C  29  1  0.46370500  0.99982200  0.50146900  1
  C  30  1  0.44663700  0.00452000  0.47450700  1
  C  31  1  0.41449400  0.00576600  0.47539500  1
  C  32  1  0.39919600  0.00235300  0.50349300  1
  C  33  1  0.41590600  0.99774900  0.53064200  1
  C  34  1  0.44821800  0.99676600  0.52973400  1
  C  37  1  0.49610800  0.99940000  0.49992700  1
  C  38  1  0.51207500  0.97531300  0.48530700  1
  C  39  1  0.54443400  0.97508500  0.48491900  1
  C  40  1  0.56031000  0.99967600  0.49846500  1
  C  41  1  0.54494100  0.02407000  0.51284800  1
  C  42  1  0.51274100  0.02354400  0.51336800  1
  C  49  1  0.56187000  0.04801900  0.52687100  1
  C  50  1  0.56151400  0.95092600  0.47147800  1
  C  51  1  0.39899100  0.00977900  0.45033000  1
  C  52  1  0.40124900  0.99497300  0.55640900  1
  C  57  1  0.24854500  0.78211100  0.25146200  1
  C  58  1  0.23969100  0.79927300  0.22557500  1
  C  59  1  0.23879500  0.83149300  0.22575200  1
  C  60  1  0.25012600  0.84677100  0.25176400  1
  C  61  1  0.26063100  0.83057900  0.27757100  1
  C  62  1  0.25884900  0.79823300  0.27767200  1
  C  65  1  0.24754300  0.74937800  0.25034700  1
  C  66  1  0.22177000  0.73318700  0.23903900  1
  C  67  1  0.22191400  0.70084600  0.23759200  1
  C  68  1  0.24753400  0.68479500  0.24873600  1
  C  69  1  0.27316800  0.70010500  0.26077900  1
  C  70  1  0.27321400  0.73230700  0.26005100  1
  C  77  1  0.29740000  0.68332800  0.27466000  1
  C  78  1  0.19789800  0.68410400  0.22353300  1
  C  79  1  0.22620600  0.84832500  0.20087400  1
  C  80  1  0.27290800  0.84713600  0.30261000  1
  C  85  1  0.25132800  0.21774700  0.75147900  1
  C  86  1  0.26019700  0.20058700  0.72559300  1
  C  87  1  0.26108000  0.16836800  0.72576200  1
  C  88  1  0.24971700  0.15308800  0.75175700  1
  C  89  1  0.23918200  0.16927900  0.77755600  1
  C  90  1  0.24097800  0.20162100  0.77766700  1
  C  93  1  0.25235200  0.25047900  0.75036800  1
  C  94  1  0.27815800  0.26664900  0.73910300  1
  C  95  1  0.27804100  0.29899200  0.73763100  1
  C  96  1  0.25240900  0.31505900  0.74872700  1
  C  97  1  0.22675300  0.29977500  0.76076300  1
  C  98  1  0.22668500  0.26757300  0.76004000  1
  C  105  1  0.20252600  0.31656900  0.77463100  1
  C  106  1  0.30211800  0.31567000  0.72357200  1
  C  107  1  0.27369800  0.15153700  0.70089600  1
  C  108  1  0.22687300  0.15271500  0.80257400  1
  C  113  1  0.75178400  0.23031500  0.74705700  1
  C  114  1  0.76204500  0.21309800  0.77237500  1
  C  115  1  0.76140700  0.18090300  0.77246800  1
  C  116  1  0.74817500  0.16579600  0.74731100  1
  C  117  1  0.73684400  0.18218300  0.72200500  1
  C  118  1  0.73918900  0.21446100  0.72171000  1
  C  121  1  0.75339500  0.26294200  0.74800600  1
  C  122  1  0.78054200  0.27870500  0.75619400  1
  C  123  1  0.78106000  0.31105300  0.75738700  1
  C  124  1  0.75447600  0.32746500  0.74949600  1
  C  125  1  0.72736300  0.31247900  0.74077300  1
  C  126  1  0.72698200  0.28028800  0.74133200  1
  C  133  1  0.70179700  0.32950400  0.73008300  1
  C  134  1  0.80697200  0.32746200  0.76798600  1
  C  135  1  0.77446000  0.16375700  0.79672900  1
  C  136  1  0.72282400  0.16577800  0.69789200  1
  C  141  1  0.74802000  0.76950000  0.24697500  1
  C  142  1  0.73772300  0.78670300  0.27228800  1
  C  143  1  0.73838400  0.81889900  0.27241300  1
  C  144  1  0.75165900  0.83401900  0.24728500  1
  C  145  1  0.76302600  0.81764600  0.22198900  1
  C  146  1  0.76066500  0.78537100  0.22166100  1
  C  149  1  0.74638000  0.73687200  0.24789700  1
  C  150  1  0.71921300  0.72112600  0.25605000  1
  C  151  1  0.71866300  0.68877800  0.25722700  1
  C  152  1  0.74524400  0.67234900  0.24935200  1
  C  153  1  0.77237000  0.68731400  0.24063600  1
  C  154  1  0.77277600  0.71950500  0.24121700  1
  C  161  1  0.79792700  0.67027300  0.22994600  1
  C  162  1  0.69270700  0.67243300  0.26783900  1
  C  163  1  0.72529700  0.83603500  0.29666100  1
  C  164  1  0.77708800  0.83407400  0.19791700  1
  C  169  1  0.50890800  0.50007100  0.50133900  1
  C  170  1  0.52563500  0.50646300  0.47447300  1
  C  171  1  0.55780300  0.50543000  0.47384800  1
  C  172  1  0.57335200  0.49573400  0.50030400  1
  C  173  1  0.55742800  0.48834100  0.52730400  1
  C  174  1  0.52518300  0.49101900  0.52790200  1
  C  177  1  0.47632800  0.50243900  0.50096100  1
  C  178  1  0.46101800  0.52866600  0.48946100  1
  C  179  1  0.42866300  0.52969800  0.48792800  1
  C  180  1  0.41193200  0.50477500  0.49986800  1
  C  181  1  0.42643400  0.47867700  0.51197400  1
  C  182  1  0.45858900  0.47761200  0.51147000  1
  C  189  1  0.40928800  0.45472200  0.52546600  1
  C  190  1  0.41277200  0.55415000  0.47356500  1
  C  191  1  0.57454000  0.51538300  0.44793100  1
  C  192  1  0.57430700  0.47796100  0.55288000  1
  C  197  1  0.99093900  0.49978300  0.00130300  1
  C  198  1  0.97419700  0.49340500  0.97444800  1
  C  199  1  0.94202900  0.49440200  0.97385000  1
  C  200  1  0.92649400  0.50405900  0.00032900  1
  C  201  1  0.94243100  0.51145700  0.02731900  1
  C  202  1  0.97467800  0.50880600  0.02788800  1
  C  205  1  0.02352400  0.49745200  0.00088100  1
  C  206  1  0.03884600  0.47124700  0.98934700  1
  C  207  1  0.07120000  0.47025700  0.98775700  1
  C  208  1  0.08791900  0.49519400  0.99968300  1
  C  209  1  0.07340200  0.52126800  0.01182100  1
  C  210  1  0.04124600  0.52229500  0.01137800  1
  C  217  1  0.09054000  0.54524400  0.02528400  1
  C  218  1  0.08710000  0.44582700  0.97336000  1
  C  219  1  0.92528900  0.48445600  0.94793100  1
  C  220  1  0.92556800  0.52180400  0.05291800  1
  C  225  1  0.92654400  0.92260200  0.07220500  1
  C  226  1  0.92088200  0.93073900  0.10280600  1
  C  228  1  0.88430000  0.89053000  0.10895200  1
  C  229  1  0.89003700  0.88018000  0.07879800  1
  C  230  1  0.91130300  0.89657500  0.06079600  1
  C  232  1  0.86299800  0.87666500  0.12903700  1
  C  233  1  0.84283600  0.89346800  0.14803900  1
  C  234  1  0.82334000  0.87712500  0.16794300  1
  C  235  1  0.82350700  0.84490500  0.16907600  1
  C  236  1  0.84445600  0.82967500  0.14996700  1
  C  251  1  0.57334500  0.07721100  0.57221500  1
  C  252  1  0.57897000  0.06910900  0.60283400  1
  C  254  1  0.61557100  0.10930300  0.60897100  1
  C  255  1  0.60987400  0.11961600  0.57879900  1
  C  256  1  0.58861300  0.10321600  0.56079600  1
  C  258  1  0.63688000  0.12316600  0.62904800  1
  C  259  1  0.65702100  0.10636400  0.64807200  1
  C  260  1  0.67655100  0.12271300  0.66794100  1
  C  261  1  0.67642300  0.15493400  0.66903400  1
  C  262  1  0.65546700  0.17015900  0.64992900  1
  C  277  1  0.32500800  0.67339100  0.32150400  1
  C  278  1  0.31605100  0.67216200  0.35239900  1
  C  280  1  0.35155200  0.63208200  0.36340100  1
  C  281  1  0.36280800  0.63319600  0.33304900  1
  C  282  1  0.34920500  0.65409200  0.31243800  1
  C  284  1  0.36171800  0.61094200  0.38573200  1
  C  285  1  0.34134800  0.59409300  0.40450900  1
  C  286  1  0.35384300  0.57330600  0.42581400  1
  C  287  1  0.38562700  0.56975400  0.42894600  1
  C  288  1  0.40468700  0.58667600  0.40939600  1
  C  303  1  0.17479000  0.32655000  0.82132800  1
  C  304  1  0.18378300  0.32782700  0.85220900  1
  C  306  1  0.14832000  0.36794800  0.86318000  1
  C  307  1  0.13703800  0.36679600  0.83283700  1
  C  308  1  0.15060700  0.34585600  0.81224900  1
  C  310  1  0.13815700  0.38909700  0.88550200  1
  C  311  1  0.15852600  0.40593700  0.90429300  1
  C  312  1  0.14603500  0.42672400  0.92559500  1
  C  313  1  0.11425300  0.43029200  0.92870900  1
  C  314  1  0.09518700  0.41337400  0.90916100  1
  C  329  1  0.57697600  0.92488800  0.42501100  1
  C  330  1  0.58379700  0.93327600  0.39470400  1
  C  332  1  0.62005600  0.89258800  0.38903800  1
  C  333  1  0.61320700  0.88203500  0.41891500  1
  C  334  1  0.59150300  0.89843000  0.43641300  1
  C  336  1  0.64150400  0.87846400  0.36911300  1
  C  337  1  0.66034000  0.89481900  0.34839300  1
  C  338  1  0.67965300  0.87807400  0.32862800  1
  C  339  1  0.68093100  0.84584900  0.32934000  1
  C  340  1  0.66141000  0.83105300  0.35023400  1
  C  355  1  0.92287100  0.07496900  0.92505400  1
  C  356  1  0.91600700  0.06655900  0.89476400  1
  C  358  1  0.87972800  0.10723500  0.88912700  1
  C  359  1  0.88661800  0.11780500  0.91898900  1
  C  360  1  0.90836000  0.10143400  0.93646100  1
  C  362  1  0.85825000  0.12134700  0.86922300  1
  C  363  1  0.83941400  0.10498900  0.84850700  1
  C  364  1  0.82006900  0.12172600  0.82877000  1
  C  365  1  0.81876900  0.15395100  0.82948600  1
  C  366  1  0.83831000  0.16875000  0.85036200  1
  C  381  1  0.17747700  0.66805800  0.17424700  1
  C  382  1  0.18892400  0.66345400  0.14450600  1
  C  384  1  0.15212400  0.62442900  0.13371300  1
  C  385  1  0.13846400  0.62893000  0.16276800  1
  C  386  1  0.15143900  0.65094400  0.18261200  1
  C  388  1  0.14220700  0.60246300  0.11195700  1
  C  389  1  0.16257700  0.58512300  0.09356800  1
  C  390  1  0.15010900  0.56405300  0.07250600  1
  C  391  1  0.11834300  0.56051500  0.06932900  1
  C  392  1  0.09926600  0.57775700  0.08857100  1
  C  407  1  0.32246900  0.33180600  0.67436300  1
  C  408  1  0.31097100  0.33648200  0.64465200  1
  C  410  1  0.34773300  0.37555100  0.63389600  1
  C  411  1  0.36142600  0.37100700  0.66292900  1
  C  412  1  0.34849500  0.34893100  0.68273800  1
  C  414  1  0.35763900  0.39754000  0.61215600  1
  C  415  1  0.33726300  0.41487300  0.59376200  1
  C  416  1  0.34972300  0.43594900  0.57270100  1
  C  417  1  0.38148500  0.43950800  0.56953700  1
  C  418  1  0.40057200  0.42226700  0.58877300  1
  C  433  1  0.09330000  0.08233200  0.95504800  1
  C  434  1  0.09413700  0.07043900  0.92527800  1
  C  436  1  0.13290700  0.10610000  0.91028100  1
  C  437  1  0.13300500  0.11905700  0.94000100  1
  C  438  1  0.11303300  0.10669800  0.96220500  1
  C  440  1  0.15104300  0.11731500  0.88586300  1
  C  441  1  0.16668100  0.09837900  0.86473100  1
  C  442  1  0.18332500  0.11248500  0.84085100  1
  C  443  1  0.18437500  0.14455400  0.83768700  1
  C  444  1  0.16766600  0.16195800  0.85897600  1
  C  459  1  0.40654600  0.91747800  0.45506900  1
  C  460  1  0.40570500  0.92936800  0.42529800  1
  C  462  1  0.36690100  0.89373500  0.41032400  1
  C  463  1  0.36680700  0.88078000  0.44004700  1
  C  464  1  0.38680000  0.89312600  0.46223900  1
  C  466  1  0.34874600  0.88252700  0.38591700  1
  C  467  1  0.33311500  0.90146600  0.36478400  1
  C  468  1  0.31643900  0.88736600  0.34092400  1
  C  469  1  0.31536900  0.85529600  0.33776700  1
  C  470  1  0.33209800  0.83789000  0.35903900  1
  C  485  1  0.66872400  0.34011000  0.68720000  1
  C  486  1  0.67402800  0.34267400  0.65556800  1
  C  488  1  0.63534200  0.38086200  0.65002200  1
  C  489  1  0.62785500  0.37845100  0.68143700  1
  C  490  1  0.64494200  0.35793800  0.69969200  1
  C  492  1  0.62036100  0.40064000  0.62925800  1
  C  493  1  0.63602700  0.41800300  0.60684300  1
  C  494  1  0.61855700  0.43540000  0.58599700  1
  C  495  1  0.58634100  0.43581300  0.58718700  1
  C  496  1  0.57224700  0.41778400  0.60982000  1
  C  511  1  0.83114200  0.65967600  0.18723300  1
  C  512  1  0.82581300  0.65707400  0.15560900  1
  C  514  1  0.86448700  0.61886900  0.15008500  1
  C  515  1  0.87197700  0.62129400  0.18149800  1
  C  516  1  0.85491000  0.64183900  0.19973900  1
  C  518  1  0.87946800  0.59908200  0.12932700  1
  C  519  1  0.86380300  0.58171700  0.10691200  1
  C  520  1  0.88127700  0.56434100  0.08605100  1
  C  521  1  0.91349100  0.56393500  0.08723700  1
  C  522  1  0.92758400  0.58196300  0.10987100  1
  C  537  1  0.41564200  0.08292600  0.55434400  1
  C  538  1  0.41544800  0.07468600  0.58532600  1
  C  540  1  0.37130600  0.10568700  0.59511200  1
  C  541  1  0.37031600  0.11465000  0.56395500  1
  C  542  1  0.39270400  0.10286400  0.54382800  1
  C  544  1  0.35116200  0.11722200  0.61781800  1
  C  545  1  0.33923400  0.09951500  0.64219500  1
  C  546  1  0.32080300  0.11422000  0.66433900  1
  C  547  1  0.31416000  0.14574400  0.66264700  1
  C  548  1  0.32718200  0.16205300  0.63813900  1
  C  563  1  0.08414400  0.91691000  0.05440300  1
  C  564  1  0.08435900  0.92513700  0.08538900  1
  C  566  1  0.12853600  0.89416900  0.09512200  1
  C  567  1  0.12950700  0.88522100  0.06396000  1
  C  568  1  0.10709200  0.89700000  0.04385600  1
  C  570  1  0.14871000  0.88263900  0.11780500  1
  C  571  1  0.16063700  0.90034200  0.14218700  1
  C  572  1  0.17911400  0.88564400  0.16429500  1
  C  573  1  0.18579400  0.85412600  0.16257800  1
  C  574  1  0.17274800  0.83782200  0.13808000  1
  C  589  1  0.83459400  0.34308400  0.81360200  1
  C  590  1  0.82750400  0.34833600  0.84455400  1
  C  592  1  0.86709900  0.38573900  0.84978200  1
  C  593  1  0.87636100  0.38060600  0.81915000  1
  C  594  1  0.85983600  0.35911700  0.80149500  1
  C  596  1  0.88158500  0.40643700  0.87015800  1
  C  597  1  0.86568900  0.42353900  0.89265400  1
  C  598  1  0.88285100  0.44160700  0.91319000  1
  C  599  1  0.91501900  0.44328400  0.91155400  1
  C  600  1  0.92934800  0.42564300  0.88875300  1
  C  615  1  0.66527200  0.65665400  0.31351500  1
  C  616  1  0.67239400  0.65138200  0.34445800  1
  C  618  1  0.63277100  0.61401300  0.34972000  1
  C  619  1  0.62350500  0.61913200  0.31908800  1
  C  620  1  0.64002800  0.64061400  0.30142200  1
  C  622  1  0.61828100  0.59332800  0.37010800  1
  C  623  1  0.63417700  0.57621500  0.39259700  1
  C  624  1  0.61701000  0.55817900  0.41315500  1
  C  625  1  0.58484000  0.55653200  0.41154000  1
  C  626  1  0.57050900  0.57418900  0.38875000  1
  N  227  1  0.90020000  0.91500800  0.11946600  1
  N  237  1  0.86289000  0.84570800  0.13105600  1
  N  241  1  0.84193700  0.92572300  0.14651200  1
  N  242  1  0.87369200  0.85505400  0.06679600  1
  N  247  1  0.80652300  0.82850500  0.18958300  1
  N  249  1  0.94569300  0.94016500  0.05475400  1
  N  253  1  0.59964500  0.08484800  0.61949900  1
  N  263  1  0.63701400  0.15412400  0.63103800  1
  N  267  1  0.65787400  0.07410700  0.64659800  1
  N  268  1  0.62625400  0.14471300  0.56678200  1
  N  273  1  0.69338600  0.17133000  0.68956100  1
  N  275  1  0.55424200  0.05960600  0.55474600  1
  N  279  1  0.32899800  0.65173500  0.37155400  1
  N  289  1  0.39226100  0.60631800  0.38898500  1
  N  293  1  0.30938300  0.59693700  0.40080000  1
  N  294  1  0.38587400  0.61272600  0.32350400  1
  N  299  1  0.39735100  0.54685900  0.44834600  1
  N  301  1  0.30972600  0.69240600  0.30183000  1
  N  305  1  0.17085500  0.34827900  0.87134900  1
  N  315  1  0.10761200  0.39372800  0.88875300  1
  N  319  1  0.19049100  0.40306500  0.90059900  1
  N  320  1  0.11399100  0.38728100  0.82327600  1
  N  325  1  0.10250700  0.45315500  0.94814100  1
  N  327  1  0.18997600  0.30742800  0.80168200  1
  N  331  1  0.60468700  0.91738500  0.37847300  1
  N  341  1  0.64294300  0.84746900  0.36878300  1
  N  345  1  0.66018500  0.92712100  0.34795000  1
  N  346  1  0.62877200  0.85657800  0.43126600  1
  N  351  1  0.69764600  0.82877400  0.30901200  1
  N  353  1  0.55716400  0.94246300  0.44184700  1
  N  357  1  0.89509000  0.08243600  0.87855300  1
  N  367  1  0.85679900  0.15234200  0.86889000  1
  N  371  1  0.83960100  0.07268500  0.84804200  1
  N  372  1  0.87106400  0.14326500  0.93134800  1
  N  377  1  0.80209500  0.17101700  0.80911900  1
  N  379  1  0.94273400  0.05742600  0.94186500  1
  N  383  1  0.17635800  0.64218400  0.12605500  1
  N  393  1  0.11168200  0.59781300  0.10854500  1
  N  397  1  0.19455600  0.58779600  0.09728800  1
  N  398  1  0.11342600  0.61077500  0.17205400  1
  N  403  1  0.10656600  0.53758600  0.04998700  1
  N  405  1  0.19205300  0.68836500  0.19322000  1
  N  409  1  0.32351100  0.35778900  0.62622600  1
  N  419  1  0.38816200  0.40220300  0.60874300  1
  N  423  1  0.30528400  0.41216500  0.59746400  1
  N  424  1  0.38644600  0.38917200  0.67223500  1
  N  429  1  0.39327600  0.46241200  0.55017200  1
  N  431  1  0.30800300  0.31136100  0.69328400  1
  N  435  1  0.11345300  0.08260000  0.90442100  1
  N  445  1  0.15215200  0.14804600  0.88176300  1
  N  449  1  0.16599300  0.06627700  0.86808900  1
  N  450  1  0.15334300  0.14307000  0.94725300  1
  N  455  1  0.19859600  0.15900400  0.81388700  1
  N  457  1  0.07385900  0.07028900  0.97560900  1
  N  461  1  0.38636900  0.91721800  0.40445500  1
  N  471  1  0.34762400  0.85179700  0.38182000  1
  N  475  1  0.33383800  0.93357000  0.36812600  1
  N  476  1  0.34645600  0.85678100  0.44731000  1
  N  481  1  0.30118200  0.84085600  0.31393900  1
  N  483  1  0.42600800  0.92950700  0.47562000  1
  N  487  1  0.65774600  0.36268300  0.63866800  1
  N  497  1  0.58935000  0.40126500  0.62955500  1
  N  501  1  0.66831600  0.41811500  0.60581400  1
  N  502  1  0.60475100  0.39710900  0.69408500  1
  N  507  1  0.56881900  0.45014600  0.56562700  1
  N  509  1  0.68661800  0.32093600  0.70425900  1
  N  513  1  0.84209000  0.63705100  0.13872100  1
  N  523  1  0.91048000  0.59847000  0.12961500  1
  N  527  1  0.83151400  0.58159400  0.10589500  1
  N  528  1  0.89506500  0.60262500  0.19415600  1
  N  533  1  0.93102200  0.54962700  0.06566800  1
  N  535  1  0.81332600  0.67893500  0.20427300  1
  N  539  1  0.39384900  0.08630600  0.60414400  1
  N  549  1  0.34469900  0.14756400  0.61723100  1
  N  553  1  0.34537200  0.06785500  0.64383500  1
  N  554  1  0.34693000  0.13422100  0.55333600  1
  N  559  1  0.29861400  0.16134000  0.68496000  1
  N  561  1  0.43759000  0.07180100  0.53589100  1
  N  565  1  0.10598400  0.91352700  0.10418200  1
  N  575  1  0.15519700  0.85230500  0.11719800  1
  N  579  1  0.15445100  0.93198900  0.14386600  1
  N  580  1  0.15289700  0.86567100  0.05331300  1
  N  585  1  0.20130600  0.83852400  0.18491000  1
  N  587  1  0.06217000  0.92802500  0.03597500  1
  N  591  1  0.84346800  0.36902700  0.86089700  1
  N  601  1  0.91254900  0.40827100  0.86951100  1
  N  605  1  0.83342300  0.42277100  0.89424400  1
  N  606  1  0.90074500  0.39751500  0.80642500  1
  N  611  1  0.93249100  0.45816400  0.93288600  1
  N  613  1  0.81701000  0.32301200  0.79713600  1
  N  617  1  0.65642100  0.63070900  0.36081600  1
  N  627  1  0.58731500  0.59153100  0.36948800  1
  N  631  1  0.66644500  0.57694700  0.39415500  1
  N  632  1  0.59911600  0.60222100  0.30637700  1
  N  637  1  0.56735900  0.54167900  0.43288800  1
  N  639  1  0.68282000  0.67676300  0.29704600  1
  O  17  1  0.03525900  0.00828800  0.05569400  1
  O  18  1  0.00343100  0.04914500  0.97448700  1
  O  25  1  0.91064100  0.94462800  0.01435400  1
  O  26  1  0.91282500  0.05782300  0.98651800  1
  O  27  1  0.11153500  0.00704700  0.07912900  1
  O  28  1  0.11451200  0.98661200  0.92807500  1
  O  45  1  0.46462700  0.99154600  0.55573300  1
  O  46  1  0.49641600  0.95066600  0.47451900  1
  O  53  1  0.58923100  0.05517300  0.51433800  1
  O  54  1  0.58700700  0.94199300  0.48653200  1
  O  55  1  0.38836300  0.99275100  0.57921200  1
  O  56  1  0.38528700  0.01313700  0.42815200  1
  O  73  1  0.26274100  0.78294200  0.30457700  1
  O  74  1  0.19523800  0.74845400  0.23312600  1
  O  81  1  0.30257800  0.65462600  0.26438100  1
  O  82  1  0.18900400  0.65802000  0.23753100  1
  O  83  1  0.25576700  0.87002200  0.31429700  1
  O  84  1  0.23949700  0.87528900  0.19372000  1
  O  101  1  0.23705200  0.21692300  0.80456100  1
  O  102  1  0.30468600  0.25135500  0.73324200  1
  O  109  1  0.19743500  0.34531300  0.76440900  1
  O  110  1  0.31083400  0.34180200  0.73759700  1
  O  111  1  0.24401400  0.12984600  0.81429300  1
  O  112  1  0.26039800  0.12458500  0.69371300  1
  O  129  1  0.73309800  0.22990900  0.69531900  1
  O  130  1  0.80726700  0.26296200  0.75926700  1
  O  137  1  0.69770700  0.35793100  0.74155500  1
  O  138  1  0.81434300  0.35333900  0.75277000  1
  O  139  1  0.73912600  0.14287800  0.68508500  1
  O  140  1  0.75873300  0.13903300  0.80653000  1
  O  157  1  0.76678800  0.76993200  0.19527300  1
  O  158  1  0.69250600  0.73689700  0.25913900  1
  O  165  1  0.80194400  0.64180300  0.24133600  1
  O  166  1  0.68543400  0.64656100  0.25256400  1
  O  167  1  0.76076800  0.85691800  0.18503500  1
  O  168  1  0.74102100  0.86074400  0.30650900  1
  O  185  1  0.51028400  0.48902300  0.55521600  1
  O  186  1  0.47750900  0.55280900  0.47873900  1
  O  193  1  0.41978900  0.42593500  0.52093500  1
  O  194  1  0.42343700  0.58278500  0.47852400  1
  O  195  1  0.59782900  0.49559300  0.56238300  1
  O  196  1  0.59927100  0.49873400  0.43981200  1
  O  213  1  0.98961800  0.51080200  0.05517900  1
  O  214  1  0.02236300  0.44709100  0.97863900  1
  O  221  1  0.08001400  0.57402200  0.02073600  1
  O  222  1  0.07645800  0.41717900  0.97829000  1
  O  223  1  0.90203700  0.50417300  0.06239600  1
  O  224  1  0.90052000  0.50106600  0.93985500  1
  O  243  1  0.84856600  0.93759200  0.17175200  1
  O  244  1  0.89140100  0.83396400  0.05884400  1
  O  245  1  0.85779600  0.86270800  0.04419900  1
  O  246  1  0.81608600  0.93511700  0.13843600  1
  O  269  1  0.65123600  0.06228800  0.67185800  1
  O  270  1  0.60857400  0.16580800  0.55878300  1
  O  271  1  0.64216800  0.13701600  0.54421100  1
  O  272  1  0.68371200  0.06466300  0.63852900  1
  O  295  1  0.29681100  0.60573800  0.42501100  1
  O  296  1  0.40901200  0.62679200  0.31411000  1
  O  297  1  0.37655500  0.59541400  0.30263800  1
  O  298  1  0.29745700  0.57215200  0.39271300  1
  O  321  1  0.20304100  0.39424800  0.92481700  1
  O  322  1  0.09083000  0.37322900  0.81391600  1
  O  323  1  0.12332000  0.40455000  0.80237800  1
  O  324  1  0.20244100  0.42784200  0.89252600  1
  O  347  1  0.65215300  0.93726100  0.32236400  1
  O  348  1  0.61055000  0.83561800  0.43836300  1
  O  349  1  0.64398100  0.86379600  0.45447300  1
  O  350  1  0.68596800  0.93785000  0.35443600  1
  O  373  1  0.84762900  0.06257100  0.82244100  1
  O  374  1  0.88928900  0.16423700  0.93840400  1
  O  375  1  0.85589400  0.13605500  0.95458500  1
  O  376  1  0.81383400  0.06192600  0.85453400  1
  O  399  1  0.20725600  0.59615300  0.07298100  1
  O  400  1  0.09047400  0.62689000  0.17798800  1
  O  401  1  0.11983600  0.59503700  0.19514500  1
  O  402  1  0.20631500  0.56307900  0.10581400  1
  O  425  1  0.29260500  0.40379500  0.57315300  1
  O  426  1  0.40942500  0.37307600  0.67811600  1
  O  427  1  0.38003600  0.40485100  0.69536400  1
  O  428  1  0.29349700  0.43687100  0.60598300  1
  O  451  1  0.15440100  0.05364800  0.84511300  1
  O  452  1  0.13919400  0.16654500  0.95565300  1
  O  453  1  0.17160400  0.13543500  0.96798800  1
  O  454  1  0.19229100  0.05561600  0.87213400  1
  O  477  1  0.34543200  0.94617400  0.34513300  1
  O  478  1  0.36059300  0.83329800  0.45570500  1
  O  479  1  0.32821100  0.86443000  0.46805400  1
  O  480  1  0.30755400  0.94426000  0.37217700  1
  O  503  1  0.67804300  0.40820700  0.58073100  1
  O  504  1  0.58375600  0.38130000  0.70552700  1
  O  505  1  0.61524400  0.41446200  0.71434200  1
  O  506  1  0.67882800  0.44445400  0.60999100  1
  O  529  1  0.82177500  0.59150800  0.08081800  1
  O  530  1  0.91607300  0.61842000  0.20558800  1
  O  531  1  0.88455300  0.58529400  0.21442800  1
  O  532  1  0.82101600  0.55524800  0.11006400  1
  O  555  1  0.35925200  0.06112900  0.66800100  1
  O  556  1  0.35774400  0.15835800  0.54227400  1
  O  557  1  0.33078400  0.12141100  0.53341400  1
  O  558  1  0.32124100  0.05244100  0.64250300  1
  O  581  1  0.14058300  0.93866900  0.16805300  1
  O  582  1  0.14209200  0.84153100  0.04224900  1
  O  583  1  0.16901700  0.87850300  0.03338100  1
  O  584  1  0.17855600  0.94744300  0.14252900  1
  O  607  1  0.82435100  0.41272400  0.91952000  1
  O  608  1  0.92189300  0.38029200  0.79760100  1
  O  609  1  0.89201000  0.41344700  0.78424900  1
  O  610  1  0.82207200  0.44875900  0.89004900  1
  O  633  1  0.67555200  0.58699300  0.41942000  1
  O  634  1  0.57796700  0.61944200  0.29755300  1
  O  635  1  0.60784400  0.58627900  0.28420500  1
  O  636  1  0.67776200  0.55094300  0.38996200  1
