# generated using pymatgen
data_H4C7N4
_symmetry_space_group_name_H-M   'P 1'
_cell_length_a   9.88060000
_cell_length_b   41.30245000
_cell_length_c   41.30240000
_cell_angle_alpha   119.99987986
_cell_angle_beta   90.00000000
_cell_angle_gamma   90.00000000
_symmetry_Int_Tables_number   1
_chemical_formula_structural   H4C7N4
_chemical_formula_sum   'H96 C168 N96'
_cell_volume   14597.06620901
_cell_formula_units_Z   24
loop_
 _symmetry_equiv_pos_site_id
 _symmetry_equiv_pos_as_xyz
  1  'x, y, z'
loop_
 _atom_site_type_symbol
 _atom_site_label
 _atom_site_symmetry_multiplicity
 _atom_site_fract_x
 _atom_site_fract_y
 _atom_site_fract_z
 _atom_site_occupancy
  C  1  1  0.00256100  0.02256800  0.99287000  1
  C  3  1  0.00255900  0.95521300  0.96536900  1
  C  5  1  0.00253100  0.99506700  0.03272300  1
  C  7  1  0.01425100  0.02652300  0.23883100  1
  C  9  1  0.99502900  0.99446500  0.17187400  1
  C  11  1  0.96617600  0.96080000  0.20509700  1
  C  13  1  0.01421000  0.19719600  0.96138100  1
  C  15  1  0.99505100  0.16231100  0.99345600  1
  C  17  1  0.96617500  0.22920100  0.02710800  1
  C  19  1  0.01429100  0.74908600  0.79076200  1
  C  21  1  0.99510100  0.81604600  0.82562600  1
  C  23  1  0.96638700  0.78279000  0.75873400  1
  C  25  1  0.98898600  0.78058100  0.22519800  1
  C  27  1  0.95982000  0.84392600  0.23957900  1
  C  29  1  0.95203800  0.82846300  0.28850400  1
  C  31  1  0.98903000  0.42952500  0.20733900  1
  C  33  1  0.95979000  0.38055700  0.14400100  1
  C  35  1  0.95191600  0.44494500  0.15946100  1
  C  37  1  0.98892700  0.76272300  0.55842100  1
  C  39  1  0.95983100  0.74834200  0.60738800  1
  C  41  1  0.95200700  0.69941600  0.54299900  1
  C  43  1  0.95491200  0.54807500  0.76845600  1
  C  45  1  0.00293300  0.59930800  0.75873600  1
  C  47  1  0.99952400  0.53656200  0.70675800  1
  C  49  1  0.95429400  0.21941300  0.78265000  1
  C  51  1  0.00293400  0.22915100  0.84358000  1
  C  53  1  0.99946200  0.28110600  0.83278000  1
  C  55  1  0.95463800  0.20527000  0.43980000  1
  C  57  1  0.00291400  0.14432200  0.38859600  1
  C  59  1  0.99946300  0.15512300  0.45135500  1
  C  61  1  0.97635900  0.86226300  0.43886600  1
  C  63  1  0.01154900  0.85290600  0.49096200  1
  C  65  1  0.04108900  0.91306300  0.49801400  1
  C  67  1  0.97618700  0.56148500  0.12564400  1
  C  69  1  0.01145700  0.62293200  0.13499900  1
  C  71  1  0.04083600  0.56982100  0.07483400  1
  C  73  1  0.97584000  0.54905700  0.42642300  1
  C  75  1  0.01142500  0.49698500  0.36498300  1
  C  77  1  0.04085900  0.48993500  0.41809100  1
  C  79  1  0.02296500  0.42299800  0.55474000  1
  C  81  1  0.98896900  0.36126100  0.50332200  1
  C  83  1  0.05545100  0.40973700  0.49199000  1
  C  85  1  0.02290300  0.43312700  0.87123600  1
  C  87  1  0.98894800  0.48455200  0.86092300  1
  C  89  1  0.05531900  0.49587400  0.92073400  1
  C  91  1  0.02279300  0.11668500  0.56492500  1
  C  93  1  0.98876500  0.12698100  0.62665400  1
  C  95  1  0.05490500  0.06715300  0.57814100  1
  C  97  1  0.99926000  0.99645700  0.13789400  1
  C  98  1  0.02723300  0.03003000  0.13775700  1
  C  99  1  0.03036100  0.03171500  0.10419000  1
  C  100  1  0.00388600  0.99845900  0.06944000  1
  C  104  1  0.06438800  0.06808600  0.10685800  1
  C  108  1  0.99930000  0.12634300  0.99147000  1
  C  109  1  0.02725500  0.09263000  0.95789900  1
  C  110  1  0.03039200  0.05738000  0.95621800  1
  C  111  1  0.00393800  0.05589100  0.98947700  1
  C  115  1  0.06441700  0.02367700  0.91984700  1
  C  119  1  0.99931300  0.85003200  0.86159300  1
  C  120  1  0.02721600  0.85017600  0.89531000  1
  C  121  1  0.03033400  0.88374600  0.93055900  1
  C  122  1  0.00393600  0.91849400  0.93204400  1
  C  126  1  0.06428600  0.88108000  0.96426900  1
  C  130  1  0.94791900  0.87183700  0.22882200  1
  C  131  1  0.86394700  0.90333900  0.24893700  1
  C  132  1  0.85793400  0.93222000  0.23998700  1
  C  133  1  0.94132800  0.92951500  0.21044600  1
  C  137  1  0.76346600  0.96400300  0.26175000  1
  C  141  1  0.94791900  0.34189000  0.11609200  1
  C  142  1  0.86406700  0.33050000  0.08456400  1
  C  143  1  0.85810700  0.29267100  0.05567600  1
  C  144  1  0.94155200  0.26585100  0.05840100  1
  C  148  1  0.76366700  0.28265500  0.02388700  1
  C  152  1  0.94803000  0.75908000  0.64605300  1
  C  153  1  0.86416900  0.73893600  0.65743300  1
  C  154  1  0.85821700  0.74786400  0.69525800  1
  C  155  1  0.94165200  0.77740400  0.72207500  1
  C  159  1  0.76388100  0.72606600  0.70526700  1
  C  163  1  0.02372300  0.63783200  0.77018000  1
  C  164  1  0.11237100  0.64823200  0.75007100  1
  C  165  1  0.11934500  0.68548400  0.75739800  1
  C  166  1  0.03485700  0.71275500  0.78601100  1
  C  170  1  0.21485600  0.69454100  0.73511700  1
  C  174  1  0.02384500  0.21770700  0.87065600  1
  C  175  1  0.11228100  0.23786900  0.90120600  1
  C  176  1  0.11920300  0.23057200  0.93115100  1
  C  177  1  0.03466500  0.20197000  0.92980700  1
  C  181  1  0.21460300  0.25288600  0.96250900  1
  C  185  1  0.02378500  0.11723400  0.35007900  1
  C  186  1  0.11218900  0.08667600  0.33969100  1
  C  187  1  0.11915100  0.05673800  0.30244600  1
  C  188  1  0.03466300  0.05809200  0.27518600  1
  C  192  1  0.21453000  0.02537600  0.29340400  1
  C  196  1  0.01385500  0.66275200  0.15645900  1
  C  197  1  0.05838600  0.68524400  0.14149700  1
  C  198  1  0.05406600  0.72474900  0.16266200  1
  C  199  1  0.00372400  0.74147400  0.19984100  1
  C  203  1  0.10501500  0.74672000  0.14558000  1
  C  207  1  0.01389500  0.47863000  0.32516500  1
  C  208  1  0.05861000  0.44119200  0.30267600  1
  C  209  1  0.05431700  0.42285000  0.26317300  1
  C  210  1  0.00377600  0.44328200  0.24644500  1
  C  214  1  0.10545100  0.38381700  0.24120200  1
  C  218  1  0.01393600  0.83144500  0.50931700  1
  C  219  1  0.05868000  0.84638600  0.54675300  1
  C  220  1  0.05434000  0.82522500  0.56509500  1
  C  221  1  0.00375500  0.78807100  0.54466500  1
  C  225  1  0.10553900  0.84227500  0.60412200  1
  C  229  1  0.96373700  0.49952700  0.83721600  1
  C  230  1  0.89637200  0.47966200  0.80265400  1
  C  231  1  0.88159400  0.49534000  0.77920900  1
  C  232  1  0.93954800  0.53131100  0.79113200  1
  C  236  1  0.80433300  0.47377100  0.74373400  1
  C  240  1  0.96352400  0.15068900  0.66533600  1
  C  241  1  0.89609800  0.18524000  0.68002100  1
  C  242  1  0.88116000  0.20867200  0.71914200  1
  C  243  1  0.93893500  0.19674700  0.74320700  1
  C  247  1  0.80383700  0.24413500  0.73304200  1
  C  251  1  0.96369500  0.32258300  0.48835000  1
  C  252  1  0.89633200  0.30789600  0.50822500  1
  C  253  1  0.88148400  0.26877400  0.49255100  1
  C  254  1  0.93943900  0.24472000  0.45658500  1
  C  258  1  0.80419100  0.25488000  0.51412600  1
  C  262  1  0.94800000  0.85237700  0.40119100  1
  C  263  1  0.88843600  0.87854700  0.39283100  1
  C  264  1  0.88418700  0.87234800  0.35592400  1
  C  265  1  0.94105500  0.83853800  0.32694700  1
  C  269  1  0.82055600  0.90123300  0.34935600  1
  C  273  1  0.94785600  0.53367500  0.13550100  1
  C  274  1  0.88815400  0.49916000  0.10936200  1
  C  275  1  0.88387400  0.46846800  0.11558500  1
  C  276  1  0.94084400  0.47330900  0.14938700  1
  C  280  1  0.82011300  0.43302100  0.08672700  1
  C  284  1  0.94757200  0.58673300  0.45421400  1
  C  285  1  0.88799200  0.59511200  0.48875000  1
  C  286  1  0.88391400  0.63201600  0.51946400  1
  C  287  1  0.94093400  0.66097600  0.51463200  1
  C  291  1  0.82029300  0.63859800  0.55492300  1
  C  295  1  0.02601000  0.45190300  0.59293600  1
  C  296  1  0.08458900  0.48726500  0.60395300  1
  C  297  1  0.07987300  0.51688100  0.64132600  1
  C  298  1  0.01446200  0.51004500  0.66801500  1
  C  302  1  0.14593100  0.55294000  0.65067400  1
  C  306  1  0.02604200  0.39492700  0.86192400  1
  C  307  1  0.08479200  0.38390100  0.88624100  1
  C  308  1  0.08008600  0.34652700  0.87848500  1
  C  309  1  0.01449400  0.31984500  0.84498700  1
  C  313  1  0.14632700  0.33717200  0.90517000  1
  C  317  1  0.02604000  0.12600400  0.53604400  1
  C  318  1  0.08479100  0.10168000  0.50070200  1
  C  319  1  0.08005600  0.10942200  0.47107600  1
  C  320  1  0.01448400  0.14292000  0.47788600  1
  C  324  1  0.14631800  0.08273900  0.43504200  1
  C  328  1  0.07956800  0.02863800  0.56200000  1
  C  329  1  0.16182200  0.00969400  0.52986300  1
  C  330  1  0.15778300  0.97045300  0.50784900  1
  C  331  1  0.07054300  0.95121200  0.51987200  1
  C  335  1  0.24298200  0.95123300  0.47359900  1
  C  339  1  0.07983100  0.51825400  0.95925100  1
  C  340  1  0.16203500  0.50509500  0.97824000  1
  C  341  1  0.15765300  0.52228000  0.01747700  1
  C  342  1  0.07028800  0.55351600  0.03668100  1
  C  346  1  0.24268600  0.50723300  0.03671700  1
  C  350  1  0.07988300  0.42587200  0.46960400  1
  C  351  1  0.16199200  0.45804700  0.48280200  1
  C  352  1  0.15768200  0.48010600  0.46562800  1
  C  353  1  0.07039000  0.46807900  0.43438000  1
  C  357  1  0.24268800  0.51439700  0.48069000  1
  H  102  1  0.04615100  0.05381000  0.16261700  1
  H  105  1  0.08833500  0.08995000  0.13529000  1
  H  106  1  0.97864400  0.07788900  0.09741900  1
  H  107  1  0.15262200  0.06473700  0.08953900  1
  H  113  1  0.04618100  0.09370900  0.93411900  1
  H  116  1  0.08835600  0.03024300  0.89798400  1
  H  117  1  0.97866500  0.00443400  0.91004600  1
  H  118  1  0.15265200  0.00970500  0.92319500  1
  H  124  1  0.04610000  0.82531600  0.89423700  1
  H  127  1  0.08819400  0.85264300  0.95770500  1
  H  128  1  0.97852200  0.89052500  0.98350100  1
  H  129  1  0.15252000  0.89839100  0.97824400  1
  H  135  1  0.80636800  0.90532800  0.27045200  1
  H  138  1  0.68724700  0.95745300  0.27674100  1
  H  139  1  0.70967400  0.97109500  0.24301800  1
  H  140  1  0.81958600  0.98839500  0.28234200  1
  H  146  1  0.80650000  0.35002500  0.08256800  1
  H  149  1  0.68742000  0.30419300  0.03044000  1
  H  150  1  0.70989600  0.25682600  0.01678300  1
  H  151  1  0.81980700  0.27887100  0.99950400  1
  H  157  1  0.80663100  0.71741400  0.63790400  1
  H  160  1  0.68769000  0.71106300  0.68372700  1
  H  161  1  0.71006700  0.74477800  0.73109600  1
  H  162  1  0.82011300  0.70548200  0.70905600  1
  H  168  1  0.17074800  0.62824700  0.72919600  1
  H  171  1  0.28649200  0.67196500  0.71910300  1
  H  172  1  0.27363900  0.71942000  0.75368600  1
  H  173  1  0.15901700  0.69964100  0.71533300  1
  H  179  1  0.17067800  0.25873600  0.90208700  1
  H  182  1  0.28622600  0.26891000  0.95595200  1
  H  183  1  0.27341400  0.23433800  0.96884000  1
  H  184  1  0.15867400  0.27266100  0.98737500  1
  H  190  1  0.17058700  0.08579600  0.35967900  1
  H  193  1  0.28611600  0.03192600  0.31599100  1
  H  194  1  0.27337400  0.01904600  0.26853000  1
  H  195  1  0.15857300  0.00051100  0.28830500  1
  H  201  1  0.09426500  0.67281900  0.11470800  1
  H  204  1  0.14890700  0.72915800  0.11792200  1
  H  205  1  0.18351000  0.76611400  0.16329600  1
  H  206  1  0.02204300  0.76241800  0.14251600  1
  H  212  1  0.09462900  0.42684600  0.31510500  1
  H  215  1  0.14947400  0.37374300  0.25876400  1
  H  216  1  0.18388500  0.38216900  0.22180400  1
  H  217  1  0.02254800  0.36502200  0.22550500  1
  H  223  1  0.09476100  0.87315500  0.56109800  1
  H  226  1  0.14961400  0.86990700  0.61419400  1
  H  227  1  0.18394500  0.82451400  0.60575800  1
  H  228  1  0.02265900  0.84538200  0.62292500  1
  H  234  1  0.85832600  0.45365500  0.79453700  1
  H  237  1  0.74644300  0.45085400  0.74288600  1
  H  238  1  0.87360100  0.46170700  0.72000300  1
  H  239  1  0.73247700  0.49207500  0.74053400  1
  H  245  1  0.85805600  0.19335200  0.66212700  1
  H  248  1  0.74599800  0.24497900  0.71096400  1
  H  249  1  0.87306300  0.26787700  0.74472600  1
  H  250  1  0.73193800  0.24732100  0.75453200  1
  H  256  1  0.85828800  0.32579100  0.53423000  1
  H  259  1  0.74633100  0.27695800  0.53704300  1
  H  260  1  0.87343900  0.24321000  0.52619300  1
  H  261  1  0.73231400  0.23338100  0.49582500  1
  H  267  1  0.85078700  0.90305700  0.41418200  1
  H  270  1  0.77306900  0.92369000  0.37439900  1
  H  271  1  0.74204900  0.88845500  0.32800100  1
  H  272  1  0.89706000  0.91393800  0.34017300  1
  H  278  1  0.85039400  0.49600200  0.08486400  1
  H  281  1  0.77251400  0.43560800  0.06428400  1
  H  282  1  0.74167500  0.42446200  0.09953900  1
  H  283  1  0.89656400  0.41111900  0.07399800  1
  H  289  1  0.85031200  0.57376900  0.49191700  1
  H  292  1  0.77269500  0.61356400  0.55233800  1
  H  293  1  0.74187800  0.65997500  0.56351200  1
  H  294  1  0.89681900  0.64775200  0.57680000  1
  H  300  1  0.13156200  0.49176700  0.58448800  1
  H  303  1  0.19790200  0.55196600  0.62688700  1
  H  304  1  0.22122100  0.56019000  0.67259200  1
  H  305  1  0.06999600  0.57502000  0.66021800  1
  H  311  1  0.13188500  0.40335900  0.91018900  1
  H  314  1  0.19843900  0.36095000  0.92795300  1
  H  315  1  0.22152500  0.31523200  0.89046800  1
  H  316  1  0.07047700  0.32765200  0.91774700  1
  H  322  1  0.13187500  0.07773300  0.49621900  1
  H  325  1  0.19844100  0.05996000  0.43604000  1
  H  326  1  0.22151400  0.09744000  0.42780200  1
  H  327  1  0.07048100  0.07015500  0.41294100  1
  H  333  1  0.21959100  0.02465100  0.52134100  1
  H  336  1  0.31497100  0.97013900  0.47148100  1
  H  337  1  0.17930000  0.93940300  0.44871900  1
  H  338  1  0.30090300  0.92883200  0.47383200  1
  H  344  1  0.21962300  0.48158000  0.96330800  1
  H  347  1  0.31479700  0.48623600  0.01783900  1
  H  348  1  0.17887800  0.49414900  0.04848700  1
  H  349  1  0.30045700  0.52986700  0.05916400  1
  H  355  1  0.21971200  0.46658600  0.50629000  1
  H  358  1  0.31470900  0.51652500  0.50171100  1
  H  359  1  0.17886500  0.53924700  0.49375000  1
  H  360  1  0.30055700  0.51420600  0.45806900  1
  N  2  1  0.00226900  0.98699400  0.96285900  1
  N  4  1  0.00224600  0.96077700  0.00094100  1
  N  6  1  0.00224800  0.02507500  0.02715900  1
  N  8  1  0.01411900  0.02637900  0.20579100  1
  N  10  1  0.97209800  0.96175600  0.17235000  1
  N  12  1  0.98935200  0.99349300  0.23694900  1
  N  14  1  0.01410800  0.16430600  0.96153600  1
  N  16  1  0.97215700  0.19550400  0.02616200  1
  N  18  1  0.98936300  0.22835000  0.99441100  1
  N  20  1  0.01418000  0.78213800  0.82364500  1
  N  22  1  0.97224700  0.81554800  0.79242800  1
  N  24  1  0.98951400  0.75094900  0.75959800  1
  N  26  1  0.98201500  0.80709100  0.21462900  1
  N  28  1  0.94524600  0.85345300  0.27614300  1
  N  30  1  0.97381600  0.79225200  0.26216500  1
  N  32  1  0.98204500  0.39244500  0.18083500  1
  N  34  1  0.94515400  0.40759300  0.13447400  1
  N  36  1  0.97375700  0.45482000  0.19566900  1
  N  38  1  0.98203500  0.77329200  0.59550200  1
  N  40  1  0.94524500  0.71177800  0.58034900  1
  N  42  1  0.97374700  0.72575500  0.53312500  1
  N  44  1  0.97339000  0.58562500  0.78202600  1
  N  46  1  0.01479600  0.57397500  0.72161700  1
  N  48  1  0.97069100  0.52477400  0.73116600  1
  N  50  1  0.97310800  0.20585500  0.80662700  1
  N  52  1  0.01487800  0.26626000  0.85534000  1
  N  54  1  0.97033600  0.25669200  0.79660100  1
  N  56  1  0.97329000  0.18128700  0.40225600  1
  N  58  1  0.01479700  0.13255600  0.41394500  1
  N  60  1  0.97054600  0.19131100  0.46312500  1
  N  62  1  0.98074100  0.83919400  0.45385800  1
  N  64  1  0.03971300  0.88999400  0.51222600  1
  N  66  1  0.00792300  0.89871200  0.46177000  1
  N  68  1  0.98063900  0.59954500  0.14871600  1
  N  70  1  0.03954100  0.60710500  0.09790500  1
  N  72  1  0.00767100  0.54793800  0.08919200  1
  N  74  1  0.98046600  0.53407900  0.38836700  1
  N  76  1  0.03959100  0.47572600  0.38080900  1
  N  78  1  0.00752000  0.52616700  0.43997800  1
  N  80  1  0.98951600  0.38633900  0.54105800  1
  N  82  1  0.02088800  0.37361400  0.47920600  1
  N  84  1  0.05382400  0.43315900  0.52923900  1
  N  86  1  0.98950300  0.44681500  0.84826100  1
  N  88  1  0.02080000  0.50866200  0.89739800  1
  N  90  1  0.05374200  0.45862300  0.90690300  1
  N  92  1  0.98940300  0.13965500  0.60158900  1
  N  94  1  0.02053500  0.09049800  0.61427900  1
  N  96  1  0.05349000  0.08101000  0.55474500  1
  N  101  1  0.97926100  0.96727100  0.07210700  1
  N  103  1  0.97686500  0.96616900  0.10347000  1
  N  112  1  0.97930300  0.08974700  0.02066300  1
  N  114  1  0.97690600  0.12221100  0.02176200  1
  N  123  1  0.97935100  0.91582100  0.89818600  1
  N  125  1  0.97696500  0.88445700  0.86572400  1
  N  134  1  0.01717600  0.89778800  0.19177500  1
  N  136  1  0.01920100  0.87076300  0.20001800  1
  N  145  1  0.01719600  0.27889100  0.09015600  1
  N  147  1  0.01913800  0.31415900  0.11718500  1
  N  156  1  0.01722400  0.79615700  0.70906000  1
  N  158  1  0.01914900  0.78792300  0.67379400  1
  N  167  1  0.95548700  0.70089500  0.80509200  1
  N  169  1  0.95041700  0.66600500  0.79785400  1
  N  178  1  0.95545000  0.18283100  0.89884800  1
  N  180  1  0.95050900  0.19004400  0.87117600  1
  N  189  1  0.95550700  0.08906400  0.28700600  1
  N  191  1  0.95054800  0.11673100  0.32189200  1
  N  200  1  0.96515300  0.71775400  0.21220500  1
  N  202  1  0.96923200  0.68120600  0.19229700  1
  N  211  1  0.96502300  0.47935300  0.27016100  1
  N  213  1  0.96910000  0.49599300  0.30671000  1
  N  222  1  0.96499000  0.77572400  0.50859700  1
  N  224  1  0.96910000  0.79562900  0.49195600  1
  N  233  1  0.00000700  0.54884500  0.82525700  1
  N  235  1  0.01055600  0.53415600  0.84680700  1
  N  244  1  0.99971400  0.16265900  0.72662000  1
  N  246  1  0.01040500  0.14111700  0.69038400  1
  N  255  1  0.99999300  0.26129400  0.43904200  1
  N  257  1  0.01055600  0.29753200  0.45372600  1
  N  266  1  0.99206400  0.81426700  0.33729000  1
  N  268  1  0.99670200  0.82053700  0.37173800  1
  N  277  1  0.99193400  0.50792000  0.17363700  1
  N  279  1  0.99658800  0.53608700  0.16734900  1
  N  288  1  0.99195400  0.65062500  0.48001700  1
  N  290  1  0.99646700  0.61617600  0.45183900  1
  N  299  1  0.96352600  0.47497200  0.65530300  1
  N  301  1  0.96801900  0.44777900  0.62042900  1
  N  310  1  0.96341300  0.33256500  0.82264900  1
  N  312  1  0.96789800  0.36743800  0.83033100  1
  N  321  1  0.96337200  0.16526200  0.51294000  1
  N  323  1  0.96784600  0.15758800  0.54013700  1
  N  332  1  0.99894600  0.97127100  0.55202600  1
  N  334  1  0.00224600  0.00778800  0.57183000  1
  N  343  1  0.99888600  0.56563300  0.01661300  1
  N  345  1  0.00242000  0.54891900  0.98010000  1
  N  354  1  0.99895800  0.43589800  0.42225000  1
  N  356  1  0.00249000  0.41607700  0.43894100  1
