# generated using pymatgen
data_H20C33N4
_symmetry_space_group_name_H-M   'P 1'
_cell_length_a   12.02773333
_cell_length_b   12.02776667
_cell_length_c   24.05575000
_cell_angle_alpha   89.94730000
_cell_angle_beta   90.05270000
_cell_angle_gamma   90.00000000
_symmetry_Int_Tables_number   1
_chemical_formula_structural   H20C33N4
_chemical_formula_sum   'H40 C66 N8'
_cell_volume   3480.06470975
_cell_formula_units_Z   2
loop_
 _symmetry_equiv_pos_site_id
 _symmetry_equiv_pos_as_xyz
  1  'x, y, z'
loop_
 _atom_site_type_symbol
 _atom_site_label
 _atom_site_symmetry_multiplicity
 _atom_site_fract_x
 _atom_site_fract_y
 _atom_site_fract_z
 _atom_site_occupancy
  C  1  1  0.99576600  0.90170700  0.86801300  1
  C  2  1  0.91695600  0.88493800  0.91077300  1
  C  3  1  0.94174750  0.81782750  0.95673300  1
  C  4  1  0.04728800  0.76642700  0.96361700  1
  C  5  1  0.13109350  0.80001500  0.92562500  1
  C  6  1  0.10544900  0.86389450  0.87802700  1
  C  7  1  0.06277150  0.68137900  0.01035500  1
  C  8  1  0.05963200  0.75801900  0.06103100  1
  C  9  1  0.15458550  0.82133550  0.07660600  1
  C  10  1  0.15411500  0.89126600  0.12355300  1
  C  11  1  0.05573300  0.90690850  0.15448700  1
  C  12  1  0.95847700  0.85113000  0.13702100  1
  C  13  1  0.96069900  0.77837250  0.09148800  1
  C  14  1  0.97363600  0.59075150  0.00830400  1
  C  15  1  0.16606200  0.60788050  0.00939300  1
  C  16  1  0.21317700  0.56696600  0.05957300  1
  C  17  1  0.30129050  0.49085900  0.05979500  1
  C  18  1  0.34825050  0.45148300  0.00960300  1
  C  19  1  0.29446800  0.48249750  0.95955000  1
  C  20  1  0.20357000  0.55606050  0.95981300  1
  C  21  1  0.92410050  0.55613650  0.95753700  1
  C  22  1  0.83802450  0.47739800  0.95622900  1
  C  23  1  0.80061700  0.42585450  0.00567900  1
  C  24  1  0.86149800  0.44657550  0.05495600  1
  C  25  1  0.94640150  0.52665750  0.05600800  1
  C  42  1  0.94201450  0.04841300  0.36281600  1
  C  43  1  0.90731900  0.15174800  0.38435900  1
  C  44  1  0.83096800  0.15638600  0.42867300  1
  C  45  1  0.77873650  0.05897450  0.44967900  1
  C  46  1  0.81978100  0.95587700  0.42954500  1
  C  47  1  0.89895150  0.95036650  0.38683900  1
  C  48  1  0.69067350  0.06319150  0.49529600  1
  C  49  1  0.76399050  0.05066000  0.54681400  1
  C  50  1  0.79825950  0.94355600  0.56506100  1
  C  51  1  0.85546750  0.92823850  0.61525000  1
  C  52  1  0.88430900  0.02033950  0.64851300  1
  C  53  1  0.86447900  0.12817800  0.62763400  1
  C  54  1  0.80800000  0.14263100  0.57669300  1
  C  55  1  0.61575850  0.16526350  0.49295100  1
  C  56  1  0.60072200  0.97386000  0.49111000  1
  C  57  1  0.54458700  0.93343050  0.53895900  1
  C  58  1  0.46740950  0.84607100  0.53564400  1
  C  59  1  0.43808050  0.79927150  0.48370000  1
  C  60  1  0.47886650  0.85274450  0.43534500  1
  C  61  1  0.55860750  0.93755300  0.43907300  1
  C  62  1  0.57476450  0.20484250  0.44118900  1
  C  63  1  0.49842350  0.29256300  0.43778800  1
  C  64  1  0.45860750  0.34585050  0.48625300  1
  C  65  1  0.49012200  0.29996650  0.53812500  1
  C  66  1  0.56437850  0.20988200  0.54113900  1
  C  83  1  0.99893900  0.04037900  0.31171000  1
  C  84  1  0.09286000  0.97152450  0.30430200  1
  C  85  1  0.12154850  0.93589000  0.25050000  1
  C  86  1  0.05366900  0.96688350  0.20510700  1
  C  91  1  0.96204150  0.94292500  0.81482300  1
  C  92  1  0.85473400  0.92025750  0.79341400  1
  C  93  1  0.82765850  0.95022600  0.73890100  1
  C  94  1  0.90833250  0.00202950  0.70528600  1
  C  99  1  0.68934700  0.38611300  0.00901900  1
  C  100  1  0.62729200  0.34463350  0.96355700  1
  C  101  1  0.51051650  0.35316900  0.96414400  1
  C  102  1  0.45660350  0.40277600  0.01017500  1
  C  107  1  0.41176550  0.45439850  0.48216200  1
  C  108  1  0.35481950  0.51075500  0.52518100  1
  C  109  1  0.34792500  0.62763800  0.52410800  1
  C  110  1  0.39841850  0.68762100  0.48018700  1
  H  26  1  0.33457100  0.46915100  0.09748300  1
  H  27  1  0.18406450  0.59255600  0.09735700  1
  H  28  1  0.32387250  0.45715450  0.92180100  1
  H  29  1  0.16659100  0.57392450  0.92259100  1
  H  30  1  0.94498500  0.59337850  0.92079100  1
  H  31  1  0.79584000  0.46793600  0.91959200  1
  H  32  1  0.83684600  0.41219050  0.09192500  1
  H  33  1  0.98306300  0.54326250  0.09343700  1
  H  34  1  0.88779500  0.74037300  0.08083900  1
  H  35  1  0.88573350  0.85890950  0.15881500  1
  H  36  1  0.22593100  0.93100400  0.13486200  1
  H  37  1  0.22715800  0.81352850  0.05479400  1
  H  38  1  0.21094300  0.77268450  0.93019900  1
  H  39  1  0.87799050  0.80019400  0.98337700  1
  H  40  1  0.83744700  0.91435550  0.90717500  1
  H  41  1  0.16628250  0.87582000  0.84889400  1
  H  67  1  0.44202950  0.81077850  0.57216100  1
  H  68  1  0.56586050  0.96138300  0.57766900  1
  H  69  1  0.45970900  0.82292650  0.39662500  1
  H  70  1  0.59038450  0.96820050  0.40276700  1
  H  71  1  0.60213350  0.17136000  0.40463700  1
  H  72  1  0.47754450  0.32147600  0.39908800  1
  H  73  1  0.46528300  0.33543500  0.57466800  1
  H  74  1  0.58318650  0.17923100  0.57965000  1
  H  75  1  0.79202350  0.22201350  0.56374700  1
  H  76  1  0.88287850  0.19656650  0.65123600  1
  H  77  1  0.86811050  0.84876300  0.62932700  1
  H  78  1  0.77392150  0.87369800  0.54418300  1
  H  79  1  0.78836500  0.88246100  0.44405700  1
  H  80  1  0.80897050  0.23300100  0.44339300  1
  H  81  1  0.93588750  0.22432850  0.36727100  1
  H  82  1  0.91902050  0.87388750  0.37100100  1
  H  88  1  0.18283750  0.87758650  0.24584200  1
  H  89  1  0.13418450  0.93941800  0.33789300  1
  H  96  1  0.75076200  0.93017250  0.72351000  1
  H  97  1  0.79715300  0.87611100  0.81553900  1
  H  104  1  0.46742050  0.33203550  0.92909500  1
  H  105  1  0.66599350  0.31929150  0.92791100  1
  H  112  1  0.31565400  0.66783850  0.55785500  1
  H  113  1  0.32698600  0.46918700  0.55954100  1
  N  87  1  0.96533200  0.03410600  0.21585300  1
  N  90  1  0.93980450  0.06866050  0.26569100  1
  N  95  1  0.01003700  0.02178050  0.72800100  1
  N  98  1  0.03482600  0.99351500  0.77936100  1
  N  103  1  0.52296350  0.43148950  0.05360100  1
  N  106  1  0.63057000  0.42411600  0.05318300  1
  N  111  1  0.44344550  0.62572600  0.43872500  1
  N  114  1  0.44946550  0.51807450  0.43954900  1
