# generated using pymatgen
data_H36C49N4
_symmetry_space_group_name_H-M   'P 1'
_cell_length_a   16.39872500
_cell_length_b   16.39870000
_cell_length_c   49.19670000
_cell_angle_alpha   90.02570000
_cell_angle_beta   90.02570011
_cell_angle_gamma   119.99984871
_symmetry_Int_Tables_number   1
_chemical_formula_structural   H36C49N4
_chemical_formula_sum   'H108 C147 N12'
_cell_volume   11457.41371256
_cell_formula_units_Z   3
loop_
 _symmetry_equiv_pos_site_id
 _symmetry_equiv_pos_as_xyz
  1  'x, y, z'
loop_
 _atom_site_type_symbol
 _atom_site_label
 _atom_site_symmetry_multiplicity
 _atom_site_fract_x
 _atom_site_fract_y
 _atom_site_fract_z
 _atom_site_occupancy
  C  1  1  0.93639150  0.06017850  0.07604300  1
  C  2  1  0.85491650  0.99822950  0.06107600  1
  C  3  1  0.82990150  0.02842650  0.03735500  1
  C  4  1  0.88278350  0.12289550  0.02801500  1
  C  5  1  0.97104650  0.17968850  0.04089000  1
  C  6  1  0.99618700  0.15020900  0.06474100  1
  C  7  1  0.84752800  0.15749700  0.00434700  1
  C  8  1  0.88028300  0.12207700  0.98027800  1
  C  9  1  0.97464450  0.17388950  0.97078400  1
  C  10  1  0.00341550  0.14913650  0.94674400  1
  C  11  1  0.94002100  0.06894400  0.93155300  1
  C  12  1  0.84972300  0.01014700  0.94284300  1
  C  13  1  0.82152150  0.03515050  0.96697300  1
  C  14  1  0.74197700  0.12230400  0.00606600  1
  C  15  1  0.88485350  0.26348450  0.00287100  1
  C  16  1  0.89409000  0.30939800  0.97761800  1
  C  17  1  0.93527700  0.40763600  0.97582700  1
  C  18  1  0.96727350  0.46467050  0.99936400  1
  C  19  1  0.94584400  0.41854000  0.02484200  1
  C  20  1  0.90275800  0.31989200  0.02646600  1
  C  21  1  0.69590250  0.11063250  0.03143600  1
  C  22  1  0.59782000  0.07163600  0.03317400  1
  C  23  1  0.54183200  0.04680600  0.00944900  1
  C  24  1  0.58837400  0.07035800  0.98406200  1
  C  25  1  0.68653950  0.10941950  0.98253500  1
  C  42  1  0.12493650  0.06490850  0.40939900  1
  C  43  1  0.14444400  0.14637200  0.39446300  1
  C  44  1  0.19949550  0.17129550  0.37071900  1
  C  45  1  0.24121350  0.11848950  0.36139100  1
  C  46  1  0.20968250  0.03019050  0.37421300  1
  C  47  1  0.15505800  0.00504800  0.39805200  1
  C  48  1  0.31110750  0.15375350  0.33774900  1
  C  49  1  0.24300450  0.12104050  0.31364800  1
  C  50  1  0.20039800  0.02666600  0.30411700  1
  C  51  1  0.14688600  0.99791200  0.28006300  1
  C  52  1  0.13014600  0.06133100  0.26489300  1
  C  53  1  0.16170050  0.15164650  0.27621700  1
  C  54  1  0.21489250  0.17983450  0.30036100  1
  C  55  1  0.38143800  0.25930600  0.33951200  1
  C  56  1  0.37972100  0.11637300  0.33628400  1
  C  57  1  0.41642850  0.10703450  0.31104400  1
  C  58  1  0.47356650  0.06593250  0.30927000  1
  C  59  1  0.49855500  0.03398500  0.33281200  1
  C  60  1  0.47369900  0.05538400  0.35827900  1
  C  61  1  0.41825950  0.09860750  0.35988700  1
  C  62  1  0.41577400  0.30543600  0.36490200  1
  C  63  1  0.47484850  0.40352250  0.36667200  1
  C  64  1  0.50617000  0.45946500  0.34296500  1
  C  65  1  0.48324750  0.41286250  0.31756900  1
  C  66  1  0.42416800  0.31468900  0.31601000  1
  C  83  1  0.94120450  0.87650850  0.74268400  1
  C  84  1  0.00324150  0.85713350  0.72773500  1
  C  85  1  0.97317300  0.80208100  0.70396600  1
  C  86  1  0.87862800  0.76021000  0.69462800  1
  C  87  1  0.82172700  0.79152700  0.70748800  1
  C  88  1  0.85121000  0.84631700  0.73132100  1
  C  89  1  0.84408550  0.69030150  0.67095700  1
  C  90  1  0.87944400  0.75839600  0.64688200  1
  C  91  1  0.82763950  0.80096750  0.63737600  1
  C  92  1  0.85236950  0.85448250  0.61334600  1
  C  93  1  0.93254500  0.87127900  0.59818200  1
  C  94  1  0.99132100  0.83973400  0.60948300  1
  C  95  1  0.96634100  0.78653200  0.63360300  1
  C  96  1  0.87942000  0.62006400  0.67270100  1
  C  97  1  0.73811250  0.62159250  0.66945300  1
  C  98  1  0.69207800  0.58490200  0.64419500  1
  C  99  1  0.59385350  0.52764350  0.64239400  1
  C  100  1  0.53692000  0.50265700  0.66592800  1
  C  101  1  0.58317100  0.52738900  0.69140800  1
  C  102  1  0.68182600  0.58295100  0.69303900  1
  C  103  1  0.89138900  0.58588400  0.69807900  1
  C  104  1  0.93036550  0.52677850  0.69983300  1
  C  105  1  0.95495250  0.49542450  0.67611400  1
  C  106  1  0.93122600  0.51827500  0.65072200  1
  C  107  1  0.89209700  0.57732400  0.64918500  1
  C  124  1  0.96546600  0.91836600  0.76916900  1
  C  125  1  0.93672650  0.98167950  0.77839300  1
  C  127  1  0.99355500  0.98487000  0.82353000  1
  C  128  1  0.02671950  0.92316550  0.81562300  1
  C  129  1  0.01202000  0.89124600  0.78833900  1
  C  131  1  0.99289450  0.01399750  0.85065300  1
  C  132  1  0.02694400  0.10884300  0.85877000  1
  C  133  1  0.01172400  0.12561000  0.88604300  1
  C  134  1  0.96375200  0.05152300  0.90498800  1
  C  135  1  0.93379550  0.95945350  0.89553600  1
  C  140  1  0.07845900  0.18933800  0.83980500  1
  C  144  1  0.07670000  0.89305400  0.83483400  1
  C  148  1  0.95402850  0.03584250  0.10250400  1
  C  149  1  0.04608150  0.06455050  0.11173600  1
  C  151  1  0.99247150  0.00776550  0.15685300  1
  C  152  1  0.89760750  0.97466850  0.14894000  1
  C  153  1  0.88037550  0.98937750  0.12166600  1
  C  155  1  0.02228100  0.00843900  0.18397500  1
  C  156  1  0.08303500  0.97434500  0.19207700  1
  C  157  1  0.11503700  0.98956700  0.21935500  1
  C  158  1  0.08897750  0.03759750  0.23831800  1
  C  159  1  0.02690700  0.06760000  0.22887800  1
  C  164  1  0.11196500  0.92278100  0.17309000  1
  C  168  1  0.81752600  0.92475200  0.16813600  1
  C  172  1  0.08308700  0.04733500  0.43586800  1
  C  173  1  0.01968900  0.95529600  0.44505800  1
  C  175  1  0.01657450  0.00894250  0.49019900  1
  C  176  1  0.07835000  0.10379600  0.48232200  1
  C  177  1  0.11027450  0.12100750  0.45505400  1
  C  179  1  0.98745250  0.97914450  0.51731100  1
  C  180  1  0.89261000  0.91836000  0.52539000  1
  C  181  1  0.87585600  0.88635500  0.55265400  1
  C  182  1  0.94996150  0.91242750  0.57162300  1
  C  183  1  0.04202350  0.97455350  0.56221200  1
  C  188  1  0.81210100  0.88941500  0.50639700  1
  C  192  1  0.10853800  0.18389500  0.50155100  1
  C  196  1  0.44229050  0.98664250  0.01072500  1
  C  197  1  0.40490300  0.90317500  0.02626500  1
  C  199  1  0.25392350  0.84142950  0.00537700  1
  C  200  1  0.28440100  0.92560600  0.99035300  1
  C  201  1  0.37951400  0.99766400  0.99337800  1
  C  203  1  0.17409300  0.75445400  0.99893200  1
  C  204  1  0.17832200  0.69443800  0.97881500  1
  C  205  1  0.10475200  0.59974800  0.97834500  1
  C  206  1  0.02982250  0.56401950  0.99733200  1
  C  207  1  0.02981000  0.62872600  0.01633300  1
  C  212  1  0.25994200  0.72562600  0.96004500  1
  C  216  1  0.22006000  0.93727800  0.97153700  1
  C  220  1  0.54562150  0.55901350  0.34427000  1
  C  221  1  0.49946000  0.59648300  0.35975700  1
  C  223  1  0.58864700  0.74735400  0.33887800  1
  C  224  1  0.64238250  0.71682450  0.32388300  1
  C  225  1  0.61936000  0.62174000  0.32692100  1
  C  227  1  0.58150750  0.82715950  0.33242400  1
  C  228  1  0.51727950  0.82284850  0.31228600  1
  C  229  1  0.49617450  0.89642850  0.31180100  1
  C  230  1  0.53537550  0.97144450  0.33079400  1
  C  231  1  0.60007400  0.97153500  0.34981500  1
  C  236  1  0.46685000  0.74114100  0.29350900  1
  C  240  1  0.71838200  0.78107200  0.30507900  1
  C  244  1  0.01509500  0.45601600  0.67738000  1
  C  245  1  0.09869000  0.50206400  0.69290400  1
  C  247  1  0.16026600  0.41279000  0.67197800  1
  C  248  1  0.07598600  0.35910700  0.65696000  1
  C  249  1  0.00397900  0.38220700  0.66001100  1
  C  251  1  0.24717950  0.41987050  0.66552000  1
  C  252  1  0.30710950  0.48409050  0.64541100  1
  C  253  1  0.40177550  0.50513850  0.64492900  1
  C  254  1  0.43756400  0.46588500  0.66389600  1
  C  255  1  0.37293800  0.40118900  0.68288700  1
  C  260  1  0.27586200  0.53456200  0.62666400  1
  C  264  1  0.06416000  0.28307000  0.63812600  1
  H  26  1  0.94612650  0.43745550  0.95693900  1
  H  27  1  0.87565200  0.27209000  0.95984600  1
  H  28  1  0.96747700  0.45629800  0.04253400  1
  H  29  1  0.89063100  0.29023900  0.04536000  1
  H  30  1  0.73276600  0.12538100  0.04924200  1
  H  31  1  0.56711350  0.05730050  0.05199200  1
  H  32  1  0.55081450  0.05286050  0.96630200  1
  H  33  1  0.71638000  0.12279600  0.96365600  1
  H  34  1  0.75491450  0.99090150  0.97388400  1
  H  35  1  0.80104050  0.95112150  0.93276300  1
  H  36  1  0.07070900  0.19218100  0.94001100  1
  H  37  1  0.02235700  0.23448500  0.98041000  1
  H  38  1  0.01626100  0.24598200  0.03394200  1
  H  39  1  0.76844100  0.98183100  0.02788700  1
  H  40  1  0.81095300  0.93115700  0.06782200  1
  H  41  1  0.05635850  0.19780750  0.07458700  1
  H  67  1  0.49251700  0.05497200  0.29038600  1
  H  68  1  0.39760150  0.12541950  0.29326300  1
  H  69  1  0.49007450  0.03408750  0.37598400  1
  H  70  1  0.40081550  0.11088550  0.37878100  1
  H  71  1  0.39358250  0.26861250  0.38269400  1
  H  72  1  0.49120900  0.43424800  0.38550300  1
  H  73  1  0.50347300  0.45033900  0.29981200  1
  H  74  1  0.40779200  0.28480800  0.29712100  1
  H  75  1  0.23728350  0.24644950  0.30729800  1
  H  76  1  0.15139900  0.20034600  0.26615300  1
  H  77  1  0.12259250  0.93060250  0.27330400  1
  H  78  1  0.21322400  0.97892800  0.31373000  1
  H  79  1  0.23087800  0.98504200  0.36727000  1
  H  80  1  0.21454200  0.23286400  0.36132000  1
  H  81  1  0.12141150  0.19038250  0.40124200  1
  H  82  1  0.14264200  0.94496900  0.40789700  1
  H  108  1  0.56394700  0.50885200  0.62349900  1
  H  109  1  0.72928900  0.60381100  0.62642400  1
  H  110  1  0.54550600  0.51112400  0.70910400  1
  H  111  1  0.71154150  0.60040350  0.71194000  1
  H  112  1  0.87663600  0.60797800  0.71588100  1
  H  113  1  0.94476350  0.51045650  0.71865600  1
  H  114  1  0.94845350  0.49802050  0.63295900  1
  H  115  1  0.87848700  0.59357800  0.63030000  1
  H  116  1  0.01059450  0.76417050  0.64052600  1
  H  117  1  0.05032850  0.85006050  0.59942300  1
  H  118  1  0.80932900  0.87875000  0.60660100  1
  H  119  1  0.76707000  0.78811100  0.64698400  1
  H  120  1  0.75540200  0.77031500  0.70051200  1
  H  121  1  0.01976800  0.78714800  0.69455200  1
  H  122  1  0.07030850  0.88026150  0.73452000  1
  H  123  1  0.80347000  0.85857400  0.74118700  1
  H  130  1  0.03172050  0.84347650  0.78272500  1
  H  137  1  0.03228400  0.19314400  0.89182800  1
  H  138  1  0.89901200  0.90229900  0.90796450  1
  H  139  1  0.90285350  0.00470850  0.76581300  1
  H  141  1  0.13751500  0.18612000  0.83072700  1
  H  142  1  0.10665800  0.25736600  0.84998300  1
  H  143  1  0.03146400  0.18664300  0.82370100  1
  H  145  1  0.13576650  0.95483050  0.84413100  1
  H  146  1  0.10466600  0.85278800  0.82480500  1
  H  147  1  0.02875600  0.84881400  0.85075800  1
  H  154  1  0.81290900  0.96973500  0.11605100  1
  H  161  1  0.16198150  0.96896950  0.22513200  1
  H  162  1  0.00457950  0.10242750  0.24132000  1
  H  163  1  0.10297200  0.09839600  0.09916600  1
  H  165  1  0.04966800  0.86373300  0.16399200  1
  H  166  1  0.15177800  0.89456300  0.18325700  1
  H  167  1  0.15626900  0.96974900  0.15700300  1
  H  169  1  0.82019900  0.86566600  0.17741100  1
  H  170  1  0.74928750  0.89681250  0.15810100  1
  H  171  1  0.82128150  0.97272750  0.18407800  1
  H  178  1  0.15809700  0.18846700  0.44946400  1
  H  185  1  0.80832350  0.83939050  0.55841300  1
  H  186  1  0.09918500  0.99690900  0.57466200  1
  H  187  1  0.99660150  0.89839550  0.43246500  1
  H  189  1  0.81533800  0.95170200  0.49732300  1
  H  190  1  0.74408100  0.84960500  0.51655000  1
  H  191  1  0.81475600  0.84510200  0.49029000  1
  H  193  1  0.04679300  0.18123500  0.51082600  1
  H  194  1  0.14883550  0.25212450  0.49154000  1
  H  195  1  0.15277000  0.18014800  0.51748900  1
  H  202  1  0.40475050  0.05724950  0.98178200  1
  H  209  1  0.11033800  0.55424200  0.96526100  1
  H  210  1  0.97903900  0.60749100  0.03097000  1
  H  211  1  0.44698100  0.88810300  0.03807200  1
  H  213  1  0.26847600  0.78477500  0.94780200  1
  H  214  1  0.25141700  0.67006400  0.94610000  1
  H  215  1  0.32429300  0.74758100  0.97168800  1
  H  217  1  0.19553750  0.88422150  0.95551900  1
  H  218  1  0.25405750  0.00649250  0.96189300  1
  H  219  1  0.15918250  0.92921750  0.98282900  1
  H  226  1  0.65373550  0.59647150  0.31533900  1
  H  233  1  0.44509250  0.89078650  0.29870200  1
  H  234  1  0.62960250  0.02237150  0.36445900  1
  H  235  1  0.44229850  0.55445450  0.37154900  1
  H  237  1  0.51746750  0.73253350  0.28128400  1
  H  238  1  0.41983200  0.74961000  0.27954600  1
  H  239  1  0.42443500  0.67684800  0.30514600  1
  H  241  1  0.68983250  0.80547550  0.28904300  1
  H  242  1  0.75362650  0.74704350  0.29545400  1
  H  243  1  0.77118350  0.84202850  0.31637400  1
  H  250  1  0.94431400  0.34784400  0.64842100  1
  H  257  1  0.44723050  0.55622350  0.63185500  1
  H  258  1  0.39422650  0.37162450  0.69751000  1
  H  259  1  0.11385900  0.55922200  0.70472600  1
  H  261  1  0.21662250  0.48397150  0.61441700  1
  H  262  1  0.33135750  0.58156650  0.61271900  1
  H  263  1  0.25402450  0.57699950  0.63832300  1
  H  265  1  0.11710950  0.31157750  0.62210200  1
  H  266  1  0.99488050  0.24786450  0.62848900  1
  H  267  1  0.07227150  0.23024450  0.64939900  1
  N  126  1  0.95027000  0.01057300  0.80461700  1
  N  136  1  0.94810100  0.94458100  0.86934400  1
  N  150  1  0.06144750  0.05100550  0.13795100  1
  N  160  1  0.99771200  0.05328400  0.20268100  1
  N  174  1  0.99080100  0.93995500  0.47126900  1
  N  184  1  0.05688050  0.00374650  0.53602700  1
  N  198  1  0.31518200  0.83390000  0.02227300  1
  N  208  1  0.10174350  0.71901550  0.01694300  1
  N  222  1  0.51985500  0.68616500  0.35575500  1
  N  232  1  0.61841750  0.89959450  0.35043900  1
  N  246  1  0.16792500  0.48159300  0.68889100  1
  N  256  1  0.28267600  0.38290400  0.68351100  1
