# generated using pymatgen
data_CuH16C35NO13
_symmetry_space_group_name_H-M   'P 1'
_cell_length_a   10.79936000
_cell_length_b   14.66053000
_cell_length_c   14.84090000
_cell_angle_alpha   64.61390000
_cell_angle_beta   77.50002000
_cell_angle_gamma   74.05754000
_symmetry_Int_Tables_number   1
_chemical_formula_structural   CuH16C35NO13
_chemical_formula_sum   'Cu2 H32 C70 N2 O26'
_cell_volume   2027.92963941
_cell_formula_units_Z   2
loop_
 _symmetry_equiv_pos_site_id
 _symmetry_equiv_pos_as_xyz
  1  'x, y, z'
loop_
 _atom_site_type_symbol
 _atom_site_label
 _atom_site_symmetry_multiplicity
 _atom_site_fract_x
 _atom_site_fract_y
 _atom_site_fract_z
 _atom_site_occupancy
  Cu  Cu0  1  0.53373000  0.47569000  0.91826000  1
  Cu  Cu1  1  0.46627000  0.52431000  0.08174000  1
  H  H2  1  0.56002000  0.90065000  0.07045000  1
  H  H3  1  0.42119000  0.07161000  0.97518000  1
  H  H4  1  0.60976000  0.88978000  0.90406000  1
  H  H5  1  0.34734000  0.09472000  0.13544000  1
  H  H6  1  0.76363000  0.73995000  0.88195000  1
  H  H7  1  0.20413000  0.25693000  0.13753000  1
  H  H8  1  0.66634000  0.76426000  0.21426000  1
  H  H9  1  0.35181000  0.20929000  0.81705000  1
  H  H10  1  0.06051000  0.63574000  0.02849000  1
  H  H11  1  0.93968000  0.36385000  0.97142000  1
  H  H12  1  0.57370000  0.76588000  0.69645000  1
  H  H13  1  0.44694000  0.23502000  0.31029000  1
  H  H14  1  0.67880000  0.95578000  0.19730000  1
  H  H15  1  0.25514000  0.03132000  0.79124000  1
  H  H16  1  0.63237000  0.79442000  0.55080000  1
  H  H17  1  0.31727000  0.18539000  0.43576000  1
  H  H18  1  0.48796000  0.67361000  0.53418000  1
  H  H19  1  0.50267000  0.33117000  0.46490000  1
  H  H20  1  0.37041000  0.84145000  0.42400000  1
  H  H21  1  0.60518000  0.14960000  0.71181000  1
  H  H22  1  0.42538000  0.65680000  0.69585000  1
  H  H23  1  0.69692000  0.46091000  0.25576000  1
  H  H24  1  0.75724000  0.30397000  0.94325000  1
  H  H25  1  0.23964000  0.69241000  0.05810000  1
  H  H26  1  0.06227000  0.84740000  0.35323000  1
  H  H27  1  0.89672000  0.07996000  0.80631000  1
  H  H28  1  0.91724000  0.52593000  0.21137000  1
  H  H29  1  0.10620000  0.45741000  0.79042000  1
  H  H30  1  0.89990000  0.77248000  0.28984000  1
  H  H31  1  0.13368000  0.25724000  0.69543000  1
  H  H32  1  0.38939000  0.81474000  0.00632000  1
  H  H33  1  0.58628000  0.19281000  0.98669000  1
  C  C34  1  0.52261000  0.31070000  0.11906000  1
  C  C35  1  0.47658000  0.68919000  0.88080000  1
  C  C36  1  0.73684000  0.50201000  0.99909000  1
  C  C37  1  0.26331000  0.49743000  0.00123000  1
  C  C38  1  0.65633000  0.82881000  0.96732000  1
  C  C39  1  0.31627000  0.15591000  0.06597000  1
  C  C40  1  0.74360000  0.74383000  0.95512000  1
  C  C41  1  0.23538000  0.24800000  0.06677000  1
  C  C42  1  0.80663000  0.66520000  0.03614000  1
  C  C43  1  0.19167000  0.32695000  0.97753000  1
  C  C44  1  0.78056000  0.67230000  0.13114000  1
  C  C45  1  0.23221000  0.31331000  0.88582000  1
  C  C46  1  0.68969000  0.75738000  0.14244000  1
  C  C47  1  0.31761000  0.22135000  0.88605000  1
  C  C48  1  0.62868000  0.83518000  0.06094000  1
  C  C49  1  0.35752000  0.14272000  0.97576000  1
  C  C50  1  0.03396000  0.57552000  0.01747000  1
  C  C51  1  0.96636000  0.42422000  0.98218000  1
  C  C52  1  0.12975000  0.49621000  0.00133000  1
  C  C53  1  0.87048000  0.50329000  0.99885000  1
  C  C54  1  0.09621000  0.41906000  0.98411000  1
  C  C55  1  0.90387000  0.57913000  0.01832000  1
  C  C56  1  0.53995000  0.19875000  0.18501000  1
  C  C57  1  0.45203000  0.80058000  0.81344000  1
  C  C58  1  0.63246000  0.01666000  0.22357000  1
  C  C59  1  0.32454000  0.97512000  0.76755000  1
  C  C60  1  0.60387000  0.11781000  0.15206000  1
  C  C61  1  0.36866000  0.87919000  0.84223000  1
  C  C62  1  0.49474000  0.17274000  0.28682000  1
  C  C63  1  0.50281000  0.82578000  0.71281000  1
  C  C64  1  0.51689000  0.07029000  0.35806000  1
  C  C65  1  0.46146000  0.92270000  0.63675000  1
  C  C66  1  0.59797000  0.99290000  0.32667000  1
  C  C67  1  0.36790000  0.99820000  0.66520000  1
  C  C68  1  0.46395000  0.04435000  0.46026000  1
  C  C69  1  0.50783000  0.94511000  0.53322000  1
  C  C70  1  0.59545000  0.87128000  0.50000000  1
  C  C71  1  0.36405000  0.11407000  0.49020000  1
  C  C72  1  0.63973000  0.89323000  0.39875000  1
  C  C73  1  0.31701000  0.09351000  0.59047000  1
  C  C74  1  0.30473000  0.68871000  0.27333000  1
  C  C75  1  0.69092000  0.31104000  0.72636000  1
  C  C76  1  0.31518000  0.64229000  0.20464000  1
  C  C77  1  0.68204000  0.35601000  0.79595000  1
  C  C78  1  0.48401000  0.50674000  0.28719000  1
  C  C79  1  0.51729000  0.49532000  0.71216000  1
  C  C80  1  0.45647000  0.53948000  0.36872000  1
  C  C81  1  0.54116000  0.46256000  0.63076000  1
  C  C82  1  0.38888000  0.64171000  0.34915000  1
  C  C83  1  0.60668000  0.35971000  0.65032000  1
  C  C84  1  0.49926000  0.47788000  0.46625000  1
  C  C85  1  0.49779000  0.52476000  0.53313000  1
  C  C86  1  0.46455000  0.63301000  0.49635000  1
  C  C87  1  0.52932000  0.36988000  0.50313000  1
  C  C88  1  0.40890000  0.69186000  0.40665000  1
  C  C89  1  0.58471000  0.31008000  0.59303000  1
  C  C90  1  0.39056000  0.80558000  0.37036000  1
  C  C91  1  0.60126000  0.19606000  0.63220000  1
  C  C92  1  0.40799000  0.58166000  0.71264000  1
  C  C93  1  0.60732000  0.43353000  0.28031000  1
  C  C94  1  0.78246000  0.31706000  0.86505000  1
  C  C95  1  0.21453000  0.67897000  0.13633000  1
  C  C96  1  0.19881000  0.77901000  0.27241000  1
  C  C97  1  0.79613000  0.22064000  0.72650000  1
  C  C98  1  0.84629000  0.59166000  0.21858000  1
  C  C99  1  0.18570000  0.39342000  0.79032000  1
  C  C100  1  0.73613000  0.81095000  0.37291000  1
  C  C101  1  0.21059000  0.17340000  0.61176000  1
  C  C102  1  0.32813000  0.86674000  0.94823000  1
  C  C103  1  0.64184000  0.13297000  0.04519000  1
  N  N104  1  0.41555000  0.56079000  0.20457000  1
  N  N105  1  0.58445000  0.43921000  0.79543000  1
  O  O106  1  0.54446000  0.33812000  0.02209000  1
  O  O107  1  0.45554000  0.66188000  0.97791000  1
  O  O108  1  0.48749000  0.37918000  0.16015000  1
  O  O109  1  0.51251000  0.62082000  0.83985000  1
  O  O110  1  0.70884000  0.47948000  0.93097000  1
  O  O111  1  0.29116000  0.52052000  0.06903000  1
  O  O112  1  0.65187000  0.52054000  0.06902000  1
  O  O113  1  0.34813000  0.47946000  0.93098000  1
  O  O114  1  0.40529000  0.85947000  0.28088000  1
  O  O115  1  0.60900000  0.15281000  0.57620000  1
  O  O116  1  0.29651000  0.57204000  0.72391000  1
  O  O117  1  0.61144000  0.34210000  0.30511000  1
  O  O118  1  0.89726000  0.30065000  0.83395000  1
  O  O119  1  0.09980000  0.69349000  0.16804000  1
  O  O120  1  0.17434000  0.85197000  0.19327000  1
  O  O121  1  0.12864000  0.78082000  0.36287000  1
  O  O122  1  0.85853000  0.22013000  0.64738000  1
  O  O123  1  0.82311000  0.13617000  0.81641000  1
  O  O124  1  0.82064000  0.59664000  0.30079000  1
  O  O125  1  0.23747000  0.39027000  0.70967000  1
  O  O126  1  0.72645000  0.72081000  0.41907000  1
  O  O127  1  0.84135000  0.83538000  0.29973000  1
  O  O128  1  0.12123000  0.21476000  0.55969000  1
  O  O129  1  0.21468000  0.20546000  0.68689000  1
  O  O130  1  0.22662000  0.91787000  0.97170000  1
  O  O131  1  0.73481000  0.07498000  0.02138000  1
