# generated using pymatgen
data_CuH13C13NO4
_symmetry_space_group_name_H-M   'P 1'
_cell_length_a   7.44341000
_cell_length_b   8.67348000
_cell_length_c   17.07836000
_cell_angle_alpha   87.28279000
_cell_angle_beta   89.15251000
_cell_angle_gamma   76.89674000
_symmetry_Int_Tables_number   1
_chemical_formula_structural   CuH13C13NO4
_chemical_formula_sum   'Cu2 H26 C26 N2 O8'
_cell_volume   1072.65896042
_cell_formula_units_Z   2
loop_
 _symmetry_equiv_pos_site_id
 _symmetry_equiv_pos_as_xyz
  1  'x, y, z'
loop_
 _atom_site_type_symbol
 _atom_site_label
 _atom_site_symmetry_multiplicity
 _atom_site_fract_x
 _atom_site_fract_y
 _atom_site_fract_z
 _atom_site_occupancy
  Cu  Cu0  1  0.68300000  0.48275000  0.50870000  1
  Cu  Cu1  1  0.31700000  0.51725000  0.49130000  1
  H  H2  1  0.30589000  0.60610000  0.01026000  1
  H  H3  1  0.69411000  0.39436000  0.98971000  1
  H  H4  1  0.65579000  0.23176000  0.12230000  1
  H  H5  1  0.34482000  0.76867000  0.87762000  1
  H  H6  1  0.28798000  0.04002000  0.48981000  1
  H  H7  1  0.71202000  0.95998000  0.51019000  1
  H  H8  1  0.95907000  0.62054000  0.43904000  1
  H  H9  1  0.04093000  0.37946000  0.56096000  1
  H  H10  1  0.44826000  0.90118000  0.22231000  1
  H  H11  1  0.34439000  0.79920000  0.29639000  1
  H  H12  1  0.58522000  0.80319000  0.30313000  1
  H  H13  1  0.55088000  0.09899000  0.77780000  1
  H  H14  1  0.41405000  0.19708000  0.69697000  1
  H  H15  1  0.65502000  0.20069000  0.70369000  1
  H  H16  1  0.48872000  0.81621000  0.68790000  1
  H  H17  1  0.24824000  0.81165000  0.67779000  1
  H  H18  1  0.32062000  0.91089000  0.75747000  1
  H  H19  1  0.51198000  0.18376000  0.31201000  1
  H  H20  1  0.68012000  0.08938000  0.24239000  1
  H  H21  1  0.75235000  0.18862000  0.32210000  1
  H  H22  1  0.36774000  0.14637000  0.88815000  1
  H  H23  1  0.60683000  0.14199000  0.91032000  1
  H  H24  1  0.42223000  0.23591000  0.97299000  1
  H  H25  1  0.63143000  0.85426000  0.11200000  1
  H  H26  1  0.57735000  0.76471000  0.02710000  1
  H  H27  1  0.39249000  0.85825000  0.08975000  1
  C  C28  1  0.45359000  0.80024000  0.49759000  1
  C  C29  1  0.54641000  0.19976000  0.50241000  1
  C  C30  1  0.42754000  0.96826000  0.49645000  1
  C  C31  1  0.57246000  0.03174000  0.50355000  1
  C  C32  1  0.52809000  0.49766000  0.35120000  1
  C  C33  1  0.47191000  0.50235000  0.64880000  1
  C  C34  1  0.55327000  0.49486000  0.26653000  1
  C  C35  1  0.44672000  0.50528000  0.73347000  1
  C  C36  1  0.52606000  0.63901000  0.22113000  1
  C  C37  1  0.47363000  0.36120000  0.77890000  1
  C  C38  1  0.54870000  0.63419000  0.13869000  1
  C  C39  1  0.45102000  0.36617000  0.86134000  1
  C  C40  1  0.58827000  0.48496000  0.10396000  1
  C  C41  1  0.41176000  0.51547000  0.89603000  1
  C  C42  1  0.62311000  0.34460000  0.15021000  1
  C  C43  1  0.37723000  0.65577000  0.84974000  1
  C  C44  1  0.60652000  0.34770000  0.23138000  1
  C  C45  1  0.39380000  0.65254000  0.76857000  1
  C  C46  1  0.57844000  0.46922000  0.01925000  1
  C  C47  1  0.42159000  0.53127000  0.98073000  1
  C  C48  1  0.47353000  0.79451000  0.26230000  1
  C  C49  1  0.52583000  0.20562000  0.73778000  1
  C  C50  1  0.36096000  0.80674000  0.72034000  1
  C  C51  1  0.63965000  0.19345000  0.27956000  1
  C  C52  1  0.46339000  0.21468000  0.91112000  1
  C  C53  1  0.53603000  0.78579000  0.08897000  1
  N  N54  1  0.04198000  0.54325000  0.47818000  1
  N  N55  1  0.95802000  0.45675000  0.52182000  1
  O  O56  1  0.61888000  0.71396000  0.50565000  1
  O  O57  1  0.38112000  0.28604000  0.49435000  1
  O  O58  1  0.30980000  0.74309000  0.49096000  1
  O  O59  1  0.69020000  0.25691000  0.50904000  1
  O  O60  1  0.67245000  0.48377000  0.39460000  1
  O  O61  1  0.32755000  0.51623000  0.60540000  1
  O  O62  1  0.36338000  0.51290000  0.37991000  1
  O  O63  1  0.63662000  0.48710000  0.62009000  1
