# generated using pymatgen
data_H20C41N12
_symmetry_space_group_name_H-M   'P 1'
_cell_length_a   27.81000000
_cell_length_b   55.23324645
_cell_length_c   55.23324645
_cell_angle_alpha   86.36625327
_cell_angle_beta   75.41887526
_cell_angle_gamma   75.41887526
_symmetry_Int_Tables_number   1
_chemical_formula_structural   H20C41N12
_chemical_formula_sum   'H160 C328 N96'
_cell_volume   79463.25081408
_cell_formula_units_Z   8
loop_
 _symmetry_equiv_pos_site_id
 _symmetry_equiv_pos_as_xyz
  1  'x, y, z'
loop_
 _atom_site_type_symbol
 _atom_site_label
 _atom_site_symmetry_multiplicity
 _atom_site_fract_x
 _atom_site_fract_y
 _atom_site_fract_z
 _atom_site_occupancy
  C  1  1  0.90974950  0.93730300  0.94631800  1
  C  2  1  0.88081800  0.94610000  0.92836500  1
  C  3  1  0.85777450  0.93040600  0.91825100  1
  C  4  1  0.86388200  0.90461950  0.92445250  1
  C  5  1  0.89110150  0.89641000  0.94337700  1
  C  6  1  0.91404350  0.91201150  0.95369350  1
  C  7  1  0.83525950  0.88821150  0.91468150  1
  C  8  1  0.78038150  0.89783450  0.93106050  1
  C  9  1  0.76688900  0.89157250  0.95683150  1
  C  10  1  0.71804800  0.90168200  0.97254400  1
  C  11  1  0.67996200  0.91967250  0.96378450  1
  C  12  1  0.69358250  0.92708700  0.93850400  1
  C  13  1  0.74244350  0.91679000  0.92289000  1
  C  14  1  0.83539800  0.89015700  0.88667600  1
  C  15  1  0.86157900  0.86024000  0.91647200  1
  C  16  1  0.83583500  0.84162200  0.92760600  1
  C  17  1  0.86235850  0.81651000  0.93012300  1
  C  18  1  0.91614800  0.80825050  0.92079150  1
  C  19  1  0.94185700  0.82620950  0.90816650  1
  C  20  1  0.91514850  0.85130400  0.90584900  1
  C  21  1  0.86921600  0.90113800  0.86823800  1
  C  22  1  0.86603100  0.90364400  0.84302900  1
  C  23  1  0.82991000  0.89453750  0.83445250  1
  C  24  1  0.79815050  0.88212000  0.85227600  1
  C  25  1  0.80148350  0.87971200  0.87747100  1
  C  42  1  0.94250900  0.78382000  0.92538300  1
  C  43  1  0.93302900  0.95327700  0.95569700  1
  C  46  1  0.63133350  0.92905900  0.97977200  1
  C  48  1  0.82451650  0.89918950  0.80981150  1
  C  50  1  0.81992450  0.50956250  0.55367850  1
  C  51  1  0.78179700  0.50076100  0.57160000  1
  C  52  1  0.73295150  0.51646300  0.58172000  1
  C  53  1  0.71951550  0.54226950  0.57557950  1
  C  54  1  0.75747600  0.55047200  0.55666300  1
  C  55  1  0.80633300  0.53486750  0.54633850  1
  C  56  1  0.66470250  0.55867050  0.58533250  1
  C  57  1  0.63581400  0.54906350  0.56895250  1
  C  58  1  0.64198600  0.55525750  0.54315750  1
  C  59  1  0.61898400  0.54515550  0.52743350  1
  C  60  1  0.59001950  0.52720700  0.53619300  1
  C  61  1  0.58565850  0.51983150  0.56148850  1
  C  62  1  0.60860950  0.53012300  0.57710900  1
  C  63  1  0.63877750  0.55671750  0.61333650  1
  C  64  1  0.66483750  0.58664350  0.58353250  1
  C  65  1  0.63166150  0.60525050  0.57235950  1
  C  66  1  0.63557000  0.63036600  0.56984900  1
  C  67  1  0.67169600  0.63864050  0.57922150  1
  C  68  1  0.70271300  0.62069000  0.59186600  1
  C  69  1  0.69878300  0.59559500  0.59418900  1
  C  70  1  0.66512650  0.54571100  0.63177100  1
  C  71  1  0.63924250  0.54322650  0.65698550  1
  C  72  1  0.58545700  0.55238600  0.66557400  1
  C  73  1  0.55910850  0.56481750  0.64775450  1
  C  74  1  0.58522850  0.56720250  0.62255150  1
  C  91  1  0.67813950  0.66308250  0.57465350  1
  C  92  1  0.86857450  0.49359400  0.54430700  1
  C  95  1  0.56663700  0.51790550  0.52019950  1
  C  97  1  0.56013700  0.54779550  0.69023550  1
  C  99  1  0.87363200  0.91978650  0.53610750  1
  C  100  1  0.85339000  0.90187950  0.52730750  1
  C  101  1  0.81465150  0.89177100  0.54300900  1
  C  102  1  0.79509600  0.89790750  0.56881750  1
  C  103  1  0.81415850  0.91681700  0.57701800  1
  C  104  1  0.85272200  0.92712300  0.56141500  1
  C  105  1  0.75004350  0.88815300  0.58522400  1
  C  106  1  0.70476700  0.90452900  0.57562000  1
  C  107  1  0.68513850  0.93032150  0.58181650  1
  C  108  1  0.64640500  0.94604300  0.57171700  1
  C  109  1  0.62620450  0.93728350  0.55376950  1
  C  110  1  0.64713750  0.91198700  0.54639700  1
  C  111  1  0.68571450  0.89636850  0.55668450  1
  C  112  1  0.75213050  0.86014850  0.58326750  1
  C  113  1  0.74839000  0.88994750  0.61319550  1
  C  114  1  0.70404300  0.90111050  0.63180750  1
  C  115  1  0.70544550  0.90361250  0.65692450  1
  C  116  1  0.75095150  0.89424500  0.66519500  1
  C  117  1  0.79460700  0.88160200  0.64724000  1
  C  118  1  0.79299650  0.87929150  0.62214250  1
  C  119  1  0.79691150  0.84171700  0.57224700  1
  C  120  1  0.79624400  0.81650050  0.56976850  1
  C  121  1  0.75104900  0.80791450  0.57893550  1
  C  122  1  0.70689400  0.82572800  0.59139100  1
  C  123  1  0.70780450  0.85093100  0.59376100  1
  C  140  1  0.75286700  0.89881900  0.68963400  1
  C  141  1  0.91300100  0.92910400  0.52014100  1
  C  144  1  0.58681150  0.95327150  0.54447450  1
  C  146  1  0.75042000  0.78323100  0.57442700  1
  C  148  1  0.35608350  0.52713150  0.96387050  1
  C  149  1  0.30911650  0.54502850  0.97266650  1
  C  150  1  0.27597600  0.55512750  0.95696050  1
  C  151  1  0.28838600  0.54898050  0.93115250  1
  C  152  1  0.33458350  0.53008950  0.92295250  1
  C  153  1  0.36784200  0.51979500  0.93856100  1
  C  154  1  0.24998100  0.55875450  0.91475250  1
  C  155  1  0.21144900  0.54239100  0.92436500  1
  C  156  1  0.22381000  0.51660300  0.91815000  1
  C  157  1  0.19070300  0.50087800  0.92825300  1
  C  158  1  0.14379900  0.50963550  0.94620550  1
  C  159  1  0.13205750  0.53493000  0.95358400  1
  C  160  1  0.16529000  0.55055400  0.94329100  1
  C  161  1  0.22212700  0.58675900  0.91671300  1
  C  162  1  0.27809150  0.55696300  0.88677700  1
  C  163  1  0.26348950  0.54582250  0.86816150  1
  C  164  1  0.29255550  0.54328550  0.84305350  1
  C  165  1  0.33704350  0.55259500  0.83478700  1
  C  166  1  0.35011350  0.56522700  0.85275000  1
  C  167  1  0.32101700  0.56759950  0.87783250  1
  C  168  1  0.23747800  0.60518500  0.92772800  1
  C  169  1  0.20912150  0.63040300  0.93021600  1
  C  170  1  0.16450550  0.63899750  0.92105150  1
  C  171  1  0.15059550  0.62118950  0.90860050  1
  C  172  1  0.17907050  0.59598450  0.90622450  1
  C  189  1  0.36824000  0.54783050  0.81040850  1
  C  190  1  0.38881000  0.51784500  0.97984000  1
  C  193  1  0.11112400  0.49364450  0.95552050  1
  C  195  1  0.13469600  0.66368250  0.92556150  1
  C  197  1  0.09025900  0.00961600  0.05369700  1
  C  198  1  0.11927900  0.00081700  0.07161400  1
  C  199  1  0.14230050  0.01652250  0.08172850  1
  C  200  1  0.13607000  0.04232700  0.07557500  1
  C  201  1  0.10880200  0.05053000  0.05666900  1
  C  202  1  0.08587000  0.03492150  0.04635350  1
  C  203  1  0.16472000  0.05872200  0.08534400  1
  C  204  1  0.21960800  0.04910050  0.06897550  1
  C  205  1  0.23303250  0.05531550  0.04318550  1
  C  206  1  0.28186650  0.04521850  0.02746150  1
  C  207  1  0.32001150  0.02725750  0.03621350  1
  C  208  1  0.30645350  0.01987750  0.06150750  1
  C  209  1  0.25759650  0.03016400  0.07713100  1
  C  210  1  0.16458200  0.05676300  0.11334800  1
  C  211  1  0.13841250  0.08669550  0.08355450  1
  C  212  1  0.16415050  0.10530700  0.07239200  1
  C  213  1  0.13762700  0.13041700  0.06986400  1
  C  214  1  0.08383600  0.13868600  0.07919500  1
  C  215  1  0.05813200  0.12072650  0.09182750  1
  C  216  1  0.08485150  0.09564250  0.09419550  1
  C  217  1  0.13078450  0.04576450  0.13177850  1
  C  218  1  0.13398450  0.04324100  0.15698700  1
  C  219  1  0.17007650  0.05235950  0.16557550  1
  C  220  1  0.20181500  0.06479400  0.14775900  1
  C  221  1  0.19846500  0.06722150  0.12256550  1
  C  238  1  0.05742700  0.16309200  0.07451600  1
  C  239  1  0.06694700  0.99364650  0.04433050  1
  C  242  1  0.36868900  0.01794700  0.02022400  1
  C  244  1  0.17557450  0.04763150  0.19019350  1
  C  246  1  0.18007200  0.43729350  0.44629250  1
  C  247  1  0.21821600  0.44608650  0.42837450  1
  C  248  1  0.26706750  0.43038800  0.41827000  1
  C  249  1  0.28050500  0.40459450  0.42445250  1
  C  250  1  0.24252600  0.39638500  0.44335000  1
  C  251  1  0.19365100  0.41198950  0.45364450  1
  C  252  1  0.33529700  0.38817400  0.41466900  1
  C  253  1  0.36422900  0.39778600  0.43102700  1
  C  254  1  0.35813750  0.39155450  0.45681150  1
  C  255  1  0.38112700  0.40167000  0.47253400  1
  C  256  1  0.40999550  0.41965600  0.46377900  1
  C  257  1  0.41429850  0.42705250  0.43849250  1
  C  258  1  0.39137550  0.41674600  0.42287200  1
  C  259  1  0.36119050  0.39013150  0.38666250  1
  C  260  1  0.33515250  0.36020200  0.41645600  1
  C  261  1  0.36838300  0.34158100  0.42758300  1
  C  262  1  0.36441500  0.31647500  0.43012100  1
  C  263  1  0.32815700  0.30821800  0.42083100  1
  C  264  1  0.29710200  0.32618600  0.40821600  1
  C  265  1  0.30111400  0.35126900  0.40585000  1
  C  266  1  0.33480800  0.40112150  0.36823450  1
  C  267  1  0.36067350  0.40363500  0.34302200  1
  C  268  1  0.41447400  0.39452950  0.33443150  1
  C  269  1  0.44084800  0.38209550  0.35224050  1
  C  270  1  0.41474750  0.37967650  0.37743950  1
  C  287  1  0.32136700  0.28383400  0.42558300  1
  C  288  1  0.13136600  0.45325900  0.45556000  1
  C  291  1  0.43318700  0.42905600  0.47978300  1
  C  293  1  0.43979550  0.39920700  0.30979100  1
  C  295  1  0.12633400  0.02718650  0.46385350  1
  C  296  1  0.14655350  0.04510800  0.47264900  1
  C  297  1  0.18530650  0.05521100  0.45695300  1
  C  298  1  0.20494300  0.04902450  0.43116150  1
  C  299  1  0.18586800  0.03012600  0.42295100  1
  C  300  1  0.14728900  0.01982850  0.43855350  1
  C  301  1  0.24996350  0.05880150  0.41474750  1
  C  302  1  0.29524100  0.04243850  0.42436350  1
  C  303  1  0.31492500  0.01665400  0.41813200  1
  C  304  1  0.35364350  0.00093050  0.42824250  1
  C  305  1  0.37376350  0.00968550  0.44622650  1
  C  306  1  0.35277000  0.03496950  0.45363050  1
  C  307  1  0.31424300  0.05059450  0.44331950  1
  C  308  1  0.24786600  0.08680750  0.41670050  1
  C  309  1  0.25161650  0.05701200  0.38677500  1
  C  310  1  0.29597350  0.04587050  0.36816050  1
  C  311  1  0.29456500  0.04335550  0.34304650  1
  C  312  1  0.24904800  0.05269750  0.33477850  1
  C  313  1  0.20536200  0.06529550  0.35274650  1
  C  314  1  0.20698450  0.06763450  0.37783650  1
  C  315  1  0.20306200  0.10524200  0.42768300  1
  C  316  1  0.20373200  0.13045300  0.43019900  1
  C  317  1  0.24894550  0.13904100  0.42109100  1
  C  318  1  0.29312550  0.12122150  0.40866650  1
  C  319  1  0.29220800  0.09602450  0.40624950  1
  C  336  1  0.24712150  0.04804500  0.31036500  1
  C  337  1  0.08690050  0.01790100  0.47981300  1
  C  340  1  0.41295750  0.99367850  0.45562550  1
  C  342  1  0.24969050  0.16367300  0.42579000  1
  C  344  1  0.64392950  0.41974650  0.03615050  1
  C  345  1  0.69082750  0.40180050  0.02735650  1
  C  346  1  0.72397800  0.39168650  0.04305450  1
  C  347  1  0.71166650  0.39789300  0.06884000  1
  C  348  1  0.66552700  0.41681950  0.07704250  1
  C  349  1  0.63225400  0.42712350  0.06144350  1
  C  350  1  0.75005450  0.38811850  0.08525150  1
  C  351  1  0.78855550  0.40449700  0.07562900  1
  C  352  1  0.77628250  0.43026700  0.08189100  1
  C  353  1  0.80941150  0.44597900  0.07178300  1
  C  354  1  0.85625600  0.43722000  0.05379000  1
  C  355  1  0.86790600  0.41194300  0.04637100  1
  C  356  1  0.83466600  0.39632700  0.05667300  1
  C  357  1  0.77791800  0.36011350  0.08330850  1
  C  358  1  0.72193950  0.38991100  0.11322300  1
  C  359  1  0.73655600  0.40103800  0.13184200  1
  C  360  1  0.70752450  0.40354750  0.15695750  1
  C  361  1  0.66306150  0.39422050  0.16521750  1
  C  362  1  0.64995300  0.38161500  0.14725300  1
  C  363  1  0.67898450  0.37929300  0.12215900  1
  C  364  1  0.76252150  0.34167350  0.07233850  1
  C  365  1  0.79091350  0.31646200  0.06982900  1
  C  366  1  0.83562050  0.30788150  0.07892650  1
  C  367  1  0.84960600  0.32571350  0.09131150  1
  C  368  1  0.82104250  0.35090300  0.09375200  1
  C  385  1  0.63212100  0.39880500  0.18965200  1
  C  386  1  0.61124250  0.42907700  0.02017800  1
  C  389  1  0.88889450  0.45321100  0.04442000  1
  C  391  1  0.86567200  0.28325550  0.07422250  1
  C  785  1  0.02433750  0.98548050  0.01363150  1
  C  787  1  0.01101150  0.97559850  0.97418850  1
  C  788  1  0.97568750  0.96144050  0.98637950  1
  C  790  1  0.98903700  0.97131100  0.02582000  1
  C  791  1  0.97481600  0.96902700  0.04994800  1
  C  792  1  0.02525100  0.97786600  0.95005900  1
  C  797  1  0.05000750  0.46140650  0.48634350  1
  C  799  1  0.98734900  0.47126700  0.52579000  1
  C  800  1  0.95004550  0.48542550  0.51360550  1
  C  802  1  0.01269150  0.47555350  0.47416050  1
  C  803  1  0.02030250  0.47784600  0.45003300  1
  C  804  1  0.97974100  0.46900500  0.54991800  1
  C  809  1  0.03633950  0.98712050  0.48797250  1
  C  811  1  0.01313900  0.94767050  0.49782750  1
  C  812  1  0.96364750  0.95985100  0.51198500  1
  C  814  1  0.98684550  0.99929950  0.50213050  1
  C  815  1  0.97031700  0.02342550  0.50441950  1
  C  816  1  0.02965700  0.92354350  0.49554150  1
  C  821  1  0.53795000  0.45980900  0.01202200  1
  C  823  1  0.48516950  0.49925650  0.00215650  1
  C  824  1  0.46201000  0.48707250  0.98800350  1
  C  826  1  0.51479100  0.44762550  0.99787050  1
  C  827  1  0.52467050  0.42349850  0.99559650  1
  C  828  1  0.47528800  0.52338350  0.00443550  1
  C  833  1  0.47575700  0.45978450  0.48797650  1
  C  835  1  0.48904700  0.49924600  0.49783600  1
  C  836  1  0.52436450  0.48708050  0.51200950  1
  C  838  1  0.51104300  0.44762000  0.50216300  1
  C  839  1  0.52526900  0.42349450  0.50446250  1
  C  840  1  0.47479700  0.52337100  0.49553800  1
  C  845  1  0.44998700  0.98711800  0.01202300  1
  C  847  1  0.51257850  0.94765150  0.00214850  1
  C  848  1  0.54991450  0.95981600  0.98798700  1
  C  850  1  0.48733200  0.99928300  0.99787000  1
  C  851  1  0.47976700  0.02340800  0.99558200  1
  C  852  1  0.52013950  0.92352350  0.00440550  1
  C  857  1  0.46371950  0.98548000  0.48635000  1
  C  859  1  0.48686950  0.97562350  0.52581050  1
  C  860  1  0.53636050  0.96145150  0.51364450  1
  C  862  1  0.51320200  0.97130500  0.47418300  1
  C  863  1  0.52973250  0.96901800  0.45005700  1
  C  864  1  0.47032100  0.97792200  0.54993500  1
  C  869  1  0.96210400  0.46141500  0.01365000  1
  C  871  1  0.01481100  0.47129450  0.97418250  1
  C  872  1  0.03800750  0.48544500  0.98634600  1
  C  874  1  0.98529450  0.47556850  0.02581350  1
  C  875  1  0.97546100  0.47783700  0.04994000  1
  C  876  1  0.02464000  0.46902050  0.95005650  1
  C  977  1  0.80184500  0.88598600  0.77416200  1
  C  979  1  0.80830550  0.86201250  0.73791850  1
  C  980  1  0.78673250  0.88375050  0.72555150  1
  C  982  1  0.78028000  0.90782250  0.76178750  1
  C  983  1  0.76467050  0.92994850  0.77181650  1
  C  984  1  0.82231400  0.83978000  0.72810700  1
  C  989  1  0.48845450  0.56091050  0.72586750  1
  C  991  1  0.43451550  0.58486650  0.76208750  1
  C  992  1  0.42244250  0.56310900  0.77446700  1
  C  994  1  0.47646850  0.53905500  0.73824700  1
  C  995  1  0.49316000  0.51692400  0.72823100  1
  C  996  1  0.41635400  0.60710100  0.77188900  1
  C  1001  1  0.71430450  0.74761550  0.58748550  1
  C  1003  1  0.69675500  0.71138000  0.61145200  1
  C  1004  1  0.69700300  0.69900050  0.58970450  1
  C  1006  1  0.71467350  0.73523100  0.56563900  1
  C  1007  1  0.72125450  0.74526200  0.54351300  1
  C  1008  1  0.68846650  0.70157450  0.63368750  1
  C  1013  1  0.07598550  0.69929350  0.91252350  1
  C  1015  1  0.04607100  0.73550350  0.88854750  1
  C  1016  1  0.01224850  0.74789500  0.91030100  1
  C  1018  1  0.04216350  0.71168650  0.93437350  1
  C  1019  1  0.03672500  0.70167550  0.95650750  1
  C  1020  1  0.05013950  0.74528700  0.86630500  1
  C  1025  1  0.19810450  0.06092350  0.22584450  1
  C  1027  1  0.19168250  0.08489900  0.26208100  1
  C  1028  1  0.21328350  0.06316400  0.27444400  1
  C  1030  1  0.21970850  0.03908950  0.23821250  1
  C  1031  1  0.23532900  0.01696200  0.22818800  1
  C  1032  1  0.17766700  0.10713100  0.27189700  1
  C  1037  1  0.51140300  0.38598000  0.27417000  1
  C  1039  1  0.56532150  0.36198700  0.23797100  1
  C  1040  1  0.57744600  0.38372900  0.22557900  1
  C  1042  1  0.52345000  0.40782000  0.26177600  1
  C  1043  1  0.50678250  0.42996000  0.27177100  1
  C  1044  1  0.58347750  0.33974250  0.22819050  1
  C  1049  1  0.28559150  0.19930800  0.41253400  1
  C  1051  1  0.30326700  0.23553450  0.38856950  1
  C  1052  1  0.30303800  0.24790550  0.41031750  1
  C  1054  1  0.28527100  0.21168350  0.43437850  1
  C  1055  1  0.27866700  0.20166850  0.45651150  1
  C  1056  1  0.31156200  0.24534400  0.36633700  1
  C  1061  1  0.92400300  0.24761750  0.08746250  1
  C  1063  1  0.95393250  0.21140500  0.11144000  1
  C  1064  1  0.98782400  0.19902700  0.08969500  1
  C  1066  1  0.95791550  0.23523800  0.06562100  1
  C  1067  1  0.96341100  0.24524550  0.04348550  1
  C  1068  1  0.94981600  0.20160750  0.13367750  1
  H  26  1  0.84172600  0.80420950  0.93911450  1
  H  27  1  0.79700550  0.84614500  0.93431300  1
  H  28  1  0.98073400  0.82136600  0.90116700  1
  H  29  1  0.93602050  0.86354300  0.89701500  1
  H  30  1  0.89682750  0.90767950  0.87295150  1
  H  31  1  0.89049300  0.91249700  0.83088900  1
  H  32  1  0.77119250  0.87523700  0.84722300  1
  H  33  1  0.77689700  0.87093200  0.88957300  1
  H  34  1  0.75018600  0.92385700  0.90519600  1
  H  35  1  0.66811950  0.94035550  0.93119950  1
  H  36  1  0.71084100  0.89591550  0.99079750  1
  H  37  1  0.79310400  0.87937600  0.96460700  1
  H  38  1  0.89409750  0.87868600  0.95037800  1
  H  39  1  0.83600250  0.93818850  0.90604550  1
  H  40  1  0.87549500  0.96436450  0.92263650  1
  H  41  1  0.93364100  0.90467700  0.96691800  1
  H  44  1  0.84295750  0.91115300  0.79972100  1
  H  45  1  0.92437800  0.77415650  0.93888050  1
  H  47  1  0.62554000  0.92289250  0.99733750  1
  H  49  1  0.92747400  0.97085400  0.94956200  1
  H  75  1  0.61165700  0.64265850  0.56083650  1
  H  76  1  0.60410900  0.60071850  0.56562350  1
  H  77  1  0.72964400  0.62555300  0.59892900  1
  H  78  1  0.72300200  0.58336950  0.60306250  1
  H  79  1  0.70398600  0.53913800  0.62705200  1
  H  80  1  0.66041400  0.53436800  0.66912500  1
  H  81  1  0.52023250  0.57175300  0.65281700  1
  H  82  1  0.56397300  0.57600700  0.61045500  1
  H  83  1  0.60562750  0.52308350  0.59481750  1
  H  84  1  0.56605700  0.50660600  0.56880400  1
  H  85  1  0.62432850  0.55090700  0.50917600  1
  H  86  1  0.66383350  0.56743000  0.53538200  1
  H  87  1  0.74977850  0.56820500  0.54967900  1
  H  88  1  0.70673800  0.50867400  0.59390000  1
  H  89  1  0.78897400  0.48248800  0.57730200  1
  H  90  1  0.83183700  0.54220900  0.53313100  1
  H  93  1  0.58031300  0.53586150  0.70040550  1
  H  94  1  0.66392700  0.67277950  0.56114850  1
  H  96  1  0.57274650  0.52387900  0.50257500  1
  H  98  1  0.87437600  0.47602000  0.55044900  1
  H  124  1  0.67252350  0.91262700  0.66921900  1
  H  125  1  0.66975100  0.90784700  0.62727900  1
  H  126  1  0.82861800  0.87455600  0.65209300  1
  H  127  1  0.82609150  0.87042650  0.60991250  1
  H  128  1  0.83105100  0.84643750  0.56567350  1
  H  129  1  0.82955700  0.80435950  0.56091550  1
  H  130  1  0.67309600  0.82065750  0.59835350  1
  H  131  1  0.67446300  0.86302150  0.60258750  1
  H  132  1  0.70044250  0.87866050  0.54964350  1
  H  133  1  0.63484500  0.90466950  0.53317250  1
  H  134  1  0.63348600  0.96430150  0.57747050  1
  H  135  1  0.69920950  0.93809800  0.59399100  1
  H  136  1  0.79951150  0.92379050  0.59475350  1
  H  137  1  0.80060700  0.87959200  0.53522300  1
  H  138  1  0.86627400  0.89616750  0.50903550  1
  H  139  1  0.86505800  0.94031350  0.56875950  1
  H  142  1  0.78065900  0.77309250  0.56240150  1
  H  143  1  0.72507100  0.91231150  0.69930350  1
  H  145  1  0.57528550  0.97089350  0.55045250  1
  H  147  1  0.92474250  0.92304850  0.50254150  1
  H  173  1  0.28095500  0.53425200  0.83077000  1
  H  174  1  0.23138550  0.53910050  0.87269050  1
  H  175  1  0.38204800  0.57218300  0.84791900  1
  H  176  1  0.33309250  0.57641200  0.89007300  1
  H  177  1  0.26976800  0.60045950  0.93429950  1
  H  178  1  0.22145750  0.64254050  0.93906250  1
  H  179  1  0.11868900  0.62626450  0.90164050  1
  H  180  1  0.16663150  0.58389800  0.89740100  1
  H  181  1  0.15527000  0.56826250  0.95033250  1
  H  182  1  0.09922150  0.54224650  0.96680550  1
  H  183  1  0.20179700  0.48262050  0.92249950  1
  H  184  1  0.25783450  0.50882700  0.90597600  1
  H  185  1  0.34466300  0.52312050  0.90521350  1
  H  186  1  0.24195900  0.56730350  0.96474150  1
  H  187  1  0.29800950  0.55074600  0.99093600  1
  H  188  1  0.40074000  0.50662050  0.93121750  1
  H  191  1  0.14281350  0.67382800  0.93756700  1
  H  192  1  0.36287350  0.53462750  0.80065150  1
  H  194  1  0.12308350  0.47603800  0.94948800  1
  H  196  1  0.37685700  0.52386300  0.99745100  1
  H  222  1  0.15825800  0.14270450  0.06083750  1
  H  223  1  0.20297550  0.10077650  0.06566250  1
  H  224  1  0.01925500  0.12557150  0.09882850  1
  H  225  1  0.06396700  0.08340700  0.10302400  1
  H  226  1  0.10320300  0.03920350  0.12705750  1
  H  227  1  0.10955850  0.03436100  0.16911500  1
  H  228  1  0.22876500  0.07168150  0.15281250  1
  H  229  1  0.22302350  0.07602400  0.11047300  1
  H  230  1  0.24991450  0.02312700  0.09484100  1
  H  231  1  0.33197600  0.00665300  0.06882200  1
  H  232  1  0.28902150  0.05096500  0.00920100  1
  H  233  1  0.20678500  0.06749100  0.03541100  1
  H  234  1  0.10572200  0.06826600  0.04969500  1
  H  235  1  0.16412600  0.00873750  0.09391150  1
  H  236  1  0.12467450  0.98254550  0.07731950  1
  H  237  1  0.06620250  0.04226300  0.03315800  1
  H  240  1  0.15695750  0.03575300  0.20031300  1
  H  241  1  0.07582800  0.17279500  0.06117600  1
  H  243  1  0.37428200  0.02398550  0.00261950  1
  H  245  1  0.07259150  0.97607050  0.05047050  1
  H  271  1  0.38830850  0.30418700  0.43914800  1
  H  272  1  0.39597200  0.34610400  0.43429800  1
  H  273  1  0.27000450  0.32135500  0.40125500  1
  H  274  1  0.27682200  0.36351200  0.39702600  1
  H  275  1  0.29594200  0.40766950  0.37296050  1
  H  276  1  0.33948200  0.41250000  0.33089400  1
  H  277  1  0.47973500  0.37520000  0.34717900  1
  H  278  1  0.43602750  0.37087550  0.38952650  1
  H  279  1  0.39430950  0.42379800  0.40516900  1
  H  280  1  0.43381550  0.44031400  0.43118800  1
  H  281  1  0.37577850  0.39592950  0.49079550  1
  H  282  1  0.33631550  0.37936950  0.46458650  1
  H  283  1  0.25021150  0.37865250  0.45033250  1
  H  284  1  0.29327950  0.43816650  0.40607350  1
  H  285  1  0.21101550  0.46434800  0.42263000  1
  H  286  1  0.16811250  0.40464600  0.46682600  1
  H  289  1  0.41947100  0.41101850  0.29960150  1
  H  290  1  0.33651550  0.27406900  0.43877600  1
  H  292  1  0.42762200  0.42290800  0.49735500  1
  H  294  1  0.12568050  0.47088350  0.44958450  1
  H  320  1  0.32749250  0.03434600  0.33075300  1
  H  321  1  0.33027300  0.03914700  0.37268600  1
  H  322  1  0.17134000  0.07231050  0.34789650  1
  H  323  1  0.17387550  0.07646950  0.39007450  1
  H  324  1  0.16891750  0.10052100  0.43423200  1
  H  325  1  0.17041400  0.14258500  0.43905800  1
  H  326  1  0.32696150  0.12627700  0.40177900  1
  H  327  1  0.32557550  0.08393200  0.39745400  1
  H  328  1  0.29946000  0.06829350  0.45037850  1
  H  329  1  0.36499150  0.04227300  0.46689000  1
  H  330  1  0.36655400  0.98267050  0.42250050  1
  H  331  1  0.30087550  0.00887950  0.40594750  1
  H  332  1  0.20055650  0.02313650  0.40522050  1
  H  333  1  0.19931750  0.06740900  0.46473500  1
  H  334  1  0.13360250  0.05085350  0.49090950  1
  H  335  1  0.13494950  0.00664050  0.43120850  1
  H  338  1  0.21916700  0.17380400  0.43764400  1
  H  339  1  0.27509000  0.03469000  0.30060100  1
  H  341  1  0.42496100  0.97610700  0.44947700  1
  H  343  1  0.07525400  0.02392450  0.49742150  1
  H  369  1  0.71917200  0.41253500  0.16925900  1
  H  370  1  0.76868150  0.40774200  0.12732000  1
  H  371  1  0.61808950  0.37460500  0.15209900  1
  H  372  1  0.66694350  0.37046250  0.10991950  1
  H  373  1  0.73019500  0.34639000  0.06579800  1
  H  374  1  0.77857600  0.30432600  0.06098200  1
  H  375  1  0.88161800  0.32065900  0.09819200  1
  H  376  1  0.83356850  0.36300700  0.10250700  1
  H  377  1  0.84461500  0.37863150  0.04960550  1
  H  378  1  0.90068800  0.40463400  0.03311100  1
  H  379  1  0.79837350  0.46423000  0.07755400  1
  H  380  1  0.74229500  0.43804250  0.09408950  1
  H  381  1  0.65551600  0.42381800  0.09476900  1
  H  382  1  0.75795000  0.37947500  0.03527500  1
  H  383  1  0.70186350  0.39605000  0.00909900  1
  H  384  1  0.59942100  0.44034100  0.06877700  1
  H  387  1  0.85719500  0.27307500  0.06238900  1
  H  388  1  0.63675050  0.41230400  0.19931500  1
  H  390  1  0.87712550  0.47078850  0.05054650  1
  H  392  1  0.62301000  0.42301200  0.00258000  1
  N  786  1  0.03311000  0.98681100  0.98825800  1
  N  789  1  0.96693400  0.96009900  0.01175200  1
  N  793  1  0.03791800  0.97983000  0.92872300  1
  N  794  1  0.96216250  0.96705000  0.07128400  1
  N  795  1  0.04906650  0.99817300  0.02431100  1
  N  796  1  0.95098600  0.94873550  0.97569750  1
  N  798  1  0.03474200  0.46007300  0.51171800  1
  N  801  1  0.96531150  0.48676000  0.48823300  1
  N  805  1  0.97304350  0.46704700  0.57125500  1
  N  806  1  0.02699750  0.47983100  0.42869800  1
  N  807  1  0.09813450  0.44873900  0.47565500  1
  N  808  1  0.90195300  0.49812550  0.52428950  1
  N  810  1  0.04645000  0.96174750  0.48663050  1
  N  813  1  0.95353600  0.98522450  0.51332750  1
  N  817  1  0.04428900  0.90220850  0.49356350  1
  N  818  1  0.95567000  0.04476050  0.50640150  1
  N  819  1  0.07376300  0.99781100  0.47529500  1
  N  820  1  0.92623050  0.94916250  0.52466950  1
  N  822  1  0.52135550  0.48518300  0.01335500  1
  N  825  1  0.47860150  0.46169950  0.98667250  1
  N  829  1  0.46662100  0.54471900  0.00640900  1
  N  830  1  0.53333700  0.40216200  0.99362600  1
  N  831  1  0.57337450  0.44912300  0.02470500  1
  N  832  1  0.42657550  0.49776100  0.97532500  1
  N  834  1  0.46697400  0.48515750  0.48662950  1
  N  837  1  0.53312600  0.46170650  0.51336650  1
  N  841  1  0.46213050  0.54470500  0.49355200  1
  N  842  1  0.53791850  0.40215950  0.50645250  1
  N  843  1  0.45106450  0.44908450  0.47527650  1
  N  844  1  0.54905450  0.49779050  0.52470350  1
  N  846  1  0.46520950  0.96174200  0.01334900  1
  N  849  1  0.53469100  0.98519200  0.98665700  1
  N  853  1  0.52680000  0.90218800  0.00635800  1
  N  854  1  0.47310300  0.04474250  0.99360250  1
  N  855  1  0.40188550  0.99782600  0.02470800  1
  N  856  1  0.59799150  0.94911350  0.97527850  1
  N  858  1  0.45358900  0.98682800  0.51172300  1
  N  861  1  0.54648850  0.96010400  0.48827000  1
  N  865  1  0.45566350  0.97990900  0.57126900  1
  N  866  1  0.54437500  0.96703800  0.42872100  1
  N  867  1  0.42633500  0.99818700  0.47565000  1
  N  868  1  0.57375750  0.94876900  0.52435300  1
  N  870  1  0.97865050  0.46008850  0.98827250  1
  N  873  1  0.02145950  0.48677100  0.01172300  1
  N  877  1  0.03326250  0.46705350  0.92872050  1
  N  878  1  0.96683050  0.47979900  0.07127600  1
  N  879  1  0.92671100  0.44871800  0.02435300  1
  N  880  1  0.07342250  0.49813100  0.97563700  1
  N  978  1  0.81429100  0.86412800  0.76136600  1
  N  981  1  0.77374800  0.90568450  0.73841050  1
  N  985  1  0.83466000  0.82016550  0.71939750  1
  N  986  1  0.75087350  0.94953950  0.78063150  1
  N  987  1  0.80963600  0.88427950  0.79736250  1
  N  988  1  0.78006800  0.88271500  0.70235000  1
  N  990  1  0.46609050  0.58276850  0.73864750  1
  N  993  1  0.44440450  0.54117750  0.76161850  1
  N  997  1  0.40028150  0.62671850  0.78058350  1
  N  998  1  0.50789300  0.49732750  0.71943050  1
  N  999  1  0.51772450  0.56262500  0.70266200  1
  N  1000  1  0.39153250  0.56411050  0.79766950  1
  N  1002  1  0.70482950  0.73482950  0.60934450  1
  N  1005  1  0.70601600  0.71185100  0.56776900  1
  N  1009  1  0.68113900  0.69287600  0.65330500  1
  N  1010  1  0.72710700  0.75407600  0.52392300  1
  N  1011  1  0.72031750  0.77082700  0.58919500  1
  N  1012  1  0.68930700  0.67579800  0.59073600  1
  N  1014  1  0.07550700  0.71205650  0.89065750  1
  N  1017  1  0.01224450  0.73506350  0.93224250  1
  N  1021  1  0.05366650  0.75397050  0.84668250  1
  N  1022  1  0.03187050  0.69287750  0.97610350  1
  N  1023  1  0.10690800  0.67607850  0.91081250  1
  N  1024  1  0.98238600  0.77109650  0.90926850  1
  N  1026  1  0.18565800  0.08278150  0.23864250  1
  N  1029  1  0.22626900  0.04123200  0.26158200  1
  N  1033  1  0.16531550  0.12674400  0.28060900  1
  N  1034  1  0.24913600  0.99736900  0.21937900  1
  N  1035  1  0.19024500  0.06262350  0.20265450  1
  N  1036  1  0.21998400  0.06419150  0.29764250  1
  N  1038  1  0.53373050  0.36411100  0.26140800  1
  N  1041  1  0.55552950  0.40567350  0.23840650  1
  N  1045  1  0.59956400  0.32012000  0.21950900  1
  N  1046  1  0.49206650  0.44956250  0.28055750  1
  N  1047  1  0.48208450  0.38428750  0.29736750  1
  N  1048  1  0.60835600  0.38269100  0.20237900  1
  N  1050  1  0.29510600  0.21209750  0.39067650  1
  N  1053  1  0.29398350  0.23505050  0.43224850  1
  N  1057  1  0.31888450  0.25405000  0.34672300  1
  N  1058  1  0.27280150  0.19286850  0.47610750  1
  N  1059  1  0.27943450  0.17611650  0.41082750  1
  N  1060  1  0.31076450  0.27110450  0.40931150  1
  N  1062  1  0.92444950  0.23484000  0.10932600  1
  N  1065  1  0.98785700  0.21187100  0.06776000  1
  N  1069  1  0.94624700  0.19291050  0.15329450  1
  N  1070  1  0.96832250  0.25403950  0.02388750  1
  N  1071  1  0.89297300  0.27081200  0.08916200  1
  N  1072  1  0.01771650  0.17582600  0.09071800  1
