# generated using pymatgen
data_CoH5C8NO4
_symmetry_space_group_name_H-M   'P 1'
_cell_length_a   20.04969391
_cell_length_b   20.04750288
_cell_length_c   20.05393237
_cell_angle_alpha   105.86326284
_cell_angle_beta   105.88328007
_cell_angle_gamma   105.83677376
_symmetry_Int_Tables_number   1
_chemical_formula_structural   CoH5C8NO4
_chemical_formula_sum   'Co18 H90 C144 N18 O72'
_cell_volume   6910.90841446
_cell_formula_units_Z   18
loop_
 _symmetry_equiv_pos_site_id
 _symmetry_equiv_pos_as_xyz
  1  'x, y, z'
loop_
 _atom_site_type_symbol
 _atom_site_label
 _atom_site_symmetry_multiplicity
 _atom_site_fract_x
 _atom_site_fract_y
 _atom_site_fract_z
 _atom_site_occupancy
  C  C1  1  0.14745000  0.54596667  0.67838333  1.0
  C  C2  1  0.20894667  0.87565667  0.88493667  1.0
  C  C3  1  0.10977333  0.59811333  0.70271333  1.0
  C  C4  1  0.27493000  0.93977333  0.94743667  1.0
  C  C5  1  0.20431000  0.61942333  0.03563667  1.0
  C  C6  1  0.23092000  0.58739333  0.09231667  1.0
  C  C7  1  0.94806667  0.64382667  0.78998667  1.0
  C  C8  1  0.18689667  0.52120333  0.72918000  1.0
  C  C9  1  0.87798000  0.63833333  0.80112667  1.0
  C  C10  1  0.21513667  0.46780333  0.70313000  1.0
  C  C11  1  0.78284333  0.66926333  0.92789333  1.0
  C  C12  1  0.14147333  0.51877000  0.60402667  1.0
  C  C13  1  0.80343667  0.65057333  0.86238000  1.0
  C  C14  1  0.75908333  0.62136667  0.78721000  1.0
  C  C15  1  0.10946000  0.60934667  0.92533333  1.0
  C  C16  1  0.13422333  0.57883667  0.97705000  1.0
  C  C17  1  0.17224333  0.46613667  0.58230000  1.0
  C  C18  1  0.80697667  0.61351333  0.74787000  1.0
  C  C19  1  0.30417667  0.93671000  0.01792333  1.0
  C  C20  1  0.24677667  0.68958000  0.03956333  1.0
  C  C21  1  0.21857667  0.71583333  0.98490000  1.0
  C  C22  1  0.36490667  0.99794000  0.07422333  1.0
  C  C23  1  0.30841667  0.00504667  0.93676667  1.0
  C  C24  1  0.36852333  0.06424000  0.99618667  1.0
  C  C25  1  0.67829667  0.14728667  0.54594667  1.0
  C  C26  1  0.88487667  0.20888333  0.87550000  1.0
  C  C27  1  0.70242667  0.10935000  0.59789333  1.0
  C  C28  1  0.94741333  0.27484000  0.93962667  1.0
  C  C29  1  0.03562000  0.20426667  0.61939333  1.0
  C  C30  1  0.09218333  0.23066667  0.58722000  1.0
  C  C31  1  0.79036667  0.94831667  0.64408667  1.0
  C  C32  1  0.72914000  0.18678333  0.52128667  1.0
  C  C33  1  0.80103000  0.87808333  0.63835667  1.0
  C  C34  1  0.70305000  0.21498667  0.46783333  1.0
  C  C35  1  0.92781000  0.78273667  0.66917333  1.0
  C  C36  1  0.60397333  0.14146333  0.51871333  1.0
  C  C37  1  0.86233333  0.80352333  0.65061333  1.0
  C  C38  1  0.78713000  0.75917667  0.62142333  1.0
  C  C39  1  0.92533667  0.10949333  0.60928000  1.0
  C  C40  1  0.97706000  0.13421000  0.57882000  1.0
  C  C41  1  0.58220667  0.17220667  0.46604667  1.0
  C  C42  1  0.74779333  0.80709667  0.61352000  1.0
  C  C43  1  0.01788667  0.30405000  0.93660333  1.0
  C  C44  1  0.03961667  0.24678667  0.68956667  1.0
  C  C45  1  0.98492000  0.21860000  0.71576000  1.0
  C  C46  1  0.07433000  0.36458333  0.99795667  1.0
  C  C47  1  0.93677667  0.30831333  0.00493000  1.0
  C  C48  1  0.99632667  0.36820000  0.06423333  1.0
  C  C49  1  0.54593667  0.67844667  0.14747667  1.0
  C  C50  1  0.87555000  0.88490333  0.20888667  1.0
  C  C51  1  0.59826333  0.70254000  0.10999667  1.0
  C  C52  1  0.93965000  0.94744000  0.27487000  1.0
  C  C53  1  0.61946333  0.03550000  0.20434667  1.0
  C  C54  1  0.58747667  0.09230000  0.23066333  1.0
  C  C55  1  0.64366667  0.78972333  0.94791000  1.0
  C  C56  1  0.52113667  0.72925667  0.18687667  1.0
  C  C57  1  0.63826000  0.80120667  0.87801333  1.0
  C  C58  1  0.46781333  0.70317000  0.21511667  1.0
  C  C59  1  0.66929000  0.92789000  0.78277000  1.0
  C  C60  1  0.51867667  0.60404000  0.14146333  1.0
  C  C61  1  0.65056000  0.86247667  0.80349333  1.0
  C  C62  1  0.62138000  0.78725000  0.75915000  1.0
  C  C63  1  0.60928667  0.92524667  0.10943667  1.0
  C  C64  1  0.57882000  0.97698333  0.13425667  1.0
  C  C65  1  0.46610000  0.58229333  0.17222667  1.0
  C  C66  1  0.61345333  0.74789000  0.80701667  1.0
  C  C67  1  0.93659000  0.01793000  0.30408000  1.0
  C  C68  1  0.68964000  0.03942000  0.24679000  1.0
  C  C69  1  0.71585000  0.98473333  0.21851667  1.0
  C  C70  1  0.99785000  0.07433333  0.36474667  1.0
  C  C71  1  0.00495667  0.93678000  0.30838333  1.0
  C  C72  1  0.06418333  0.99627667  0.36839000  1.0
  C  C73  1  0.17842667  0.04594333  0.64745000  1.0
  C  C74  1  0.38487333  0.37547667  0.70895000  1.0
  C  C75  1  0.20259333  0.09819000  0.60989667  1.0
  C  C76  1  0.44741667  0.43967667  0.77484667  1.0
  C  C77  1  0.53550333  0.11931667  0.70428000  1.0
  C  C78  1  0.59226333  0.08731333  0.73061333  1.0
  C  C79  1  0.28985667  0.14366333  0.44791000  1.0
  C  C80  1  0.22921667  0.02111333  0.68687000  1.0
  C  C81  1  0.30137667  0.13823667  0.37799667  1.0
  C  C82  1  0.20316333  0.96776333  0.71509333  1.0
  C  C83  1  0.42781000  0.16951667  0.28266333  1.0
  C  C84  1  0.10404667  0.01871000  0.64143333  1.0
  C  C85  1  0.36245667  0.15060333  0.30342000  1.0
  C  C86  1  0.28723667  0.12137000  0.25911333  1.0
  C  C87  1  0.42524667  0.10927000  0.60943333  1.0
  C  C88  1  0.47696333  0.07878667  0.63420000  1.0
  C  C89  1  0.08231667  0.96608000  0.67217333  1.0
  C  C90  1  0.24803667  0.11344333  0.30708000  1.0
  C  C91  1  0.51793667  0.43662667  0.80406667  1.0
  C  C92  1  0.53948333  0.18952000  0.74678667  1.0
  C  C93  1  0.48483333  0.21579333  0.71855333  1.0
  C  C94  1  0.57434000  0.49785333  0.86474667  1.0
  C  C95  1  0.43680333  0.50498667  0.80839000  1.0
  C  C96  1  0.49630333  0.56419000  0.86839667  1.0
  C  C97  1  0.04597667  0.64749667  0.17850667  1.0
  C  C98  1  0.37550000  0.70890333  0.38491667  1.0
  C  C99  1  0.09819667  0.60999000  0.20279333  1.0
  C  C100  1  0.43969667  0.77488000  0.44738333  1.0
  C  C101  1  0.11933667  0.70426000  0.53557333  1.0
  C  C102  1  0.08748667  0.73089667  0.59234667  1.0
  C  C103  1  0.14373000  0.44796333  0.28977667  1.0
  C  C104  1  0.02113667  0.68691000  0.22924333  1.0
  C  C105  1  0.13833333  0.37800333  0.30127333  1.0
  C  C106  1  0.96777667  0.71512667  0.20313667  1.0
  C  C107  1  0.16921333  0.28267333  0.42789333  1.0
  C  C108  1  0.01872667  0.64148000  0.10410333  1.0
  C  C109  1  0.15056000  0.30337000  0.36245000  1.0
  C  C110  1  0.12134333  0.25907000  0.28725667  1.0
  C  C111  1  0.10928667  0.60940000  0.42530333  1.0
  C  C112  1  0.07879667  0.63418667  0.47700667  1.0
  C  C113  1  0.96609667  0.67221667  0.08230667  1.0
  C  C114  1  0.11351667  0.30703333  0.24799000  1.0
  C  C115  1  0.43653667  0.80405000  0.51778333  1.0
  C  C116  1  0.18952000  0.74674333  0.53952667  1.0
  C  C117  1  0.21574667  0.71851667  0.48487667  1.0
  C  C118  1  0.49786000  0.86489000  0.57413000  1.0
  C  C119  1  0.50486333  0.80827333  0.43665333  1.0
  C  C120  1  0.56412333  0.86851000  0.49617667  1.0
  C  C121  1  0.64725667  0.17831333  0.04588000  1.0
  C  C122  1  0.70868000  0.38476667  0.37543333  1.0
  C  C123  1  0.60925333  0.20227333  0.09774333  1.0
  C  C124  1  0.77476667  0.44732000  0.43959333  1.0
  C  C125  1  0.70424667  0.53555000  0.11938333  1.0
  C  C126  1  0.73070333  0.59218000  0.08722667  1.0
  C  C127  1  0.44809333  0.28989000  0.14382667  1.0
  C  C128  1  0.68679333  0.22917667  0.02123000  1.0
  C  C129  1  0.37803000  0.30109667  0.13835333  1.0
  C  C130  1  0.71502667  0.20312000  0.96788333  1.0
  C  C131  1  0.28281667  0.42794333  0.16922000  1.0
  C  C132  1  0.64143667  0.10396000  0.01868333  1.0
  C  C133  1  0.30349333  0.36239000  0.15060667  1.0
  C  C134  1  0.25913667  0.28719000  0.12139333  1.0
  C  C135  1  0.60945000  0.42529000  0.10933000  1.0
  C  C136  1  0.63418333  0.47697667  0.07882000  1.0
  C  C137  1  0.67222000  0.08222667  0.96608333  1.0
  C  C138  1  0.30705000  0.24783000  0.11352000  1.0
  C  C139  1  0.80393000  0.51774333  0.43643667  1.0
  C  C140  1  0.74676000  0.53952000  0.18956000  1.0
  C  C141  1  0.71859333  0.48489333  0.21585333  1.0
  C  C142  1  0.86462333  0.57413667  0.49789000  1.0
  C  C143  1  0.80815000  0.43657667  0.50479333  1.0
  C  C144  1  0.86822000  0.49618000  0.56412000  1.0
  Co  Co1  1  0.11089667  0.71066000  0.84010333  1.0
  Co  Co2  1  0.09794333  0.84143000  0.72706667  1.0
  Co  Co3  1  0.98505333  0.65492333  0.65533333  1.0
  Co  Co4  1  0.84146667  0.72687000  0.09756333  1.0
  Co  Co5  1  0.22681333  0.34139667  0.59759000  1.0
  Co  Co6  1  0.34160333  0.59765000  0.22702667  1.0
  Co  Co7  1  0.65448000  0.65542333  0.98453667  1.0
  Co  Co8  1  0.48449667  0.15554333  0.15494000  1.0
  Co  Co9  1  0.15479333  0.48515000  0.15533667  1.0
  Co  Co10  1  0.84016333  0.11079333  0.71052333  1.0
  Co  Co11  1  0.72704333  0.09799333  0.84149333  1.0
  Co  Co12  1  0.65562667  0.98460667  0.65502667  1.0
  Co  Co13  1  0.59796000  0.22688667  0.34124333  1.0
  Co  Co16  1  0.15556333  0.15455667  0.48470000  1.0
  Co  Co17  1  0.71076333  0.83999333  0.11102333  1.0
  Co  Co22  1  0.34018667  0.21072333  0.61111000  1.0
  Co  Co28  1  0.21084333  0.61107667  0.34026000  1.0
  Co  Co33  1  0.61083333  0.34009000  0.21043667  1.0
  H  H1  1  0.19323000  0.54255333  0.78751667  1.0
  H  H2  1  0.24462000  0.44552667  0.74011333  1.0
  H  H3  1  0.11230000  0.53835333  0.56391667  1.0
  H  H4  1  0.69946667  0.60829333  0.76561000  1.0
  H  H5  1  0.05458333  0.58024000  0.88013667  1.0
  H  H6  1  0.10075667  0.52418667  0.97343667  1.0
  H  H7  1  0.16877667  0.44292000  0.52506333  1.0
  H  H8  1  0.79423667  0.59358000  0.68828333  1.0
  H  H9  1  0.27870333  0.88758000  0.02882667  1.0
  H  H10  1  0.30126667  0.72201667  0.08474667  1.0
  H  H11  1  0.24942000  0.76978333  0.98511667  1.0
  H  H12  1  0.38955667  0.99692333  0.12919000  1.0
  H  H13  1  0.28667333  0.00937000  0.88277667  1.0
  H  H14  1  0.39468667  0.11629000  0.99035333  1.0
  H  H15  1  0.02563667  0.75805667  0.77165667  1.0
  H  H16  1  0.78749667  0.19317333  0.54269000  1.0
  H  H17  1  0.74007333  0.24445667  0.44564000  1.0
  H  H18  1  0.56386667  0.11235333  0.53829000  1.0
  H  H19  1  0.76560333  0.69956333  0.60834333  1.0
  H  H20  1  0.88017333  0.05462667  0.58018000  1.0
  H  H21  1  0.97344667  0.10071333  0.52419000  1.0
  H  H22  1  0.52497667  0.16882667  0.44284667  1.0
  H  H23  1  0.68818667  0.79430667  0.59354667  1.0
  H  H24  1  0.02867333  0.27864667  0.88739000  1.0
  H  H25  1  0.08478667  0.30127667  0.72202667  1.0
  H  H26  1  0.98520333  0.24947333  0.76973333  1.0
  H  H27  1  0.12933667  0.38922000  0.99704333  1.0
  H  H28  1  0.88275333  0.28672667  0.00921000  1.0
  H  H29  1  0.99057333  0.39431333  0.11635333  1.0
  H  H30  1  0.77176000  0.02543333  0.75812667  1.0
  H  H31  1  0.54251000  0.78763667  0.19325333  1.0
  H  H32  1  0.44560667  0.74019667  0.24463667  1.0
  H  H33  1  0.53829333  0.56396000  0.11233667  1.0
  H  H34  1  0.60841667  0.76567667  0.69958667  1.0
  H  H35  1  0.58015000  0.88011000  0.05455000  1.0
  H  H36  1  0.52420000  0.97349333  0.10082667  1.0
  H  H37  1  0.44290333  0.52502667  0.16877000  1.0
  H  H38  1  0.59357667  0.68832000  0.79439333  1.0
  H  H39  1  0.88741333  0.02881000  0.27864667  1.0
  H  H40  1  0.72211333  0.08460333  0.30127333  1.0
  H  H41  1  0.76985000  0.98497333  0.24932667  1.0
  H  H42  1  0.99688000  0.12932667  0.38937333  1.0
  H  H43  1  0.00933000  0.88278333  0.28674667  1.0
  H  H44  1  0.11628667  0.99042333  0.39444000  1.0
  H  H45  1  0.75737667  0.77155333  0.02565000  1.0
  H  H46  1  0.28758000  0.04254000  0.69323000  1.0
  H  H47  1  0.24020667  0.94557000  0.74466333  1.0
  H  H48  1  0.06397333  0.03838000  0.61231667  1.0
  H  H49  1  0.26555333  0.10835333  0.19951333  1.0
  H  H50  1  0.38008000  0.08020667  0.55456333  1.0
  H  H51  1  0.47343333  0.02416333  0.60068333  1.0
  H  H52  1  0.02509000  0.94291667  0.66874333  1.0
  H  H53  1  0.18849333  0.09363000  0.29449667  1.0
  H  H54  1  0.52882333  0.38747000  0.77864667  1.0
  H  H55  1  0.58468667  0.22194000  0.80125333  1.0
  H  H56  1  0.48512667  0.26980333  0.74938000  1.0
  H  H57  1  0.62934667  0.49686333  0.88938000  1.0
  H  H58  1  0.38282667  0.50939333  0.78680000  1.0
  H  H59  1  0.49046667  0.61630667  0.89446667  1.0
  H  H60  1  0.27140333  0.25717667  0.52553000  1.0
  H  H61  1  0.04255667  0.69325333  0.28760000  1.0
  H  H62  1  0.94551667  0.74464333  0.24008000  1.0
  H  H63  1  0.03838000  0.61237000  0.06407000  1.0
  H  H64  1  0.10829333  0.19945667  0.26562000  1.0
  H  H65  1  0.08018000  0.55454333  0.38009667  1.0
  H  H66  1  0.02415000  0.60064333  0.47334667  1.0
  H  H67  1  0.94286667  0.66876667  0.02506667  1.0
  H  H68  1  0.09366000  0.29443333  0.18843667  1.0
  H  H69  1  0.38747667  0.77860667  0.52867667  1.0
  H  H70  1  0.22196333  0.80121333  0.58470333  1.0
  H  H71  1  0.26970667  0.74941000  0.48513333  1.0
  H  H72  1  0.49672667  0.88951667  0.62902667  1.0
  H  H73  1  0.50920333  0.78655333  0.38274333  1.0
  H  H74  1  0.61609667  0.89464667  0.49025667  1.0
  H  H75  1  0.25746667  0.52567000  0.27145333  1.0
  H  H76  1  0.69319333  0.28757000  0.04263667  1.0
  H  H77  1  0.74451333  0.24016667  0.94568000  1.0
  H  H78  1  0.61232000  0.06384333  0.03825667  1.0
  H  H79  1  0.19952333  0.26564667  0.10833000  1.0
  H  H80  1  0.55459333  0.38009333  0.08024333  1.0
  H  H81  1  0.60067667  0.47335667  0.02417667  1.0
  H  H82  1  0.66878333  0.02497333  0.94289333  1.0
  H  H83  1  0.29433333  0.18825000  0.09360667  1.0
  H  H84  1  0.77857667  0.52864333  0.38729000  1.0
  H  H85  1  0.80123000  0.58472000  0.22199000  1.0
  H  H86  1  0.74948333  0.48516667  0.26984000  1.0
  H  H87  1  0.88923000  0.62916667  0.49687333  1.0
  H  H88  1  0.78658667  0.38259333  0.50913000  1.0
  H  H89  1  0.89434000  0.49034333  0.61622667  1.0
  H  H90  1  0.52550333  0.27128667  0.25772000  1.0
  N  N1  1  0.39737333  0.06119667  0.06418000  1.0
  N  N2  1  0.15081667  0.67678000  0.92830333  1.0
  N  N3  1  0.20707667  0.43932333  0.63060000  1.0
  N  N4  1  0.89676000  0.56412333  0.56110667  1.0
  N  N5  1  0.13061667  0.93927333  0.70705000  1.0
  N  N6  1  0.06438667  0.39680667  0.06130667  1.0
  N  N7  1  0.92832000  0.15089333  0.67672667  1.0
  N  N8  1  0.63050333  0.20691000  0.43915667  1.0
  N  N9  1  0.56100000  0.89725667  0.56404333  1.0
  N  N10  1  0.70697333  0.13060000  0.93929667  1.0
  N  N11  1  0.06116667  0.06434000  0.39715333  1.0
  N  N12  1  0.67676667  0.92816333  0.15073000  1.0
  N  N13  1  0.43934333  0.63064667  0.20711000  1.0
  N  N14  1  0.56433667  0.56115000  0.89711333  1.0
  N  N15  1  0.93928000  0.70708667  0.13058333  1.0
  N  N16  1  0.42826000  0.17676333  0.65078667  1.0
  N  N19  1  0.17675667  0.65077000  0.42828333  1.0
  N  N22  1  0.65085333  0.42827667  0.17680000  1.0
  O  O1  1  0.06094667  0.74430333  0.75141000  1.0
  O  O2  1  0.05507333  0.59665667  0.65125000  1.0
  O  O3  1  0.19352667  0.51945667  0.07844667  1.0
  O  O4  1  0.71335333  0.65427000  0.91308667  1.0
  O  O5  1  0.94108333  0.60827667  0.72340000  1.0
  O  O6  1  0.18532333  0.81631000  0.89773667  1.0
  O  O7  1  0.28923667  0.63139333  0.15072000  1.0
  O  O8  1  0.18350667  0.88792667  0.82595667  1.0
  O  O9  1  0.83639000  0.69880333  0.99270667  1.0
  O  O10  1  0.00982000  0.68449333  0.84634667  1.0
  O  O11  1  0.87683333  0.66182000  0.87188667  1.0
  O  O12  1  0.13534667  0.63655333  0.77283000  1.0
  O  O13  1  0.01942333  0.69335333  0.57840333  1.0
  O  O14  1  0.91292333  0.71336000  0.65421667  1.0
  O  O15  1  0.13138333  0.78897000  0.65081667  1.0
  O  O16  1  0.99274667  0.83637333  0.69889000  1.0
  O  O17  1  0.75144000  0.06073333  0.74438667  1.0
  O  O18  1  0.65083000  0.05451000  0.59606000  1.0
  O  O19  1  0.07809667  0.19307333  0.51929000  1.0
  O  O20  1  0.72361000  0.94182000  0.60854000  1.0
  O  O21  1  0.89763667  0.18502667  0.81616667  1.0
  O  O22  1  0.15062000  0.28901333  0.63123667  1.0
  O  O23  1  0.82585000  0.18371667  0.88781333  1.0
  O  O24  1  0.84675333  0.00981000  0.68453667  1.0
  O  O25  1  0.87180667  0.87689667  0.66184667  1.0
  O  O26  1  0.77258000  0.13496667  0.63662333  1.0
  O  O27  1  0.57819333  0.01937333  0.69276333  1.0
  O  O28  1  0.65470667  0.91289333  0.71340000  1.0
  O  O29  1  0.65084333  0.13130667  0.78876000  1.0
  O  O30  1  0.69879333  0.99284333  0.83629333  1.0
  O  O31  1  0.74394667  0.75102333  0.06098000  1.0
  O  O32  1  0.59752667  0.65129667  0.05594667  1.0
  O  O33  1  0.51953000  0.07820333  0.19316667  1.0
  O  O34  1  0.60789000  0.72339000  0.94062000  1.0
  O  O35  1  0.81609333  0.89759667  0.18533000  1.0
  O  O36  1  0.63171000  0.15103000  0.28864000  1.0
  O  O37  1  0.88788667  0.82592667  0.18337667  1.0
  O  O38  1  0.68485333  0.84599667  0.00992000  1.0
  O  O39  1  0.66175000  0.87194667  0.87684333  1.0
  O  O40  1  0.63676000  0.77302000  0.13575000  1.0
  O  O41  1  0.69306333  0.57808667  0.01928000  1.0
  O  O42  1  0.78900667  0.65056000  0.13114333  1.0
  O  O43  1  0.25105000  0.24385000  0.56098000  1.0
  O  O44  1  0.15117667  0.09733000  0.55579333  1.0
  O  O46  1  0.41260333  0.15460333  0.21308333  1.0
  O  O47  1  0.22348333  0.10783667  0.44054000  1.0
  O  O48  1  0.39784000  0.31624333  0.68518667  1.0
  O  O50  1  0.32558000  0.38744333  0.68373667  1.0
  O  O51  1  0.49271000  0.19920667  0.33602333  1.0
  O  O52  1  0.34616000  0.18489000  0.50984000  1.0
  O  O53  1  0.37208667  0.16182000  0.37681333  1.0
  O  O54  1  0.27304667  0.13645000  0.63549333  1.0
  O  O56  1  0.15423000  0.21316000  0.41310000  1.0
  O  O58  1  0.19868000  0.33615667  0.49271333  1.0
  O  O59  1  0.24421333  0.56131000  0.25130667  1.0
  O  O60  1  0.09746667  0.55589333  0.15155000  1.0
  O  O62  1  0.10809667  0.44075667  0.22340667  1.0
  O  O63  1  0.31630333  0.68529667  0.39786000  1.0
  O  O65  1  0.38759667  0.68359667  0.32576667  1.0
  O  O66  1  0.18476000  0.50986333  0.34618667  1.0
  O  O67  1  0.16185667  0.37680333  0.37203000  1.0
  O  O68  1  0.13630667  0.63555000  0.27333333  1.0
  O  O70  1  0.21335333  0.41310667  0.15421000  1.0
  O  O72  1  0.33634667  0.49274333  0.19880000  1.0
  O  O73  1  0.56086667  0.25098333  0.24400000  1.0
  O  O74  1  0.55487000  0.15098667  0.09636333  1.0
  O  O76  1  0.44148667  0.22367333  0.10840000  1.0
  O  O77  1  0.68498000  0.39755000  0.31618000  1.0
  O  O79  1  0.68343333  0.32581333  0.38784333  1.0
  O  O80  1  0.50990333  0.34656333  0.18464333  1.0
  O  O81  1  0.37686333  0.37186667  0.16184000  1.0
  O  O82  1  0.63495333  0.27284333  0.13621333  1.0
