# generated using pymatgen
data_H32C49S2(N3O)4
_symmetry_space_group_name_H-M   'P 1'
_cell_length_a   28.15872500
_cell_length_b   28.15875000
_cell_length_c   35.32120000
_cell_angle_alpha   90.00000000
_cell_angle_beta   90.00000000
_cell_angle_gamma   120.00008811
_symmetry_Int_Tables_number   1
_chemical_formula_structural   H32C49S2(N3O)4
_chemical_formula_sum   'H96 C147 S6 N36 O12'
_cell_volume   24254.48482660
_cell_formula_units_Z   3
loop_
 _symmetry_equiv_pos_site_id
 _symmetry_equiv_pos_as_xyz
  1  'x, y, z'
loop_
 _atom_site_type_symbol
 _atom_site_label
 _atom_site_symmetry_multiplicity
 _atom_site_fract_x
 _atom_site_fract_y
 _atom_site_fract_z
 _atom_site_occupancy
  C  1  1  0.53786600  0.40856000  0.92431800  1
  C  2  1  0.49499500  0.41874500  0.93346600  1
  C  3  1  0.50131250  0.45513650  0.96260400  1
  C  4  1  0.55026200  0.48275200  0.98436100  1
  C  5  1  0.59329250  0.47272250  0.97445900  1
  C  6  1  0.58719950  0.43628250  0.94519300  1
  C  7  1  0.55686150  0.52697150  0.01236500  1
  C  8  1  0.56295300  0.57099500  0.98436200  1
  C  9  1  0.61155500  0.59851700  0.96224300  1
  C  10  1  0.61753350  0.63503950  0.93329800  1
  C  11  1  0.57469500  0.64553900  0.92478000  1
  C  12  1  0.52559000  0.61772100  0.94587900  1
  C  13  1  0.51981450  0.58109050  0.97492500  1
  C  14  1  0.50875950  0.50570450  0.03982500  1
  C  15  1  0.60548700  0.54850500  0.03938600  1
  C  16  1  0.63843850  0.60509050  0.04842900  1
  C  17  1  0.68347650  0.62430250  0.07298100  1
  C  18  1  0.69654350  0.58739950  0.09071200  1
  C  19  1  0.66053400  0.53060400  0.08523400  1
  C  20  1  0.61575600  0.51168600  0.06041600  1
  C  21  1  0.47588300  0.44918800  0.04908300  1
  C  22  1  0.43122450  0.43021250  0.07396600  1
  C  23  1  0.41847400  0.46730100  0.09176800  1
  C  24  1  0.45452700  0.52404200  0.08611200  1
  C  25  1  0.49893300  0.54272200  0.06098500  1
  C  42  1  0.74405350  0.60701750  0.11379200  1
  C  43  1  0.37108350  0.44795150  0.11494100  1
  C  44  1  0.58004950  0.68118150  0.89467300  1
  C  45  1  0.53236600  0.37332800  0.89386600  1
  C  50  1  0.95680750  0.54571050  0.25807400  1
  C  51  1  0.01004200  0.58853400  0.26685600  1
  C  52  1  0.04043150  0.58231550  0.29580700  1
  C  53  1  0.01926550  0.53352750  0.31772900  1
  C  54  1  0.96605450  0.49049850  0.30812600  1
  C  55  1  0.93538200  0.49647800  0.27904100  1
  C  56  1  0.05712900  0.52710400  0.34560200  1
  C  57  1  0.09469650  0.52063850  0.31748300  1
  C  58  1  0.07328550  0.47184750  0.29553800  1
  C  59  1  0.10335700  0.46561100  0.26636600  1
  C  60  1  0.15656150  0.50836450  0.25743100  1
  C  61  1  0.17822350  0.55760250  0.27841800  1
  C  62  1  0.14781900  0.56364500  0.30767300  1
  C  63  1  0.08427800  0.57547600  0.37282100  1
  C  64  1  0.03023200  0.47875000  0.37284900  1
  C  65  1  0.05388000  0.44582500  0.38194600  1
  C  66  1  0.02818800  0.40098700  0.40667900  1
  C  67  1  0.97835050  0.38811550  0.42452300  1
  C  68  1  0.95763850  0.42418450  0.41904200  1
  C  69  1  0.98336750  0.46875750  0.39405200  1
  C  70  1  0.06063450  0.60832650  0.38215800  1
  C  71  1  0.08644500  0.65310800  0.40692200  1
  C  72  1  0.13642550  0.66602150  0.42457200  1
  C  73  1  0.15720350  0.63005950  0.41881300  1
  C  74  1  0.13134300  0.58552700  0.39379400  1
  C  91  1  0.95040250  0.34065650  0.44763700  1
  C  92  1  0.16439450  0.71339850  0.44777000  1
  C  93  1  0.18640900  0.50280100  0.22708700  1
  C  94  1  0.92675700  0.55116700  0.22783400  1
  C  99  1  0.67547700  0.12743700  0.59109800  1
  C  100  1  0.66495100  0.07413800  0.59978400  1
  C  101  1  0.62843950  0.04378150  0.62878600  1
  C  102  1  0.60103350  0.06504150  0.65085200  1
  C  103  1  0.61120750  0.11825750  0.64126600  1
  C  104  1  0.64780600  0.14892600  0.61215300  1
  C  105  1  0.55698850  0.02728350  0.67889800  1
  C  106  1  0.51270450  0.98961850  0.65095400  1
  C  107  1  0.48513350  0.01095150  0.62914300  1
  C  108  1  0.44870550  0.98083950  0.60003300  1
  C  109  1  0.43830850  0.92766750  0.59103300  1
  C  110  1  0.46599350  0.90604950  0.61194100  1
  C  111  1  0.50255650  0.93649050  0.64112700  1
  C  112  1  0.57844550  0.00019650  0.70598400  1
  C  113  1  0.53580050  0.05427650  0.70627800  1
  C  114  1  0.47931450  0.03066550  0.71562100  1
  C  115  1  0.46040850  0.05637450  0.74053300  1
  C  116  1  0.49754200  0.10622600  0.75829800  1
  C  117  1  0.55426750  0.12692350  0.75254200  1
  C  118  1  0.57287100  0.10116100  0.72738600  1
  C  119  1  0.63502450  0.02379050  0.71504600  1
  C  120  1  0.65418350  0.99799050  0.73966900  1
  C  121  1  0.61723250  0.94805450  0.75741100  1
  C  122  1  0.56044900  0.92734200  0.75193900  1
  C  123  1  0.54158950  0.95319750  0.72707300  1
  C  140  1  0.47823850  0.13423450  0.78155100  1
  C  141  1  0.63677200  0.92010900  0.78050400  1
  C  142  1  0.40297150  0.89786550  0.56064600  1
  C  143  1  0.71107750  0.15753550  0.56091500  1
  C  148  1  0.49208750  0.22050750  0.80700300  1
  C  149  1  0.49856150  0.27104750  0.79385100  1
  C  150  1  0.49237200  0.30695200  0.81887900  1
  C  151  1  0.47997150  0.29303750  0.85749400  1
  C  152  1  0.47319550  0.24263150  0.87023700  1
  C  153  1  0.47960150  0.20750150  0.84577100  1
  C  155  1  0.51463650  0.37218450  0.76854200  1
  C  156  1  0.52076250  0.33633850  0.74334100  1
  C  161  1  0.52304550  0.42661350  0.75784250  1
  C  165  1  0.53625000  0.34732600  0.70294000  1
  C  173  1  0.81596850  0.59290050  0.13989800  1
  C  174  1  0.86000000  0.58601000  0.12724800  1
  C  175  1  0.90143850  0.59166650  0.15271500  1
  C  176  1  0.89928550  0.60393550  0.19127200  1
  C  177  1  0.85577000  0.61122800  0.20351100  1
  C  178  1  0.81482550  0.60525650  0.17862500  1
  C  180  1  0.94496850  0.56914350  0.10290900  1
  C  181  1  0.90364750  0.56354150  0.07727000  1
  C  186  1  0.99088800  0.56030400  0.09273400  1
  C  190  1  0.89982050  0.54824250  0.03686900  1
  C  198  1  0.86419150  0.26862250  0.47346600  1
  C  199  1  0.81332600  0.22468600  0.46064300  1
  C  200  1  0.77735700  0.18314900  0.48597700  1
  C  201  1  0.79152800  0.18512000  0.52456800  1
  C  202  1  0.84227900  0.22853600  0.53699100  1
  C  203  1  0.87743750  0.26957350  0.51222700  1
  C  205  1  0.71161750  0.13988450  0.43595800  1
  C  206  1  0.74752750  0.18130150  0.41045300  1
  C  211  1  0.65690700  0.09403900  0.42560200  1
  C  215  1  0.73633400  0.18531800  0.37002100  1
  C  223  1  0.62238150  0.83399450  0.80666100  1
  C  224  1  0.61542450  0.78302150  0.79408800  1
  C  225  1  0.62083150  0.74718550  0.81964300  1
  C  226  1  0.63295100  0.76163200  0.85820500  1
  C  227  1  0.64032950  0.81249750  0.87038200  1
  C  228  1  0.63458450  0.84751750  0.84540500  1
  C  230  1  0.59847250  0.68110150  0.76988200  1
  C  231  1  0.59309750  0.71686950  0.74415800  1
  C  236  1  0.58959450  0.62630550  0.75977700  1
  C  240  1  0.57805300  0.70542500  0.70371900  1
  C  248  1  0.29865500  0.46188800  0.14030900  1
  C  249  1  0.25468100  0.46851500  0.12715800  1
  C  250  1  0.21269100  0.46254600  0.15220200  1
  C  251  1  0.21422150  0.45021150  0.19082200  1
  C  252  1  0.25769050  0.44316550  0.20356000  1
  C  253  1  0.29913400  0.44936300  0.17907600  1
  C  255  1  0.16982150  0.48492150  0.10185800  1
  C  256  1  0.21170650  0.49085250  0.07664400  1
  C  261  1  0.12391750  0.49351750  0.09116800  1
  C  265  1  0.21619500  0.50626500  0.03622900  1
  C  273  1  0.25053250  0.78578050  0.47342000  1
  C  274  1  0.30115100  0.82988900  0.46042800  1
  C  275  1  0.33692100  0.87186300  0.48557700  1
  C  276  1  0.32279400  0.87021600  0.52415800  1
  C  277  1  0.27229900  0.82654900  0.53674200  1
  C  278  1  0.23730000  0.78511800  0.51215600  1
  C  280  1  0.40246800  0.91500400  0.43543800  1
  C  281  1  0.36675800  0.87314500  0.41011600  1
  C  286  1  0.45698350  0.96103550  0.42491400  1
  C  290  1  0.37798600  0.86879800  0.36974300  1
  H  26  1  0.70728350  0.66573550  0.07700100  1
  H  27  1  0.63059400  0.63370200  0.03683200  1
  H  28  1  0.66632700  0.50212300  0.09928500  1
  H  29  1  0.59120150  0.47025150  0.05707200  1
  H  30  1  0.48343300  0.42045100  0.03735300  1
  H  31  1  0.40731250  0.38880450  0.07804600  1
  H  32  1  0.44893900  0.55264500  0.10017700  1
  H  33  1  0.52346850  0.58412250  0.05746600  1
  H  34  1  0.48250150  0.56001750  0.98788300  1
  H  35  1  0.49312050  0.62336350  0.94006800  1
  H  36  1  0.65286200  0.65213700  0.91766400  1
  H  37  1  0.64322800  0.59115000  0.96657700  1
  H  38  1  0.63080250  0.49384250  0.98714900  1
  H  39  1  0.46968200  0.46246600  0.96728300  1
  H  40  1  0.45951400  0.40180200  0.91800700  1
  H  41  1  0.61966800  0.43080400  0.93900400  1
  H  75  1  0.04573350  0.37710250  0.41067600  1
  H  76  1  0.09020400  0.45349700  0.37021000  1
  H  77  1  0.92346350  0.41852250  0.43316700  1
  H  78  1  0.96651500  0.49332900  0.39068800  1
  H  79  1  0.02420200  0.60062400  0.37060100  1
  H  80  1  0.06884600  0.67691000  0.41109500  1
  H  81  1  0.19149200  0.63573600  0.43278200  1
  H  82  1  0.14821750  0.56100450  0.39024900  1
  H  83  1  0.16427700  0.60106700  0.32049500  1
  H  84  1  0.21625800  0.59001200  0.27234300  1
  H  85  1  0.08485050  0.43016550  0.25086500  1
  H  86  1  0.03428950  0.44024050  0.30014200  1
  H  87  1  0.94977000  0.45306300  0.32091100  1
  H  88  1  0.07948550  0.61391150  0.30023200  1
  H  89  1  0.02843950  0.62390950  0.25127600  1
  H  90  1  0.89732800  0.46402600  0.27306700  1
  H  124  1  0.41901350  0.03885950  0.74468500  1
  H  125  1  0.45054600  0.99434000  0.70395900  1
  H  126  1  0.58291200  0.16111600  0.76658400  1
  H  127  1  0.61426250  0.11799250  0.72383700  1
  H  128  1  0.66367150  0.06018750  0.70340200  1
  H  129  1  0.69561650  0.01552750  0.74364600  1
  H  130  1  0.53193750  0.89310950  0.76601200  1
  H  131  1  0.50016250  0.93636650  0.72373200  1
  H  132  1  0.52364050  0.92008250  0.65384800  1
  H  133  1  0.46042550  0.86805050  0.60582000  1
  H  134  1  0.43169550  0.99932350  0.58458900  1
  H  135  1  0.49253650  0.04994850  0.63375500  1
  H  136  1  0.59024800  0.13463600  0.65420400  1
  H  137  1  0.62096850  0.00471950  0.63319200  1
  H  138  1  0.68185100  0.05571900  0.58414400  1
  H  139  1  0.65351450  0.18703850  0.60625600  1
  H  162  1  0.51624150  0.44691150  0.78187200  1
  H  163  1  0.49448450  0.42218450  0.73541100  1
  H  164  1  0.56499900  0.45275300  0.74789300  1
  H  166  1  0.54245000  0.38684600  0.69346100  1
  H  167  1  0.50402150  0.31542150  0.68560200  1
  H  168  1  0.57429400  0.34677600  0.69826000  1
  H  170  1  0.53693900  0.21051700  0.76740300  1
  H  172  1  0.45187900  0.31793100  0.90033200  1
  H  187  1  0.01744300  0.56674300  0.11703600  1
  H  188  1  0.01562500  0.58889500  0.07048900  1
  H  189  1  0.97494500  0.51835900  0.08272500  1
  H  191  1  0.93309850  0.54173450  0.02777000  1
  H  192  1  0.90080950  0.58072350  0.01944600  1
  H  193  1  0.86113950  0.51042150  0.03187500  1
  H  195  1  0.76160550  0.54817750  0.10001300  1
  H  197  1  0.95187950  0.63158750  0.23447900  1
  H  212  1  0.63661650  0.06738450  0.44983100  1
  H  213  1  0.66088000  0.06938500  0.40334900  1
  H  214  1  0.63099950  0.11006150  0.41553400  1
  H  216  1  0.69659050  0.15210250  0.36078800  1
  H  217  1  0.76791950  0.18436750  0.35268500  1
  H  218  1  0.73726400  0.22403800  0.36505500  1
  H  220  1  0.87409450  0.32314650  0.43364300  1
  H  222  1  0.76631850  0.13235850  0.56768100  1
  H  237  1  0.59584600  0.60616000  0.78414200  1
  H  238  1  0.61829600  0.63010800  0.73763300  1
  H  239  1  0.54769800  0.60036100  0.74966200  1
  H  241  1  0.57150750  0.66560250  0.69467300  1
  H  242  1  0.61068500  0.73687300  0.68636400  1
  H  243  1  0.54031450  0.70638050  0.69856600  1
  H  245  1  0.57790350  0.84376350  0.76665900  1
  H  247  1  0.66054050  0.73656850  0.90135400  1
  H  262  1  0.09687500  0.48685500  0.11521000  1
  H  263  1  0.09968650  0.46495450  0.06876500  1
  H  264  1  0.13985700  0.53547500  0.08118200  1
  H  266  1  0.18295250  0.51259150  0.02675300  1
  H  267  1  0.21571350  0.47393450  0.01891700  1
  H  268  1  0.25485650  0.54421850  0.03150400  1
  H  270  1  0.35354000  0.50664800  0.10071800  1
  H  272  1  0.16127450  0.42242350  0.23379600  1
  H  287  1  0.47714850  0.98803250  0.44901600  1
  H  288  1  0.45271950  0.98527550  0.40248600  1
  H  289  1  0.48315550  0.94522850  0.41502500  1
  H  291  1  0.41757650  0.90214250  0.36038900  1
  H  292  1  0.34620100  0.86921900  0.35232000  1
  H  293  1  0.37744000  0.83021200  0.36503800  1
  H  295  1  0.24075100  0.73101900  0.43381500  1
  H  297  1  0.34770000  0.92299200  0.56722800  1
  N  154  1  0.50085650  0.35560050  0.80502800  1
  N  157  1  0.51247350  0.28780950  0.75740100  1
  N  158  1  0.46452250  0.22438050  0.90601000  1
  N  159  1  0.47594750  0.16446950  0.86462500  1
  N  169  1  0.50565900  0.18992700  0.78413400  1
  N  171  1  0.48294850  0.33033450  0.88316200  1
  N  179  1  0.94158850  0.58281850  0.13932300  1
  N  182  1  0.86341450  0.57219050  0.09087100  1
  N  183  1  0.84557500  0.61975900  0.23916400  1
  N  184  1  0.77528650  0.60915650  0.19705600  1
  N  194  1  0.77223200  0.57953400  0.11665400  1
  N  196  1  0.93286550  0.60052550  0.21732700  1
  N  204  1  0.72842850  0.14308650  0.47242400  1
  N  207  1  0.79633750  0.22144350  0.42421800  1
  N  208  1  0.86078100  0.23855800  0.57270100  1
  N  209  1  0.92078200  0.30900200  0.53080500  1
  N  219  1  0.89472200  0.31246200  0.45034400  1
  N  221  1  0.75438800  0.15146200  0.55051900  1
  N  229  1  0.61196300  0.69815100  0.80631400  1
  N  232  1  0.60178600  0.76579800  0.75769400  1
  N  233  1  0.64873900  0.83125400  0.90602500  1
  N  234  1  0.63851750  0.89102050  0.86376500  1
  N  244  1  0.60920750  0.86444650  0.78335500  1
  N  246  1  0.62932500  0.72467500  0.88435400  1
  N  254  1  0.17262300  0.47118300  0.13835800  1
  N  257  1  0.25184800  0.48240500  0.09069800  1
  N  258  1  0.26734350  0.43465550  0.23935400  1
  N  259  1  0.33851500  0.44573600  0.19794500  1
  N  269  1  0.34279500  0.47536300  0.11745300  1
  N  271  1  0.18005300  0.45335200  0.21652100  1
  N  279  1  0.38566750  0.91205950  0.47188000  1
  N  282  1  0.31813100  0.83286900  0.42402500  1
  N  283  1  0.25393550  0.81670950  0.57248900  1
  N  284  1  0.19426650  0.74556850  0.53090400  1
  N  294  1  0.22007600  0.74167400  0.45048500  1
  N  296  1  0.35994400  0.90427000  0.54997800  1
  O  46  1  0.34947150  0.39729450  0.13046700  1
  O  47  1  0.57874450  0.38295450  0.87560300  1
  O  48  1  0.76557750  0.65769750  0.12926400  1
  O  49  1  0.53367700  0.67174300  0.87650400  1
  O  95  1  0.13530900  0.73499100  0.46326200  1
  O  96  1  0.88992050  0.50481350  0.20959600  1
  O  97  1  0.97949600  0.31909900  0.46316300  1
  O  98  1  0.22323550  0.54914150  0.20882800  1
  O  144  1  0.68742650  0.94920750  0.79602300  1
  O  145  1  0.70167350  0.19446150  0.54269900  1
  O  146  1  0.42759750  0.10516550  0.79709800  1
  O  147  1  0.41255450  0.86108850  0.54238200  1
  S  160  1  0.46351900  0.16446700  0.91126500  1
  S  185  1  0.78683900  0.62125500  0.24379300  1
  S  210  1  0.92101900  0.29723300  0.57753400  1
  S  235  1  0.65038650  0.89157250  0.91054000  1
  S  260  1  0.32618350  0.43351850  0.24461100  1
  S  285  1  0.19406500  0.75771200  0.57757600  1
