# generated using pymatgen
data_H20C39(N2O)4
_symmetry_space_group_name_H-M   'P 1'
_cell_length_a   32.43270000
_cell_length_b   47.54300000
_cell_length_c   47.54300000
_cell_angle_alpha   90.00000000
_cell_angle_beta   90.00000000
_cell_angle_gamma   90.00000000
_symmetry_Int_Tables_number   1
_chemical_formula_structural   H20C39(N2O)4
_chemical_formula_sum   'H160 C312 N64 O32'
_cell_volume   73308.82692256
_cell_formula_units_Z   8
loop_
 _symmetry_equiv_pos_site_id
 _symmetry_equiv_pos_as_xyz
  1  'x, y, z'
loop_
 _atom_site_type_symbol
 _atom_site_label
 _atom_site_symmetry_multiplicity
 _atom_site_fract_x
 _atom_site_fract_y
 _atom_site_fract_z
 _atom_site_occupancy
  H  25  1  0.02190400  0.18855600  0.32220100  1
  H  26  1  0.02302100  0.16863900  0.36836900  1
  H  27  1  0.02409600  0.14107800  0.41218200  1
  H  28  1  0.02457000  0.10752700  0.44987000  1
  H  29  1  0.01167200  0.04123000  0.39135700  1
  H  30  1  0.01000400  0.10737300  0.28687500  1
  H  31  1  0.92437700  0.08164500  0.34976300  1
  H  32  1  0.90010800  0.00353500  0.31054400  1
  H  33  1  0.97250100  0.99776400  0.30079700  1
  H  34  1  0.10101400  0.08051900  0.34821300  1
  H  35  1  0.04894600  0.99717300  0.30026700  1
  H  36  1  0.12181000  0.00199600  0.30897500  1
  H  66  1  0.02171900  0.83629100  0.70142600  1
  H  67  1  0.02217100  0.85726600  0.65568200  1
  H  68  1  0.01967500  0.88598100  0.61223100  1
  H  69  1  0.01621600  0.92050300  0.57546000  1
  H  70  1  0.00793500  0.98514800  0.63608500  1
  H  71  1  0.01052200  0.91664500  0.73866100  1
  H  72  1  0.92410600  0.94359800  0.67693800  1
  H  73  1  0.90001900  0.02097800  0.71760100  1
  H  74  1  0.97249200  0.02660900  0.72724900  1
  H  75  1  0.10060200  0.94487500  0.67754400  1
  H  76  1  0.04907100  0.02716400  0.72755400  1
  H  77  1  0.12185800  0.02252900  0.71836600  1
  H  107  1  0.52194000  0.70294900  0.18886200  1
  H  108  1  0.52298800  0.65678000  0.16894000  1
  H  109  1  0.52402400  0.61296700  0.14136600  1
  H  110  1  0.52446500  0.57528700  0.10780800  1
  H  111  1  0.51192200  0.63383200  0.04150700  1
  H  112  1  0.51037400  0.73830000  0.10766800  1
  H  113  1  0.42469800  0.67557100  0.08201300  1
  H  114  1  0.40043000  0.71477600  0.00389300  1
  H  115  1  0.47285100  0.72441100  0.99806200  1
  H  116  1  0.60131400  0.67697200  0.08085300  1
  H  117  1  0.54931700  0.72481700  0.99743100  1
  H  118  1  0.62218500  0.71611800  0.00229400  1
  H  148  1  0.52167500  0.32374900  0.83657900  1
  H  149  1  0.52215600  0.36948400  0.85756800  1
  H  150  1  0.51966100  0.41292300  0.88629400  1
  H  151  1  0.51623300  0.44968500  0.92082500  1
  H  152  1  0.50787400  0.38905200  0.98545300  1
  H  153  1  0.51041500  0.28649200  0.91691900  1
  H  154  1  0.42405700  0.34844900  0.94402300  1
  H  155  1  0.39999800  0.30788100  0.02145900  1
  H  156  1  0.47241600  0.29802700  0.02696100  1
  H  157  1  0.60050000  0.34772300  0.94529300  1
  H  158  1  0.54889100  0.29766700  0.02751500  1
  H  159  1  0.62164500  0.30697000  0.02298900  1
  H  189  1  0.50248100  0.83972800  0.32029100  1
  H  190  1  0.50305200  0.85931200  0.36643200  1
  H  191  1  0.50354200  0.88651500  0.41020700  1
  H  192  1  0.50291600  0.91971000  0.44813500  1
  H  193  1  0.51304500  0.98667700  0.39005700  1
  H  194  1  0.51335000  0.92104600  0.28525500  1
  H  195  1  0.60166800  0.94949600  0.34933800  1
  H  196  1  0.62152800  0.02425900  0.30300300  1
  H  197  1  0.54977000  0.02718500  0.29268200  1
  H  198  1  0.42299000  0.94975200  0.34855400  1
  H  199  1  0.47624500  0.02741100  0.29247800  1
  H  200  1  0.40425000  0.02463200  0.30225000  1
  H  230  1  0.50304200  0.18499200  0.70368300  1
  H  231  1  0.50404100  0.16438800  0.65795300  1
  H  232  1  0.50801600  0.13604000  0.61454400  1
  H  233  1  0.51122900  0.10186500  0.57751700  1
  H  234  1  0.51645800  0.03650100  0.63758500  1
  H  235  1  0.51294900  0.10442800  0.74052700  1
  H  236  1  0.60180400  0.07476000  0.67752900  1
  H  237  1  0.62152200  0.00097500  0.72542700  1
  H  238  1  0.54970500  0.99823100  0.73567000  1
  H  239  1  0.42326800  0.07433600  0.67755900  1
  H  240  1  0.47605400  0.99796100  0.73557600  1
  H  241  1  0.40415700  0.00047900  0.72541400  1
  H  271  1  0.00228300  0.32000100  0.18541900  1
  H  272  1  0.00287500  0.36614400  0.16584900  1
  H  273  1  0.00349200  0.40993600  0.13866600  1
  H  274  1  0.00292700  0.44787600  0.10548300  1
  H  275  1  0.01277500  0.38980500  0.03849000  1
  H  276  1  0.01300200  0.28498000  0.10408600  1
  H  277  1  0.10139000  0.34878300  0.07582700  1
  H  278  1  0.12119800  0.30255100  0.00098400  1
  H  279  1  0.04938100  0.29244000  0.99792600  1
  H  280  1  0.92260100  0.34815400  0.07554400  1
  H  281  1  0.97580700  0.29227400  0.99771300  1
  H  282  1  0.90379900  0.30195800  0.00058800  1
  H  312  1  0.00317400  0.70343600  0.84015900  1
  H  313  1  0.00416100  0.65769700  0.86074900  1
  H  314  1  0.00813500  0.61427700  0.88908300  1
  H  315  1  0.01137300  0.57723700  0.92324800  1
  H  316  1  0.01669400  0.63729000  0.98862700  1
  H  317  1  0.01312200  0.74024900  0.92073000  1
  H  318  1  0.10198100  0.67703100  0.95051000  1
  H  319  1  0.12178800  0.72517000  0.02411400  1
  H  320  1  0.05003700  0.73558000  0.02675400  1
  H  321  1  0.92351000  0.67720100  0.95093900  1
  H  322  1  0.97635500  0.73571700  0.02693100  1
  H  323  1  0.90446500  0.72546700  0.02454600  1
  H  335  1  0.08495600  0.00530600  0.52495200  1
  H  339  1  0.92553000  0.04837700  0.48696100  1
  H  341  1  0.98217400  0.02213400  0.44224800  1
  H  343  1  0.05618800  0.96535700  0.55698200  1
  H  350  1  0.58496600  0.50017900  0.00564100  1
  H  354  1  0.42552500  0.53819200  0.04861600  1
  H  356  1  0.48224200  0.58292500  0.02239000  1
  H  358  1  0.55621700  0.46814400  0.96569400  1
  H  365  1  0.44065200  0.01849900  0.52575100  1
  H  369  1  0.60039800  0.97833700  0.48502800  1
  H  371  1  0.54196900  0.00600000  0.44155600  1
  H  373  1  0.46976100  0.05807900  0.55847500  1
  H  380  1  0.94064800  0.52557900  0.00660000  1
  H  384  1  0.10006600  0.48425200  0.04679900  1
  H  386  1  0.04147400  0.44120500  0.01900300  1
  H  388  1  0.96993600  0.55820200  0.96698100  1
  H  395  1  0.75346000  0.01034000  0.28615300  1
  H  399  1  0.79091900  0.04606600  0.40045400  1
  H  401  1  0.86031800  0.01463600  0.36559500  1
  H  403  1  0.68394000  0.99390000  0.29635900  1
  H  410  1  0.75349700  0.01431100  0.74133700  1
  H  414  1  0.79092200  0.97907900  0.62686200  1
  H  416  1  0.86049700  0.01060200  0.66213100  1
  H  418  1  0.68414400  0.03110900  0.73127400  1
  H  425  1  0.25404500  0.74014800  0.01148000  1
  H  429  1  0.29047000  0.62532200  0.04598300  1
  H  431  1  0.35996100  0.65971600  0.01535400  1
  H  433  1  0.18470500  0.73052100  0.99434100  1
  H  440  1  0.25264700  0.28481800  0.01538000  1
  H  444  1  0.29119800  0.39867900  0.97936800  1
  H  446  1  0.36052200  0.36411000  0.01047800  1
  H  448  1  0.18325200  0.29545700  0.03174100  1
  H  455  1  0.27185200  0.01476100  0.74211300  1
  H  459  1  0.23198500  0.98018600  0.62801800  1
  H  461  1  0.16359800  0.01245800  0.66325400  1
  H  463  1  0.34154800  0.03062700  0.73159200  1
  H  470  1  0.27187600  0.00983500  0.28444500  1
  H  474  1  0.23253800  0.04507600  0.39841800  1
  H  476  1  0.16382500  0.01319900  0.36372100  1
  H  478  1  0.34173000  0.99434100  0.29508000  1
  H  485  1  0.77153700  0.28372400  0.01584500  1
  H  489  1  0.73151900  0.39766900  0.98042100  1
  H  491  1  0.66285000  0.36187400  0.01330800  1
  H  493  1  0.84150400  0.29459600  0.03097800  1
  H  500  1  0.77179300  0.74133300  0.01072200  1
  H  504  1  0.73295900  0.62687000  0.04519300  1
  H  506  1  0.66445100  0.66214300  0.01294200  1
  H  508  1  0.84160500  0.73116100  0.99476400  1
  H  515  1  0.96527400  0.18042300  0.20074200  1
  H  519  1  0.04507100  0.27222700  0.25852800  1
  H  521  1  0.04231400  0.27879400  0.19258900  1
  H  523  1  0.99106600  0.14819200  0.24167400  1
  H  530  1  0.96576400  0.84358100  0.82362400  1
  H  534  1  0.04460500  0.75142700  0.76564300  1
  H  536  1  0.04191200  0.74487900  0.83185900  1
  H  538  1  0.99134300  0.87554600  0.78258600  1
  H  545  1  0.46576800  0.82453100  0.18061800  1
  H  549  1  0.54482400  0.76658600  0.27262300  1
  H  551  1  0.54264100  0.83257600  0.27909000  1
  H  553  1  0.49132600  0.78349200  0.14848400  1
  H  560  1  0.46556500  0.20158300  0.84384200  1
  H  564  1  0.54504000  0.26076000  0.75292600  1
  H  566  1  0.54156500  0.19338400  0.74510600  1
  H  568  1  0.49115000  0.24261200  0.87579600  1
  C  1  1  0.04756000  0.06059900  0.33216000  1
  C  2  1  0.03294400  0.03640400  0.31862500  1
  C  3  1  0.99014400  0.03679400  0.31886900  1
  C  4  1  0.97668800  0.06112700  0.33278100  1
  C  5  1  0.93415700  0.06451000  0.33859900  1
  C  6  1  0.90578800  0.04312200  0.33091900  1
  C  7  1  0.92018400  0.01914900  0.31622700  1
  C  8  1  0.96232900  0.01579100  0.31024500  1
  C  9  1  0.05991200  0.01505700  0.30957200  1
  C  10  1  0.10234300  0.01786100  0.31493800  1
  C  11  1  0.11788000  0.04169700  0.32930400  1
  C  12  1  0.09037700  0.06348000  0.33726500  1
  C  13  1  0.01353300  0.10829700  0.33156700  1
  C  14  1  0.01705000  0.12635700  0.35477800  1
  C  15  1  0.01736800  0.11081500  0.37972100  1
  C  16  1  0.01390500  0.08215500  0.37347400  1
  C  17  1  0.02117600  0.12014800  0.40768300  1
  C  18  1  0.02154700  0.10032400  0.42966300  1
  C  19  1  0.01741800  0.07117000  0.42440900  1
  C  20  1  0.01369500  0.06219600  0.39588400  1
  C  21  1  0.01240900  0.12031900  0.30394600  1
  C  22  1  0.01531200  0.15011100  0.29987800  1
  C  23  1  0.01955700  0.16713800  0.32411700  1
  C  24  1  0.02015800  0.15564100  0.35134900  1
  C  37  1  0.01258100  0.07838500  0.34214100  1
  C  42  1  0.04733500  0.96447400  0.69426400  1
  C  43  1  0.03285600  0.98835300  0.70841700  1
  C  44  1  0.99004200  0.98789900  0.70846800  1
  C  45  1  0.97648200  0.96381500  0.69418000  1
  C  46  1  0.93391400  0.96045800  0.68850300  1
  C  47  1  0.90561500  0.98172800  0.69658600  1
  C  48  1  0.92007000  0.00545300  0.71164400  1
  C  49  1  0.96226200  0.00873300  0.71754200  1
  C  50  1  0.05992900  0.00951700  0.71774600  1
  C  51  1  0.10231100  0.00681600  0.71212800  1
  C  52  1  0.11769000  0.98328600  0.69719200  1
  C  53  1  0.09008700  0.96169700  0.68887700  1
  C  54  1  0.01350200  0.91671500  0.69395000  1
  C  55  1  0.01661800  0.89923000  0.67027100  1
  C  56  1  0.01618700  0.91538800  0.64568900  1
  C  57  1  0.01292700  0.94385900  0.65274600  1
  C  58  1  0.01780100  0.90681600  0.61737500  1
  C  59  1  0.01601000  0.92720200  0.59591700  1
  C  60  1  0.01293200  0.95632500  0.60206900  1
  C  61  1  0.01088800  0.96437300  0.63091100  1
  C  62  1  0.01271700  0.90408200  0.72129400  1
  C  63  1  0.01557700  0.87421200  0.72467200  1
  C  64  1  0.01944500  0.85774700  0.70000600  1
  C  65  1  0.01966800  0.86986700  0.67302600  1
  C  78  1  0.01227000  0.94685800  0.68415100  1
  C  83  1  0.54788600  0.69301900  0.06090100  1
  C  84  1  0.53329900  0.70659800  0.03672000  1
  C  85  1  0.49049600  0.70629500  0.03707100  1
  C  86  1  0.47702800  0.69242100  0.06142300  1
  C  87  1  0.43447900  0.68670400  0.06485800  1
  C  88  1  0.40610600  0.69439800  0.04348200  1
  C  89  1  0.42051700  0.70902100  0.01947100  1
  C  90  1  0.46268200  0.71492100  0.01606900  1
  C  91  1  0.56027200  0.71551600  0.01532100  1
  C  92  1  0.60270700  0.71018000  0.01816100  1
  C  93  1  0.61822900  0.69586200  0.04203200  1
  C  94  1  0.59069800  0.68791000  0.06380100  1
  C  95  1  0.51383400  0.69360700  0.10859200  1
  C  96  1  0.51721900  0.67038900  0.12665000  1
  C  97  1  0.51751200  0.64544700  0.11110100  1
  C  98  1  0.51418200  0.65170900  0.08243700  1
  C  99  1  0.52119400  0.61747900  0.12043200  1
  C  100  1  0.52153600  0.59550100  0.10060500  1
  C  101  1  0.51748100  0.60076500  0.07144800  1
  C  102  1  0.51388900  0.62929900  0.06247500  1
  C  103  1  0.51271500  0.72122700  0.12061400  1
  C  104  1  0.51554500  0.72528600  0.15040900  1
  C  105  1  0.51965800  0.70103900  0.16744100  1
  C  106  1  0.52022900  0.67380900  0.15594100  1
  C  119  1  0.51290000  0.68304200  0.07867900  1
  C  124  1  0.54723900  0.33085400  0.96476600  1
  C  125  1  0.53275000  0.31661600  0.98859500  1
  C  126  1  0.48993500  0.31669400  0.98818700  1
  C  127  1  0.47636900  0.33093400  0.96407200  1
  C  128  1  0.43384700  0.33687400  0.96088100  1
  C  129  1  0.40556700  0.32888700  0.98219900  1
  C  130  1  0.42002100  0.31378700  0.00589700  1
  C  131  1  0.46217900  0.30774200  0.00909200  1
  C  132  1  0.55977800  0.30740200  0.00983900  1
  C  133  1  0.60214300  0.31311000  0.00721400  1
  C  134  1  0.61754100  0.32806300  0.98370300  1
  C  135  1  0.58997900  0.33632500  0.96206700  1
  C  136  1  0.51343300  0.33120100  0.91700500  1
  C  137  1  0.51657200  0.35488500  0.89952600  1
  C  138  1  0.51614900  0.37946000  0.91569300  1
  C  139  1  0.51286900  0.37239500  0.94416400  1
  C  140  1  0.51778400  0.40777400  0.90713000  1
  C  141  1  0.51601100  0.42922800  0.92752000  1
  C  142  1  0.51295500  0.42307200  0.95664500  1
  C  143  1  0.51084300  0.39422800  0.96468000  1
  C  144  1  0.51264100  0.30386200  0.90436400  1
  C  145  1  0.51549300  0.30049200  0.87449000  1
  C  146  1  0.51939000  0.32516200  0.85803500  1
  C  147  1  0.51963400  0.35213800  0.87016500  1
  C  160  1  0.51218400  0.34098800  0.94715300  1
  C  165  1  0.47680600  0.96700200  0.32996200  1
  C  166  1  0.49142400  0.98957300  0.31389900  1
  C  167  1  0.53405700  0.98945700  0.31411100  1
  C  168  1  0.54825900  0.96677900  0.33024400  1
  C  169  1  0.59108300  0.96509600  0.33642400  1
  C  170  1  0.61887600  0.98571800  0.32580800  1
  C  171  1  0.60279700  0.00821700  0.30957400  1
  C  172  1  0.56070000  0.01013600  0.30345400  1
  C  173  1  0.46505300  0.01039000  0.30317000  1
  C  174  1  0.42282400  0.00856000  0.30895000  1
  C  175  1  0.40637100  0.98604200  0.32497900  1
  C  176  1  0.43387400  0.96536600  0.33577000  1
  C  177  1  0.51150600  0.91982400  0.32989500  1
  C  178  1  0.50892800  0.90165100  0.35301500  1
  C  179  1  0.50882400  0.91714600  0.37795200  1
  C  180  1  0.51146300  0.94590100  0.37180800  1
  C  181  1  0.50581100  0.90751300  0.40584500  1
  C  182  1  0.50534600  0.92713500  0.42796600  1
  C  183  1  0.50860200  0.95636500  0.42290100  1
  C  184  1  0.51161400  0.96565400  0.39440700  1
  C  185  1  0.51172200  0.90790600  0.30222900  1
  C  186  1  0.50992400  0.87811600  0.29779100  1
  C  187  1  0.50587600  0.86103500  0.32217100  1
  C  188  1  0.50585700  0.87238500  0.34946400  1
  C  201  1  0.51231700  0.94976300  0.34045000  1
  C  206  1  0.47691100  0.05749600  0.69674200  1
  C  207  1  0.49140900  0.03531800  0.71339800  1
  C  208  1  0.53404800  0.03548300  0.71341100  1
  C  209  1  0.54833300  0.05779700  0.69682100  1
  C  210  1  0.59118500  0.05943900  0.69076400  1
  C  211  1  0.61892200  0.03903300  0.70182100  1
  C  212  1  0.60279700  0.01685700  0.71847500  1
  C  213  1  0.56066900  0.01505500  0.72456500  1
  C  214  1  0.46493600  0.01476600  0.72451200  1
  C  215  1  0.42277400  0.01641000  0.71844000  1
  C  216  1  0.40644200  0.03856000  0.70184400  1
  C  217  1  0.43404100  0.05899000  0.69070900  1
  C  218  1  0.51150600  0.10470500  0.69587500  1
  C  219  1  0.50934500  0.12233700  0.67231300  1
  C  220  1  0.50986600  0.10624300  0.64772700  1
  C  221  1  0.51221800  0.07766100  0.65464100  1
  C  222  1  0.50909800  0.11513200  0.61951000  1
  C  223  1  0.51076600  0.09494400  0.59790300  1
  C  224  1  0.51276700  0.06572600  0.60379800  1
  C  225  1  0.51411500  0.05735400  0.63260000  1
  C  226  1  0.51150900  0.11720700  0.72326900  1
  C  227  1  0.50987200  0.14707900  0.72706400  1
  C  228  1  0.50624900  0.16363700  0.70228600  1
  C  229  1  0.50646800  0.15168600  0.67522800  1
  C  242  1  0.51249000  0.07454200  0.68606500  1
  C  247  1  0.97644500  0.32977100  0.05811100  1
  C  248  1  0.99104100  0.31372200  0.03552300  1
  C  249  1  0.03366100  0.31391600  0.03562800  1
  C  250  1  0.04788300  0.33001500  0.05832500  1
  C  251  1  0.09075600  0.33598000  0.06014900  1
  C  252  1  0.11853900  0.32531000  0.03955500  1
  C  253  1  0.10243100  0.30920400  0.01697400  1
  C  254  1  0.06030600  0.30321600  0.01497600  1
  C  255  1  0.96463900  0.30295300  0.01474900  1
  C  256  1  0.92240400  0.30868700  0.01663300  1
  C  257  1  0.90597300  0.32466800  0.03919100  1
  C  258  1  0.93348200  0.33542700  0.05988200  1
  C  259  1  0.01118800  0.32961900  0.10531900  1
  C  260  1  0.00867800  0.35273700  0.12350300  1
  C  261  1  0.00859800  0.37768100  0.10801900  1
  C  262  1  0.01117500  0.37154600  0.07926100  1
  C  263  1  0.00570500  0.40557800  0.11766400  1
  C  264  1  0.00527400  0.42770500  0.09805000  1
  C  265  1  0.00843100  0.42264500  0.06881300  1
  C  266  1  0.01136000  0.39415200  0.05951500  1
  C  267  1  0.01139700  0.30195200  0.11723000  1
  C  268  1  0.00965200  0.29750500  0.14702100  1
  C  269  1  0.00565300  0.32188300  0.16411000  1
  C  270  1  0.00566500  0.34918100  0.15276900  1
  C  283  1  0.01197100  0.34019100  0.07538600  1
  C  288  1  0.97717600  0.69643200  0.96768800  1
  C  289  1  0.99169200  0.71321300  0.98976200  1
  C  290  1  0.03433400  0.71325900  0.98955400  1
  C  291  1  0.04859000  0.69656300  0.96730500  1
  C  292  1  0.09141300  0.69039100  0.96574000  1
  C  293  1  0.11917100  0.70144500  0.98613400  1
  C  294  1  0.10309100  0.71828400  0.00818800  1
  C  295  1  0.06099600  0.72450800  0.00990600  1
  C  296  1  0.96523700  0.72449500  0.01023200  1
  C  297  1  0.92307600  0.71838300  0.00866100  1
  C  298  1  0.90674000  0.70161300  0.98664500  1
  C  299  1  0.93429600  0.69044000  0.96620500  1
  C  300  1  0.01169000  0.69559700  0.92044000  1
  C  301  1  0.00951600  0.67204000  0.90280100  1
  C  302  1  0.01003700  0.64745100  0.91889000  1
  C  303  1  0.01244900  0.65435500  0.94747200  1
  C  304  1  0.00928200  0.61923700  0.90999000  1
  C  305  1  0.01095900  0.59762300  0.93017200  1
  C  306  1  0.01301300  0.60351200  0.95939000  1
  C  307  1  0.01434900  0.63230900  0.96777400  1
  C  308  1  0.01167800  0.72299600  0.90794600  1
  C  309  1  0.01005600  0.72679800  0.87807600  1
  C  310  1  0.00640500  0.70202900  0.86151200  1
  C  311  1  0.00663300  0.67496800  0.87345300  1
  C  324  1  0.01272300  0.68577700  0.95060000  1
  C  329  1  0.00721300  0.02041800  0.48237600  1
  C  331  1  0.05482500  0.00656800  0.51875700  1
  C  332  1  0.02293500  0.99474300  0.53526700  1
  C  334  1  0.97473000  0.00883800  0.49895000  1
  C  336  1  0.93373200  0.00913600  0.49044800  1
  C  340  1  0.00199000  0.03142900  0.45519600  1
  C  342  1  0.03141900  0.97764500  0.55854200  1
  C  344  1  0.50724800  0.54279500  0.02069100  1
  C  346  1  0.55484200  0.50638800  0.00688200  1
  C  347  1  0.52295100  0.48988700  0.99504600  1
  C  349  1  0.47476500  0.52623100  0.00909400  1
  C  351  1  0.43377300  0.53474300  0.00937600  1
  C  355  1  0.50203400  0.56997400  0.03170800  1
  C  357  1  0.53143000  0.46659400  0.97796900  1
  C  359  1  0.51792900  0.00577500  0.48201800  1
  C  361  1  0.47070100  0.01770200  0.51930000  1
  C  362  1  0.50265700  0.02913400  0.53602200  1
  C  364  1  0.55048200  0.01696700  0.49878400  1
  C  366  1  0.59129900  0.01729400  0.48991800  1
  C  370  1  0.52289300  0.99587700  0.45439500  1
  C  372  1  0.49425200  0.04550200  0.55981700  1
  C  374  1  0.01778700  0.48176100  0.01941900  1
  C  376  1  0.97068500  0.51911100  0.00745800  1
  C  377  1  0.00270200  0.53576500  0.99600900  1
  C  379  1  0.05039900  0.49847100  0.00822400  1
  C  381  1  0.09117800  0.48955000  0.00783700  1
  C  385  1  0.02259700  0.45409800  0.02922700  1
  C  387  1  0.99437700  0.55954600  0.97959900  1
  C  389  1  0.80565400  0.01881000  0.34513600  1
  C  391  1  0.75886200  0.00921600  0.30731700  1
  C  392  1  0.72883900  0.99880700  0.32620100  1
  C  394  1  0.77587800  0.00817500  0.36439400  1
  C  396  1  0.78199000  0.00741000  0.39330100  1
  C  400  1  0.84486100  0.02765200  0.35301900  1
  C  402  1  0.68955500  0.99181100  0.31687900  1
  C  404  1  0.80567200  0.00613700  0.68231000  1
  C  406  1  0.75888300  0.01551400  0.72017700  1
  C  407  1  0.72883900  0.02596600  0.70133700  1
  C  409  1  0.77586600  0.01680000  0.66309200  1
  C  411  1  0.78198000  0.01770200  0.63419000  1
  C  415  1  0.84487700  0.99736200  0.67436200  1
  C  417  1  0.68962300  0.03303600  0.71072300  1
  C  419  1  0.30566600  0.68085100  0.01930200  1
  C  421  1  0.25924100  0.71897400  0.01013800  1
  C  422  1  0.22905800  0.70034000  0.99950500  1
  C  424  1  0.27571300  0.66183200  0.00847000  1
  C  426  1  0.28154400  0.63290900  0.00740700  1
  C  430  1  0.34480100  0.67277000  0.02807200  1
  C  432  1  0.18996300  0.70994400  0.99241300  1
  C  434  1  0.30561100  0.34346400  0.00690300  1
  C  436  1  0.25832300  0.30594800  0.01648100  1
  C  437  1  0.22850600  0.32503600  0.02678400  1
  C  439  1  0.27606700  0.36293000  0.01745300  1
  C  441  1  0.28252400  0.39181800  0.01811300  1
  C  445  1  0.34492700  0.35099600  0.99807500  1
  C  447  1  0.18911200  0.31594700  0.03379100  1
  C  449  1  0.21851600  0.00754200  0.68345700  1
  C  451  1  0.26619900  0.01605500  0.72099100  1
  C  452  1  0.29628800  0.02606900  0.70195200  1
  C  454  1  0.24836600  0.01776800  0.66403400  1
  C  456  1  0.24185600  0.01874700  0.63516100  1
  C  460  1  0.17888000  0.99941700  0.67591200  1
  C  462  1  0.33582200  0.03261600  0.71107600  1
  C  464  1  0.21869400  0.01750000  0.34311700  1
  C  466  1  0.26624700  0.00864600  0.30557800  1
  C  467  1  0.29631300  0.99864100  0.32463600  1
  C  469  1  0.24851300  0.00726700  0.36255800  1
  C  471  1  0.24207500  0.00644600  0.39144300  1
  C  475  1  0.17915700  0.02582100  0.35068000  1
  C  477  1  0.33584700  0.99203800  0.31554200  1
  C  479  1  0.71800800  0.34224800  0.00816700  1
  C  481  1  0.76579900  0.30484400  0.01700200  1
  C  482  1  0.79582700  0.32400500  0.02686400  1
  C  484  1  0.74777400  0.36178800  0.01827500  1
  C  486  1  0.74111400  0.39064800  0.01899200  1
  C  490  1  0.67839300  0.34974800  0.99991700  1
  C  492  1  0.83547600  0.31503700  0.03330400  1
  C  494  1  0.71915500  0.68238600  0.01804800  1
  C  496  1  0.76636600  0.72018300  0.00942000  1
  C  497  1  0.79663200  0.70130800  0.99934700  1
  C  499  1  0.74918300  0.66313400  0.00773800  1
  C  501  1  0.74297900  0.63424400  0.00670100  1
  C  505  1  0.67964200  0.67456600  0.02624800  1
  C  507  1  0.83604300  0.71063000  0.99273000  1
  C  509  1  0.02276400  0.23827500  0.19829500  1
  C  511  1  0.98767700  0.19411300  0.20714000  1
  C  512  1  0.01071300  0.18883100  0.23194800  1
  C  514  1  0.04645000  0.23270300  0.22305500  1
  C  516  1  0.07665700  0.25055200  0.23325800  1
  C  520  1  0.02581400  0.26394400  0.18314500  1
  C  522  1  0.00522100  0.16504100  0.24935300  1
  C  524  1  0.02265100  0.78545300  0.82601000  1
  C  526  1  0.98798300  0.82977000  0.81718400  1
  C  527  1  0.01091600  0.83490100  0.79229700  1
  C  529  1  0.04627700  0.79088400  0.80119000  1
  C  531  1  0.07632600  0.77290800  0.79099900  1
  C  535  1  0.02569000  0.75986500  0.84130700  1
  C  537  1  0.00557300  0.85872500  0.77490200  1
  C  539  1  0.52299100  0.82680700  0.23859900  1
  C  541  1  0.48807900  0.81807600  0.19435400  1
  C  542  1  0.51099100  0.79320600  0.18912200  1
  C  544  1  0.54660000  0.80200600  0.23305800  1
  C  546  1  0.57667200  0.79171900  0.25096600  1
  C  550  1  0.52611200  0.84199700  0.26423900  1
  C  552  1  0.50553700  0.77581900  0.16531300  1
  C  554  1  0.52249200  0.19913600  0.78573500  1
  C  556  1  0.48780500  0.20800500  0.83003500  1
  C  557  1  0.51076900  0.23287700  0.83516600  1
  C  559  1  0.54611600  0.22396100  0.79114700  1
  C  561  1  0.57624600  0.23411200  0.77316700  1
  C  565  1  0.52545800  0.18388200  0.76011800  1
  C  567  1  0.50545000  0.25027200  0.85899500  1
  N  38  1  0.01865900  0.05478700  0.44747700  1
  N  39  1  0.15790600  0.04335600  0.33535100  1
  N  40  1  0.86600100  0.04515900  0.33758500  1
  N  41  1  0.01517600  0.16503500  0.27566600  1
  N  79  1  0.00841600  0.97486200  0.58065700  1
  N  80  1  0.15767300  0.98168100  0.69101000  1
  N  81  1  0.86584300  0.97982400  0.68987600  1
  N  82  1  0.01566200  0.85881600  0.74860600  1
  N  120  1  0.51869900  0.57769600  0.05506500  1
  N  121  1  0.65825900  0.68983600  0.04374700  1
  N  122  1  0.36628200  0.68789500  0.04564600  1
  N  123  1  0.51544600  0.74950000  0.16532600  1
  N  161  1  0.50841300  0.44448600  0.97517600  1
  N  162  1  0.65748200  0.33440700  0.98222200  1
  N  163  1  0.36582000  0.33567500  0.98034100  1
  N  164  1  0.51557900  0.27656200  0.85908700  1
  N  202  1  0.50734000  0.97233000  0.44624000  1
  N  203  1  0.36647000  0.98732700  0.33228000  1
  N  204  1  0.65867300  0.98712100  0.33342000  1
  N  205  1  0.50907600  0.86564700  0.27178100  1
  N  243  1  0.51717000  0.04754300  0.58206400  1
  N  244  1  0.36659000  0.03715600  0.69441300  1
  N  245  1  0.65868500  0.03752000  0.69418800  1
  N  246  1  0.50900900  0.15994700  0.75288600  1
  N  284  1  0.00725000  0.44599000  0.05285500  1
  N  285  1  0.86601300  0.33184900  0.03802500  1
  N  286  1  0.15842000  0.33270700  0.03827100  1
  N  287  1  0.00882300  0.27148700  0.15948000  1
  N  325  1  0.01732200  0.58178500  0.97758800  1
  N  326  1  0.86692900  0.69409100  0.98811100  1
  N  327  1  0.15884600  0.69360500  0.98777100  1
  N  328  1  0.00913100  0.75261700  0.86520400  1
  N  330  1  0.04588100  0.01855300  0.49344400  1
  N  333  1  0.98432300  0.99637700  0.52411100  1
  N  345  1  0.54590300  0.53170800  0.01885300  1
  N  348  1  0.48434800  0.50106000  0.99665300  1
  N  360  1  0.47942700  0.00683100  0.49345200  1
  N  363  1  0.54109000  0.02833100  0.52449300  1
  N  375  1  0.97931500  0.49324600  0.01832200  1
  N  378  1  0.04109700  0.52417800  0.99682300  1
  N  390  1  0.79547900  0.01859600  0.31737600  1
  N  393  1  0.73892800  0.99915000  0.35398000  1
  N  405  1  0.79551000  0.00621900  0.71007300  1
  N  408  1  0.73891300  0.02575900  0.67355400  1
  N  420  1  0.29575100  0.70865100  0.01941300  1
  N  423  1  0.23887700  0.67251300  0.99953700  1
  N  435  1  0.29508800  0.31577100  0.00713600  1
  N  438  1  0.23894600  0.35275600  0.02642500  1
  N  450  1  0.22910100  0.00738400  0.71113700  1
  N  453  1  0.28578400  0.02610800  0.67424000  1
  N  465  1  0.22922900  0.01748400  0.31542400  1
  N  468  1  0.28585600  0.99877100  0.35235700  1
  N  480  1  0.72867900  0.31457800  0.00823400  1
  N  483  1  0.78523000  0.35169800  0.02668000  1
  N  495  1  0.72942800  0.71012700  0.01817600  1
  N  498  1  0.78643600  0.67354600  0.99931200  1
  N  510  1  0.99407500  0.21821100  0.19191600  1
  N  513  1  0.03917000  0.20885800  0.23834200  1
  N  525  1  0.99423600  0.80567900  0.83244400  1
  N  528  1  0.03915400  0.81473600  0.78587500  1
  N  540  1  0.49444900  0.83328100  0.21846700  1
  N  543  1  0.53933300  0.78674000  0.20920100  1
  N  555  1  0.49404500  0.19273600  0.80594800  1
  N  558  1  0.53901500  0.23928200  0.81500100  1
  O  337  1  0.91262900  0.98835100  0.49510100  1
  O  338  1  0.91435300  0.03139700  0.48788400  1
  O  352  1  0.41269200  0.53010100  0.98857800  1
  O  353  1  0.41436600  0.53728000  0.03162900  1
  O  367  1  0.61210800  0.03801700  0.49544400  1
  O  368  1  0.61121700  0.99537600  0.48659100  1
  O  382  1  0.11229600  0.49507200  0.98726600  1
  O  383  1  0.11095100  0.48585900  0.02978100  1
  O  397  1  0.76882700  0.98719200  0.40640700  1
  O  398  1  0.78555400  0.02915700  0.40737600  1
  O  412  1  0.76879900  0.03797400  0.62117800  1
  O  413  1  0.78553800  0.99601800  0.62001500  1
  O  427  1  0.26824400  0.62006400  0.98706400  1
  O  428  1  0.28502000  0.61859500  0.02900700  1
  O  442  1  0.26989800  0.40491100  0.03849000  1
  O  443  1  0.28606900  0.40572700  0.99626200  1
  O  457  1  0.25510700  0.03903000  0.62221100  1
  O  458  1  0.23764500  0.99705300  0.62109400  1
  O  472  1  0.25520400  0.98617400  0.40447400  1
  O  473  1  0.23808300  0.02822200  0.40541600  1
  O  487  1  0.75468700  0.40372100  0.03911100  1
  O  488  1  0.73724500  0.40465500  0.99725000  1
  O  502  1  0.75671900  0.62124400  0.98659700  1
  O  503  1  0.73881700  0.62004500  0.02832000  1
  O  517  1  0.11223000  0.24227500  0.23155000  1
  O  518  1  0.06979000  0.26589000  0.25372000  1
  O  532  1  0.11197400  0.78102100  0.79277000  1
  O  533  1  0.06937000  0.75765100  0.77049200  1
  O  547  1  0.61228400  0.79328800  0.24274000  1
  O  548  1  0.56959900  0.77129900  0.26631700  1
  O  562  1  0.61183100  0.23109200  0.78100600  1
  O  563  1  0.56971300  0.25533900  0.75884900  1
