# generated using pymatgen
data_K3H45C33O7
_symmetry_space_group_name_H-M   'P 1'
_cell_length_a   13.86830000
_cell_length_b   16.22810000
_cell_length_c   20.49100000
_cell_angle_alpha   90.00000000
_cell_angle_beta   104.71500000
_cell_angle_gamma   90.00000000
_symmetry_Int_Tables_number   1
_chemical_formula_structural   K3H45C33O7
_chemical_formula_sum   'K12 H180 C132 O28'
_cell_volume   4460.37036423
_cell_formula_units_Z   4
loop_
 _symmetry_equiv_pos_site_id
 _symmetry_equiv_pos_as_xyz
  1  'x, y, z'
loop_
 _atom_site_type_symbol
 _atom_site_label
 _atom_site_symmetry_multiplicity
 _atom_site_fract_x
 _atom_site_fract_y
 _atom_site_fract_z
 _atom_site_occupancy
  K  K1  1  0.01002000  0.39783000  0.88517000  1.0
  K  K2  1  0.06504000  0.37118000  0.11015000  1.0
  K  K3  1  0.21901000  0.48151000  0.02823000  1.0
  K  K4  1  0.98998000  0.89783000  0.61483000  1.0
  K  K5  1  0.93496000  0.87118000  0.38985000  1.0
  K  K6  1  0.78099000  0.98151000  0.47177000  1.0
  K  K7  1  0.98998000  0.60217000  0.11483000  1.0
  K  K8  1  0.93496000  0.62882000  0.88985000  1.0
  K  K9  1  0.78099000  0.51849000  0.97177000  1.0
  K  K10  1  0.01002000  0.10217000  0.38517000  1.0
  K  K11  1  0.06504000  0.12882000  0.61015000  1.0
  K  K12  1  0.21901000  0.01849000  0.52823000  1.0
  H  H1  1  0.20150000  0.08160000  0.96900000  1.0
  H  H2  1  0.31770000  0.12120000  0.91060000  1.0
  H  H3  1  0.34130000  0.26090000  0.89340000  1.0
  H  H4  1  0.25110000  0.35900000  0.93450000  1.0
  H  H5  1  0.07460000  0.21050000  0.05730000  1.0
  H  H6  1  0.96910000  0.13190000  0.93530000  1.0
  H  H7  1  0.92060000  0.16100000  0.99450000  1.0
  H  H8  1  0.96170000  0.22800000  0.95090000  1.0
  H  H9  1  0.15500000  0.08360000  0.08740000  1.0
  H  H10  1  0.03720000  0.07520000  0.07750000  1.0
  H  H11  1  0.08750000  0.04270000  0.02020000  1.0
  H  H12  1  0.62780000  0.38920000  0.68410000  1.0
  H  H13  1  0.71740000  0.44320000  0.61230000  1.0
  H  H14  1  0.86820000  0.51170000  0.65850000  1.0
  H  H15  1  0.92600000  0.52670000  0.77500000  1.0
  H  H16  1  0.66340000  0.43030000  0.85470000  1.0
  H  H17  1  0.52560000  0.34490000  0.82190000  1.0
  H  H18  1  0.52010000  0.41340000  0.76480000  1.0
  H  H19  1  0.55460000  0.32150000  0.75350000  1.0
  H  H20  1  0.72210000  0.27030000  0.82080000  1.0
  H  H21  1  0.78980000  0.32920000  0.87670000  1.0
  H  H22  1  0.68830000  0.29210000  0.88780000  1.0
  H  H23  1  0.34040000  0.64110000  0.81750000  1.0
  H  H24  1  0.35830000  0.75670000  0.88750000  1.0
  H  H25  1  0.26200000  0.76940000  0.96440000  1.0
  H  H26  1  0.14830000  0.66790000  0.97110000  1.0
  H  H27  1  0.17660000  0.46930000  0.82410000  1.0
  H  H28  1  0.29710000  0.41420000  0.77930000  1.0
  H  H29  1  0.34560000  0.44840000  0.85360000  1.0
  H  H30  1  0.35670000  0.49960000  0.78920000  1.0
  H  H31  1  0.09630000  0.55110000  0.73570000  1.0
  H  H32  1  0.15220000  0.47800000  0.70780000  1.0
  H  H33  1  0.19850000  0.56890000  0.71550000  1.0
  H  H34  1  0.88210000  0.22500000  0.71340000  1.0
  H  H35  1  0.85510000  0.31780000  0.72900000  1.0
  H  H36  1  0.08780000  0.20860000  0.85010000  1.0
  H  H37  1  0.02230000  0.15980000  0.78600000  1.0
  H  H38  1  0.14240000  0.30050000  0.77870000  1.0
  H  H39  1  0.16970000  0.20800000  0.76290000  1.0
  H  H40  1  0.93640000  0.31550000  0.64090000  1.0
  H  H41  1  0.00100000  0.36610000  0.70420000  1.0
  H  H42  1  0.45640000  0.36720000  0.01960000  1.0
  H  H43  1  0.52240000  0.42910000  0.07390000  1.0
  H  H44  1  0.48360000  0.57290000  0.06610000  1.0
  H  H45  1  0.39200000  0.60500000  0.00710000  1.0
  H  H46  1  0.79850000  0.58160000  0.53100000  1.0
  H  H47  1  0.68230000  0.62120000  0.58940000  1.0
  H  H48  1  0.65870000  0.76090000  0.60660000  1.0
  H  H49  1  0.74890000  0.85900000  0.56550000  1.0
  H  H50  1  0.92540000  0.71050000  0.44270000  1.0
  H  H51  1  0.03090000  0.63190000  0.56470000  1.0
  H  H52  1  0.07940000  0.66100000  0.50550000  1.0
  H  H53  1  0.03830000  0.72800000  0.54910000  1.0
  H  H54  1  0.84500000  0.58360000  0.41260000  1.0
  H  H55  1  0.96280000  0.57520000  0.42250000  1.0
  H  H56  1  0.91250000  0.54270000  0.47980000  1.0
  H  H57  1  0.37220000  0.88920000  0.81590000  1.0
  H  H58  1  0.28260000  0.94320000  0.88770000  1.0
  H  H59  1  0.13180000  0.01170000  0.84150000  1.0
  H  H60  1  0.07400000  0.02670000  0.72500000  1.0
  H  H61  1  0.33660000  0.93030000  0.64530000  1.0
  H  H62  1  0.47440000  0.84490000  0.67810000  1.0
  H  H63  1  0.47990000  0.91340000  0.73520000  1.0
  H  H64  1  0.44540000  0.82150000  0.74650000  1.0
  H  H65  1  0.27790000  0.77030000  0.67920000  1.0
  H  H66  1  0.21020000  0.82920000  0.62330000  1.0
  H  H67  1  0.31170000  0.79210000  0.61220000  1.0
  H  H68  1  0.65960000  0.14110000  0.68250000  1.0
  H  H69  1  0.64170000  0.25670000  0.61250000  1.0
  H  H70  1  0.73800000  0.26940000  0.53560000  1.0
  H  H71  1  0.85170000  0.16790000  0.52890000  1.0
  H  H72  1  0.82340000  0.96930000  0.67590000  1.0
  H  H73  1  0.70290000  0.91420000  0.72070000  1.0
  H  H74  1  0.65440000  0.94840000  0.64640000  1.0
  H  H75  1  0.64330000  0.99960000  0.71080000  1.0
  H  H76  1  0.90370000  0.05110000  0.76430000  1.0
  H  H77  1  0.84780000  0.97800000  0.79220000  1.0
  H  H78  1  0.80150000  0.06890000  0.78450000  1.0
  H  H79  1  0.11790000  0.72500000  0.78660000  1.0
  H  H80  1  0.14490000  0.81780000  0.77100000  1.0
  H  H81  1  0.91220000  0.70860000  0.64990000  1.0
  H  H82  1  0.97770000  0.65980000  0.71400000  1.0
  H  H83  1  0.85760000  0.80050000  0.72130000  1.0
  H  H84  1  0.83030000  0.70800000  0.73710000  1.0
  H  H85  1  0.06360000  0.81550000  0.85910000  1.0
  H  H86  1  0.99900000  0.86610000  0.79580000  1.0
  H  H87  1  0.54360000  0.86720000  0.48040000  1.0
  H  H88  1  0.47760000  0.92910000  0.42610000  1.0
  H  H89  1  0.51640000  0.07290000  0.43390000  1.0
  H  H90  1  0.60800000  0.10500000  0.49290000  1.0
  H  H91  1  0.79850000  0.91840000  0.03100000  1.0
  H  H92  1  0.68230000  0.87880000  0.08940000  1.0
  H  H93  1  0.65870000  0.73910000  0.10660000  1.0
  H  H94  1  0.74890000  0.64100000  0.06550000  1.0
  H  H95  1  0.92540000  0.78950000  0.94270000  1.0
  H  H96  1  0.03090000  0.86810000  0.06470000  1.0
  H  H97  1  0.07940000  0.83900000  0.00550000  1.0
  H  H98  1  0.03830000  0.77200000  0.04910000  1.0
  H  H99  1  0.84500000  0.91640000  0.91260000  1.0
  H  H100  1  0.96280000  0.92480000  0.92250000  1.0
  H  H101  1  0.91250000  0.95730000  0.97980000  1.0
  H  H102  1  0.37220000  0.61080000  0.31590000  1.0
  H  H103  1  0.28260000  0.55680000  0.38770000  1.0
  H  H104  1  0.13180000  0.48830000  0.34150000  1.0
  H  H105  1  0.07400000  0.47330000  0.22500000  1.0
  H  H106  1  0.33660000  0.56970000  0.14530000  1.0
  H  H107  1  0.47440000  0.65510000  0.17810000  1.0
  H  H108  1  0.47990000  0.58660000  0.23520000  1.0
  H  H109  1  0.44540000  0.67850000  0.24650000  1.0
  H  H110  1  0.27790000  0.72970000  0.17920000  1.0
  H  H111  1  0.21020000  0.67080000  0.12330000  1.0
  H  H112  1  0.31170000  0.70790000  0.11220000  1.0
  H  H113  1  0.65960000  0.35890000  0.18250000  1.0
  H  H114  1  0.64170000  0.24330000  0.11250000  1.0
  H  H115  1  0.73800000  0.23060000  0.03560000  1.0
  H  H116  1  0.85170000  0.33210000  0.02890000  1.0
  H  H117  1  0.82340000  0.53070000  0.17590000  1.0
  H  H118  1  0.70290000  0.58580000  0.22070000  1.0
  H  H119  1  0.65440000  0.55160000  0.14640000  1.0
  H  H120  1  0.64330000  0.50040000  0.21080000  1.0
  H  H121  1  0.90370000  0.44890000  0.26430000  1.0
  H  H122  1  0.84780000  0.52200000  0.29220000  1.0
  H  H123  1  0.80150000  0.43110000  0.28450000  1.0
  H  H124  1  0.11790000  0.77500000  0.28660000  1.0
  H  H125  1  0.14490000  0.68220000  0.27100000  1.0
  H  H126  1  0.91220000  0.79140000  0.14990000  1.0
  H  H127  1  0.97770000  0.84020000  0.21400000  1.0
  H  H128  1  0.85760000  0.69950000  0.22130000  1.0
  H  H129  1  0.83030000  0.79200000  0.23710000  1.0
  H  H130  1  0.06360000  0.68450000  0.35910000  1.0
  H  H131  1  0.99900000  0.63390000  0.29580000  1.0
  H  H132  1  0.54360000  0.63280000  0.98040000  1.0
  H  H133  1  0.47760000  0.57090000  0.92610000  1.0
  H  H134  1  0.51640000  0.42710000  0.93390000  1.0
  H  H135  1  0.60800000  0.39500000  0.99290000  1.0
  H  H136  1  0.20150000  0.41840000  0.46900000  1.0
  H  H137  1  0.31770000  0.37880000  0.41060000  1.0
  H  H138  1  0.34130000  0.23910000  0.39340000  1.0
  H  H139  1  0.25110000  0.14100000  0.43450000  1.0
  H  H140  1  0.07460000  0.28950000  0.55730000  1.0
  H  H141  1  0.96910000  0.36810000  0.43530000  1.0
  H  H142  1  0.92060000  0.33900000  0.49450000  1.0
  H  H143  1  0.96170000  0.27200000  0.45090000  1.0
  H  H144  1  0.15500000  0.41640000  0.58740000  1.0
  H  H145  1  0.03720000  0.42480000  0.57750000  1.0
  H  H146  1  0.08750000  0.45730000  0.52020000  1.0
  H  H147  1  0.62780000  0.11080000  0.18410000  1.0
  H  H148  1  0.71740000  0.05680000  0.11230000  1.0
  H  H149  1  0.86820000  0.98830000  0.15850000  1.0
  H  H150  1  0.92600000  0.97330000  0.27500000  1.0
  H  H151  1  0.66340000  0.06970000  0.35470000  1.0
  H  H152  1  0.52560000  0.15510000  0.32190000  1.0
  H  H153  1  0.52010000  0.08660000  0.26480000  1.0
  H  H154  1  0.55460000  0.17850000  0.25350000  1.0
  H  H155  1  0.72210000  0.22970000  0.32080000  1.0
  H  H156  1  0.78980000  0.17080000  0.37670000  1.0
  H  H157  1  0.68830000  0.20790000  0.38780000  1.0
  H  H158  1  0.34040000  0.85890000  0.31750000  1.0
  H  H159  1  0.35830000  0.74330000  0.38750000  1.0
  H  H160  1  0.26200000  0.73060000  0.46440000  1.0
  H  H161  1  0.14830000  0.83210000  0.47110000  1.0
  H  H162  1  0.17660000  0.03070000  0.32410000  1.0
  H  H163  1  0.29710000  0.08580000  0.27930000  1.0
  H  H164  1  0.34560000  0.05160000  0.35360000  1.0
  H  H165  1  0.35670000  0.00040000  0.28920000  1.0
  H  H166  1  0.09630000  0.94890000  0.23570000  1.0
  H  H167  1  0.15220000  0.02200000  0.20780000  1.0
  H  H168  1  0.19850000  0.93110000  0.21550000  1.0
  H  H169  1  0.88210000  0.27500000  0.21340000  1.0
  H  H170  1  0.85510000  0.18220000  0.22900000  1.0
  H  H171  1  0.08780000  0.29140000  0.35010000  1.0
  H  H172  1  0.02230000  0.34020000  0.28600000  1.0
  H  H173  1  0.14240000  0.19950000  0.27870000  1.0
  H  H174  1  0.16970000  0.29200000  0.26290000  1.0
  H  H175  1  0.93640000  0.18450000  0.14090000  1.0
  H  H176  1  0.00100000  0.13390000  0.20420000  1.0
  H  H177  1  0.45640000  0.13280000  0.51960000  1.0
  H  H178  1  0.52240000  0.07090000  0.57390000  1.0
  H  H179  1  0.48360000  0.92710000  0.56610000  1.0
  H  H180  1  0.39200000  0.89500000  0.50710000  1.0
  C  C1  1  0.17060000  0.28090000  0.97841000  1.0
  C  C2  1  0.15520000  0.19510000  0.98745000  1.0
  C  C3  1  0.21110000  0.13860000  0.96220000  1.0
  C  C4  1  0.28050000  0.16160000  0.92730000  1.0
  C  C5  1  0.29440000  0.24400000  0.91740000  1.0
  C  C6  1  0.24060000  0.30240000  0.94219000  1.0
  C  C7  1  0.07490000  0.16920000  0.02110000  1.0
  C  C8  1  0.97240000  0.17290000  0.97090000  1.0
  C  C9  1  0.09000000  0.08530000  0.05450000  1.0
  C  C10  1  0.80890000  0.47050000  0.80040000  1.0
  C  C11  1  0.71980000  0.42620000  0.77220000  1.0
  C  C12  1  0.68820000  0.41770000  0.70290000  1.0
  C  C13  1  0.74140000  0.44940000  0.65980000  1.0
  C  C14  1  0.83030000  0.49020000  0.68730000  1.0
  C  C15  1  0.86420000  0.49980000  0.75680000  1.0
  C  C16  1  0.66420000  0.38850000  0.81900000  1.0
  C  C17  1  0.55660000  0.36500000  0.78700000  1.0
  C  C18  1  0.72120000  0.31320000  0.85430000  1.0
  C  C19  1  0.17270000  0.59150000  0.89764000  1.0
  C  C20  1  0.23210000  0.58420000  0.85120000  1.0
  C  C21  1  0.30030000  0.64600000  0.84860000  1.0
  C  C22  1  0.31140000  0.71510000  0.89050000  1.0
  C  C23  1  0.25480000  0.72270000  0.93570000  1.0
  C  C24  1  0.18710000  0.66210000  0.93920000  1.0
  C  C25  1  0.21900000  0.50860000  0.80590000  1.0
  C  C26  1  0.31250000  0.46390000  0.80710000  1.0
  C  C27  1  0.16150000  0.52840000  0.73510000  1.0
  C  C28  1  0.91070000  0.27890000  0.73104000  1.0
  C  C29  1  0.04850000  0.21480000  0.80276000  1.0
  C  C30  1  0.11390000  0.24680000  0.76065000  1.0
  C  C31  1  0.97590000  0.31060000  0.68831000  1.0
  C  C32  1  0.48470000  0.42350000  0.02610000  1.0
  C  C33  1  0.44660000  0.56400000  0.01850000  1.0
  C  C34  1  0.82940000  0.78090000  0.52159000  1.0
  C  C35  1  0.84480000  0.69510000  0.51255000  1.0
  C  C36  1  0.78890000  0.63860000  0.53780000  1.0
  C  C37  1  0.71950000  0.66160000  0.57270000  1.0
  C  C38  1  0.70560000  0.74400000  0.58260000  1.0
  C  C39  1  0.75940000  0.80240000  0.55781000  1.0
  C  C40  1  0.92510000  0.66920000  0.47890000  1.0
  C  C41  1  0.02760000  0.67290000  0.52910000  1.0
  C  C42  1  0.91000000  0.58530000  0.44550000  1.0
  C  C43  1  0.19110000  0.97050000  0.69960000  1.0
  C  C44  1  0.28020000  0.92620000  0.72780000  1.0
  C  C45  1  0.31180000  0.91770000  0.79710000  1.0
  C  C46  1  0.25860000  0.94940000  0.84020000  1.0
  C  C47  1  0.16970000  0.99020000  0.81270000  1.0
  C  C48  1  0.13580000  0.99980000  0.74320000  1.0
  C  C49  1  0.33580000  0.88850000  0.68100000  1.0
  C  C50  1  0.44340000  0.86500000  0.71300000  1.0
  C  C51  1  0.27880000  0.81320000  0.64570000  1.0
  C  C52  1  0.82730000  0.09150000  0.60236000  1.0
  C  C53  1  0.76790000  0.08420000  0.64880000  1.0
  C  C54  1  0.69970000  0.14600000  0.65140000  1.0
  C  C55  1  0.68860000  0.21510000  0.60950000  1.0
  C  C56  1  0.74520000  0.22270000  0.56430000  1.0
  C  C57  1  0.81290000  0.16210000  0.56080000  1.0
  C  C58  1  0.78100000  0.00860000  0.69410000  1.0
  C  C59  1  0.68750000  0.96390000  0.69290000  1.0
  C  C60  1  0.83850000  0.02840000  0.76490000  1.0
  C  C61  1  0.08930000  0.77890000  0.76896000  1.0
  C  C62  1  0.95150000  0.71480000  0.69724000  1.0
  C  C63  1  0.88610000  0.74680000  0.73935000  1.0
  C  C64  1  0.02410000  0.81060000  0.81169000  1.0
  C  C65  1  0.51530000  0.92350000  0.47390000  1.0
  C  C66  1  0.55340000  0.06400000  0.48150000  1.0
  C  C67  1  0.82940000  0.71910000  0.02159000  1.0
  C  C68  1  0.84480000  0.80490000  0.01255000  1.0
  C  C69  1  0.78890000  0.86140000  0.03780000  1.0
  C  C70  1  0.71950000  0.83840000  0.07270000  1.0
  C  C71  1  0.70560000  0.75600000  0.08260000  1.0
  C  C72  1  0.75940000  0.69760000  0.05781000  1.0
  C  C73  1  0.92510000  0.83080000  0.97890000  1.0
  C  C74  1  0.02760000  0.82710000  0.02910000  1.0
  C  C75  1  0.91000000  0.91470000  0.94550000  1.0
  C  C76  1  0.19110000  0.52950000  0.19960000  1.0
  C  C77  1  0.28020000  0.57380000  0.22780000  1.0
  C  C78  1  0.31180000  0.58230000  0.29710000  1.0
  C  C79  1  0.25860000  0.55060000  0.34020000  1.0
  C  C80  1  0.16970000  0.50980000  0.31270000  1.0
  C  C81  1  0.13580000  0.50020000  0.24320000  1.0
  C  C82  1  0.33580000  0.61150000  0.18100000  1.0
  C  C83  1  0.44340000  0.63500000  0.21300000  1.0
  C  C84  1  0.27880000  0.68680000  0.14570000  1.0
  C  C85  1  0.82730000  0.40850000  0.10236000  1.0
  C  C86  1  0.76790000  0.41580000  0.14880000  1.0
  C  C87  1  0.69970000  0.35400000  0.15140000  1.0
  C  C88  1  0.68860000  0.28490000  0.10950000  1.0
  C  C89  1  0.74520000  0.27730000  0.06430000  1.0
  C  C90  1  0.81290000  0.33790000  0.06080000  1.0
  C  C91  1  0.78100000  0.49140000  0.19410000  1.0
  C  C92  1  0.68750000  0.53610000  0.19290000  1.0
  C  C93  1  0.83850000  0.47160000  0.26490000  1.0
  C  C94  1  0.08930000  0.72110000  0.26896000  1.0
  C  C95  1  0.95150000  0.78520000  0.19724000  1.0
  C  C96  1  0.88610000  0.75320000  0.23935000  1.0
  C  C97  1  0.02410000  0.68940000  0.31169000  1.0
  C  C98  1  0.51530000  0.57650000  0.97390000  1.0
  C  C99  1  0.55340000  0.43600000  0.98150000  1.0
  C  C100  1  0.17060000  0.21910000  0.47841000  1.0
  C  C101  1  0.15520000  0.30490000  0.48745000  1.0
  C  C102  1  0.21110000  0.36140000  0.46220000  1.0
  C  C103  1  0.28050000  0.33840000  0.42730000  1.0
  C  C104  1  0.29440000  0.25600000  0.41740000  1.0
  C  C105  1  0.24060000  0.19760000  0.44219000  1.0
  C  C106  1  0.07490000  0.33080000  0.52110000  1.0
  C  C107  1  0.97240000  0.32710000  0.47090000  1.0
  C  C108  1  0.09000000  0.41470000  0.55450000  1.0
  C  C109  1  0.80890000  0.02950000  0.30040000  1.0
  C  C110  1  0.71980000  0.07380000  0.27220000  1.0
  C  C111  1  0.68820000  0.08230000  0.20290000  1.0
  C  C112  1  0.74140000  0.05060000  0.15980000  1.0
  C  C113  1  0.83030000  0.00980000  0.18730000  1.0
  C  C114  1  0.86420000  0.00020000  0.25680000  1.0
  C  C115  1  0.66420000  0.11150000  0.31900000  1.0
  C  C116  1  0.55660000  0.13500000  0.28700000  1.0
  C  C117  1  0.72120000  0.18680000  0.35430000  1.0
  C  C118  1  0.17270000  0.90850000  0.39764000  1.0
  C  C119  1  0.23210000  0.91580000  0.35120000  1.0
  C  C120  1  0.30030000  0.85400000  0.34860000  1.0
  C  C121  1  0.31140000  0.78490000  0.39050000  1.0
  C  C122  1  0.25480000  0.77730000  0.43570000  1.0
  C  C123  1  0.18710000  0.83790000  0.43920000  1.0
  C  C124  1  0.21900000  0.99140000  0.30590000  1.0
  C  C125  1  0.31250000  0.03610000  0.30710000  1.0
  C  C126  1  0.16150000  0.97160000  0.23510000  1.0
  C  C127  1  0.91070000  0.22110000  0.23104000  1.0
  C  C128  1  0.04850000  0.28520000  0.30276000  1.0
  C  C129  1  0.11390000  0.25320000  0.26065000  1.0
  C  C130  1  0.97590000  0.18940000  0.18831000  1.0
  C  C131  1  0.48470000  0.07650000  0.52610000  1.0
  C  C132  1  0.44660000  0.93600000  0.51850000  1.0
  O  O1  1  0.12030000  0.33781000  0.00187000  1.0
  O  O2  1  0.84043000  0.48307000  0.86622000  1.0
  O  O3  1  0.10750000  0.53499000  0.90228000  1.0
  O  O4  1  0.96779000  0.26977000  0.79990000  1.0
  O  O5  1  0.05819000  0.25656000  0.69170000  1.0
  O  O6  1  0.40540000  0.48283000  0.01107000  1.0
  O  O7  1  0.98650000  0.48050000  0.99890000  1.0
  O  O8  1  0.87970000  0.83781000  0.49813000  1.0
  O  O9  1  0.15957000  0.98307000  0.63378000  1.0
  O  O10  1  0.89250000  0.03499000  0.59772000  1.0
  O  O11  1  0.03221000  0.76977000  0.70010000  1.0
  O  O12  1  0.94181000  0.75656000  0.80830000  1.0
  O  O13  1  0.59460000  0.98283000  0.48893000  1.0
  O  O14  1  0.01350000  0.98050000  0.50110000  1.0
  O  O15  1  0.87970000  0.66219000  0.99813000  1.0
  O  O16  1  0.15957000  0.51693000  0.13378000  1.0
  O  O17  1  0.89250000  0.46501000  0.09772000  1.0
  O  O18  1  0.03221000  0.73023000  0.20010000  1.0
  O  O19  1  0.94181000  0.74344000  0.30830000  1.0
  O  O20  1  0.59460000  0.51717000  0.98893000  1.0
  O  O21  1  0.01350000  0.51950000  0.00110000  1.0
  O  O22  1  0.12030000  0.16219000  0.50187000  1.0
  O  O23  1  0.84043000  0.01693000  0.36622000  1.0
  O  O24  1  0.10750000  0.96501000  0.40228000  1.0
  O  O25  1  0.96779000  0.23023000  0.29990000  1.0
  O  O26  1  0.05819000  0.24344000  0.19170000  1.0
  O  O27  1  0.40540000  0.01717000  0.51107000  1.0
  O  O28  1  0.98650000  0.01950000  0.49890000  1.0
