# generated using pymatgen
data_H36C53
_symmetry_space_group_name_H-M   'P 1'
_cell_length_a   16.92070000
_cell_length_b   29.30751210
_cell_length_c   50.76200000
_cell_angle_alpha   89.99994226
_cell_angle_beta   89.99830000
_cell_angle_gamma   90.00000000
_symmetry_Int_Tables_number   1
_chemical_formula_structural   H36C53
_chemical_formula_sum   'H216 C318'
_cell_volume   25173.05954655
_cell_formula_units_Z   6
loop_
 _symmetry_equiv_pos_site_id
 _symmetry_equiv_pos_as_xyz
  1  'x, y, z'
loop_
 _atom_site_type_symbol
 _atom_site_label
 _atom_site_symmetry_multiplicity
 _atom_site_fract_x
 _atom_site_fract_y
 _atom_site_fract_z
 _atom_site_occupancy
  C  1  1  0.00322300  0.01382700  0.98195700  1
  C  2  1  0.50380500  0.46870800  0.99116300  1
  C  3  1  0.50604300  0.46909500  0.01857300  1
  C  4  1  0.00905800  0.01456300  0.02728600  1
  C  5  1  0.01344100  0.02411200  0.05457100  1
  C  6  1  0.51351200  0.48777600  0.07341800  1
  C  7  1  0.50843800  0.44232700  0.06369700  1
  C  8  1  0.50534400  0.43272500  0.03656000  1
  C  9  1  0.50203800  0.43184700  0.97347900  1
  C  10  1  0.50128000  0.44077600  0.94623600  1
  C  11  1  0.50171800  0.48608900  0.93632500  1
  C  12  1  0.99974900  0.02256600  0.95455700  1
  C  13  1  0.93918800  0.07846700  0.00494000  1
  C  14  1  0.96619500  0.12349300  0.00372500  1
  C  15  1  0.04841900  0.12329700  0.00278800  1
  C  16  1  0.07512700  0.07812500  0.00326800  1
  C  17  1  0.10195700  0.15984700  0.00153900  1
  C  18  1  0.18345000  0.15044700  0.00061900  1
  C  19  1  0.21268100  0.10498700  0.00089300  1
  C  20  1  0.15712200  0.06871300  0.00248500  1
  C  21  1  0.85711500  0.06932900  0.00577800  1
  C  22  1  0.80139100  0.10566900  0.00546600  1
  C  23  1  0.83116200  0.15097600  0.00388200  1
  C  24  1  0.91277700  0.16014300  0.00312500  1
  C  37  1  0.00695600  0.04624700  0.00443800  1
  C  38  1  0.49079300  0.49683100  0.64869800  1
  C  39  1  0.05848000  0.01913700  0.65793500  1
  C  40  1  0.05613000  0.01993900  0.68536100  1
  C  41  1  0.48765500  0.49883000  0.69399600  1
  C  42  1  0.47134300  0.49605900  0.72128200  1
  C  43  1  0.02220800  0.01386500  0.74007000  1
  C  44  1  0.09310600  0.03436300  0.73072200  1
  C  45  1  0.11014600  0.03781200  0.70364500  1
  C  46  1  0.11482200  0.03684700  0.64035700  1
  C  47  1  0.10224200  0.03207700  0.61307300  1
  C  48  1  0.03434800  0.00952100  0.60301600  1
  C  49  1  0.47826400  0.49139900  0.62132300  1
  C  50  1  0.42655400  0.43204500  0.67157700  1
  C  51  1  0.34551100  0.42301000  0.67039500  1
  C  52  1  0.30460400  0.46419400  0.66958600  1
  C  53  1  0.35893800  0.50015700  0.67017900  1
  C  54  1  0.22301100  0.47264900  0.66827000  1
  C  55  1  0.69602900  0.01804600  0.66732000  1
  C  56  1  0.74959100  0.05539900  0.66761800  1
  C  57  1  0.83176800  0.04576800  0.66918000  1
  C  58  1  0.48131900  0.39558400  0.67236000  1
  C  59  1  0.45466900  0.34954400  0.67205400  1
  C  60  1  0.37182400  0.34176800  0.67048800  1
  C  61  1  0.31725400  0.37798100  0.66976300  1
  C  74  1  0.44088000  0.48205300  0.67120700  1
  C  75  1  0.52294100  0.49850700  0.31536600  1
  C  76  1  0.95572400  0.02130400  0.32451700  1
  C  77  1  0.95517800  0.01997600  0.35192900  1
  C  78  1  0.52152200  0.49593000  0.36066400  1
  C  79  1  0.53385200  0.48916800  0.38795000  1
  C  80  1  0.97948100  0.00687500  0.40677700  1
  C  81  1  0.91382200  0.03211600  0.39705900  1
  C  82  1  0.90097000  0.03848600  0.36992100  1
  C  83  1  0.90127800  0.04059000  0.30683200  1
  C  84  1  0.91503900  0.03650500  0.27958700  1
  C  85  1  0.98279100  0.01363900  0.26966800  1
  C  86  1  0.53735900  0.49496800  0.28798900  1
  C  87  1  0.65224200  0.49878000  0.33823900  1
  C  88  1  0.70632500  0.46277500  0.33709500  1
  C  89  1  0.66500700  0.42173100  0.33626900  1
  C  90  1  0.58389200  0.43091000  0.33683900  1
  C  91  1  0.69312800  0.37670500  0.33497100  1
  C  92  1  0.63833400  0.34063100  0.33405900  1
  C  93  1  0.55551500  0.34870200  0.33439200  1
  C  94  1  0.52882400  0.39459500  0.33606300  1
  C  95  1  0.17954900  0.04439400  0.33905100  1
  C  96  1  0.26192900  0.05409400  0.33874600  1
  C  97  1  0.31502300  0.01656500  0.33718100  1
  C  98  1  0.78799500  0.47116900  0.33645900  1
  C  111  1  0.57006700  0.48093400  0.33787100  1
  C  112  1  0.99435000  0.00999400  0.24183500  1
  C  113  1  0.06586000  0.02368000  0.22973700  1
  C  114  1  0.07551000  0.02358500  0.20194200  1
  C  115  1  0.01165400  0.00889100  0.18571500  1
  C  116  1  0.94108400  0.99391900  0.19784500  1
  C  117  1  0.93237300  0.99483000  0.22535800  1
  C  119  1  0.01564300  0.00755200  0.15757600  1
  C  120  1  0.55866100  0.47172900  0.14571600  1
  C  121  1  0.56009800  0.46646400  0.11821300  1
  C  122  1  0.01773800  0.99626400  0.10133400  1
  C  123  1  0.97623200  0.03272000  0.11337300  1
  C  124  1  0.97449900  0.03896100  0.14110800  1
  C  129  1  0.15091200  0.04021300  0.19029500  1
  C  134  1  0.93017900  0.07825100  0.15239900  1
  C  138  1  0.99427000  0.99296300  0.90835100  1
  C  139  1  0.94357000  0.02542800  0.89649000  1
  C  140  1  0.93695300  0.02993100  0.86870700  1
  C  141  1  0.98344800  0.00126400  0.85208100  1
  C  142  1  0.55215900  0.47516000  0.86450700  1
  C  143  1  0.55514000  0.47032200  0.89201600  1
  C  145  1  0.49440600  0.50560600  0.82425100  1
  C  146  1  0.01810100  0.04372900  0.81243500  1
  C  147  1  0.02767900  0.04733900  0.78502800  1
  C  148  1  0.51083500  0.51217500  0.76802400  1
  C  149  1  0.47671400  0.47323600  0.78005600  1
  C  150  1  0.46800500  0.46929500  0.80778400  1
  C  155  1  0.87954500  0.06419700  0.85857800  1
  C  160  1  0.43116200  0.42750300  0.81907000  1
  C  164  1  0.52232800  0.50534700  0.57516300  1
  C  165  1  0.50712400  0.46273400  0.56308100  1
  C  166  1  0.50217800  0.45793000  0.53529000  1
  C  167  1  0.51199000  0.49720300  0.51905600  1
  C  168  1  0.02530100  0.04012800  0.53118300  1
  C  169  1  0.03142800  0.04406000  0.55868400  1
  C  171  1  0.50798700  0.49586900  0.49091900  1
  C  172  1  0.43280800  0.49226900  0.47904600  1
  C  173  1  0.42420400  0.49419300  0.45154300  1
  C  174  1  0.48993000  0.50083300  0.43469100  1
  C  175  1  0.06544200  0.00326400  0.44674000  1
  C  176  1  0.07575900  0.00089600  0.47446700  1
  C  181  1  0.48949100  0.41190000  0.52365400  1
  C  186  1  0.15689500  0.00334300  0.48573400  1
  C  190  1  0.29619400  0.09710100  0.99977200  1
  C  191  1  0.34392900  0.12102800  0.98148500  1
  C  192  1  0.42748400  0.11807700  0.98165000  1
  C  193  1  0.46494000  0.08963700  0.00065800  1
  C  194  1  0.41762900  0.06471300  0.01855000  1
  C  195  1  0.33459500  0.06816900  0.01800700  1
  C  197  1  0.54892100  0.08849700  0.00345000  1
  C  198  1  0.58440100  0.12211300  0.01948900  1
  C  199  1  0.66697100  0.12650200  0.02079000  1
  C  200  1  0.71753200  0.09781100  0.00598700  1
  C  201  1  0.68157500  0.06301500  0.99074300  1
  C  202  1  0.59823900  0.05786300  0.98919100  1
  C  207  1  0.47393100  0.14568200  0.96246800  1
  C  212  1  0.56380400  0.02117300  0.97249600  1
  C  216  1  0.71970400  0.10109800  0.66649700  1
  C  217  1  0.66003900  0.11299900  0.64817800  1
  C  218  1  0.62271800  0.15625600  0.64832200  1
  C  219  1  0.64664000  0.18922000  0.66732200  1
  C  220  1  0.70763400  0.17804000  0.68523100  1
  C  221  1  0.74389700  0.13477500  0.68472300  1
  C  223  1  0.60638200  0.23179200  0.67007800  1
  C  224  1  0.53824600  0.23279100  0.68612600  1
  C  225  1  0.49049800  0.27192700  0.68742600  1
  C  226  1  0.50833500  0.31152300  0.67260600  1
  C  227  1  0.57851200  0.31088100  0.65736600  1
  C  228  1  0.62781700  0.27174700  0.65582400  1
  C  233  1  0.55813200  0.16565900  0.62912200  1
  C  238  1  0.70008600  0.27280500  0.63913400  1
  C  242  1  0.50197000  0.31087900  0.33321800  1
  C  243  1  0.51405400  0.27510400  0.31489900  1
  C  244  1  0.46787100  0.23479600  0.31501900  1
  C  245  1  0.40640200  0.23024600  0.33399600  1
  C  246  1  0.39255300  0.26633600  0.35189300  1
  C  247  1  0.43924200  0.30612900  0.35140100  1
  C  249  1  0.36271000  0.18881900  0.33674400  1
  C  250  1  0.39527700  0.15426200  0.35279900  1
  C  251  1  0.36041000  0.11083000  0.35412100  1
  C  252  1  0.29211000  0.09994200  0.33929900  1
  C  253  1  0.25796300  0.13534900  0.32406100  1
  C  254  1  0.29205900  0.17955300  0.32249300  1
  C  259  1  0.48616000  0.19780400  0.29582800  1
  C  264  1  0.25437100  0.21514000  0.30578400  1
  C  268  1  0.50439500  0.51372700  0.98203200  1
  C  269  1  0.00206900  0.96889400  0.99120600  1
  C  270  1  0.00555600  0.96935200  0.01858500  1
  C  271  1  0.50897300  0.51429100  0.02733100  1
  C  272  1  0.51294900  0.52382800  0.05461700  1
  C  273  1  0.01400600  0.98806800  0.07338700  1
  C  274  1  0.00869500  0.94261900  0.06369500  1
  C  275  1  0.00506000  0.93299700  0.03657600  1
  C  276  1  0.99752100  0.93192400  0.97368200  1
  C  277  1  0.99449900  0.94064800  0.94645400  1
  C  278  1  0.99619500  0.98583100  0.93629300  1
  C  279  1  0.50247700  0.52271100  0.95465700  1
  C  280  1  0.43934400  0.57823800  0.00491800  1
  C  281  1  0.46631700  0.62327700  0.00374300  1
  C  282  1  0.54854300  0.62313600  0.00291600  1
  C  283  1  0.57532200  0.57798900  0.00350900  1
  C  284  1  0.60202700  0.65970600  0.00159600  1
  C  285  1  0.68353100  0.65034000  0.00068400  1
  C  286  1  0.71282600  0.60489500  0.00103500  1
  C  287  1  0.65732600  0.56860700  0.00272100  1
  C  288  1  0.35726700  0.56908600  0.00569700  1
  C  289  1  0.30153500  0.60542900  0.00538700  1
  C  290  1  0.33129100  0.65073800  0.00380800  1
  C  291  1  0.41289600  0.65992000  0.00309300  1
  C  304  1  0.50719400  0.54606800  0.00454100  1
  C  305  1  0.99091400  0.99687700  0.64861100  1
  C  306  1  0.55863100  0.51903300  0.65783100  1
  C  307  1  0.55692800  0.51995800  0.68523900  1
  C  308  1  0.98671200  0.99863400  0.69382600  1
  C  309  1  0.96928700  0.99563800  0.72100000  1
  C  310  1  0.52512900  0.51437900  0.74008300  1
  C  311  1  0.59583900  0.53456500  0.73036400  1
  C  312  1  0.61181700  0.53780000  0.70322700  1
  C  313  1  0.61478800  0.53659900  0.64014400  1
  C  314  1  0.60175900  0.53177400  0.61290200  1
  C  315  1  0.53358200  0.50932200  0.60299100  1
  C  316  1  0.97881100  0.99149900  0.62122700  1
  C  317  1  0.92626700  0.93194800  0.67128200  1
  C  318  1  0.84522300  0.92290600  0.67015700  1
  C  319  1  0.80429400  0.96409700  0.66933400  1
  C  320  1  0.85862900  0.00005700  0.66984800  1
  C  321  1  0.72269500  0.97259300  0.66816700  1
  C  322  1  0.19630400  0.51808500  0.66735200  1
  C  323  1  0.24982400  0.55545400  0.66770400  1
  C  324  1  0.33200700  0.54585200  0.66940300  1
  C  325  1  0.98108800  0.89552400  0.67216100  1
  C  326  1  0.95449900  0.84947800  0.67196900  1
  C  327  1  0.87165000  0.84166700  0.67045700  1
  C  328  1  0.81702900  0.87785600  0.66966500  1
  C  341  1  0.94052900  0.98194900  0.67093300  1
  C  342  1  0.02295100  0.99850100  0.31537800  1
  C  343  1  0.45572000  0.52132000  0.32450300  1
  C  344  1  0.45518100  0.51999300  0.35191100  1
  C  345  1  0.02153200  0.99592200  0.36068100  1
  C  346  1  0.03386400  0.98916200  0.38797000  1
  C  347  1  0.47947300  0.50689000  0.40675300  1
  C  348  1  0.41383200  0.53215000  0.39703900  1
  C  349  1  0.40098100  0.53852000  0.36990300  1
  C  350  1  0.40127900  0.54060800  0.30682000  1
  C  351  1  0.41504000  0.53652800  0.27957700  1
  C  352  1  0.48279400  0.51365600  0.26966000  1
  C  353  1  0.03736700  0.99496300  0.28799900  1
  C  354  1  0.15225000  0.99877800  0.33825300  1
  C  355  1  0.20633300  0.96277300  0.33710300  1
  C  356  1  0.16501600  0.92172900  0.33627700  1
  C  357  1  0.08390100  0.93090800  0.33685100  1
  C  358  1  0.19313600  0.87670300  0.33497300  1
  C  359  1  0.13833800  0.84063100  0.33405900  1
  C  360  1  0.05552300  0.84870000  0.33439400  1
  C  361  1  0.02883000  0.89459600  0.33607200  1
  C  362  1  0.67954600  0.54439600  0.33904100  1
  C  363  1  0.76192400  0.55409600  0.33874200  1
  C  364  1  0.81501900  0.51656300  0.33718100  1
  C  365  1  0.28800200  0.97117100  0.33646000  1
  C  378  1  0.07007400  0.98093300  0.33788500  1
  C  379  1  0.49436900  0.51001600  0.24183300  1
  C  380  1  0.56588300  0.52371500  0.22974100  1
  C  381  1  0.57555100  0.52361300  0.20195000  1
  C  382  1  0.51171300  0.50889700  0.18572200  1
  C  383  1  0.44114100  0.49391400  0.19784700  1
  C  384  1  0.43240900  0.49483500  0.22535600  1
  C  386  1  0.51569200  0.50753200  0.15758500  1
  C  387  1  0.05870400  0.97179500  0.14569800  1
  C  388  1  0.06038300  0.96664300  0.11819100  1
  C  389  1  0.51730100  0.49601300  0.10136000  1
  C  390  1  0.47594700  0.53253900  0.11339100  1
  C  391  1  0.47444300  0.53888900  0.14111700  1
  C  396  1  0.65095100  0.54025000  0.19030500  1
  C  401  1  0.43022800  0.57823100  0.15240000  1
  C  405  1  0.50139200  0.49370500  0.90849700  1
  C  406  1  0.44504500  0.52258800  0.89640900  1
  C  407  1  0.44036500  0.52748500  0.86861900  1
  C  408  1  0.49436200  0.50293100  0.85238800  1
  C  409  1  0.03661800  0.97028200  0.86397500  1
  C  410  1  0.04130300  0.96589400  0.89146100  1
  C  412  1  0.98473900  0.00427900  0.82392600  1
  C  413  1  0.52660900  0.54499200  0.81238000  1
  C  414  1  0.53375400  0.54835000  0.78487700  1
  C  415  1  0.00630500  0.01129300  0.76788600  1
  C  416  1  0.97115700  0.97226200  0.77947300  1
  C  417  1  0.95976000  0.96810900  0.80707500  1
  C  422  1  0.37769400  0.55685900  0.85697800  1
  C  427  1  0.92090000  0.92635900  0.81768300  1
  C  431  1  0.02331800  0.00551300  0.57518000  1
  C  432  1  0.00782200  0.96290900  0.56312000  1
  C  433  1  0.00252900  0.95809200  0.53534000  1
  C  434  1  0.01225100  0.99734800  0.51908700  1
  C  435  1  0.52477000  0.53999100  0.53117100  1
  C  436  1  0.53052400  0.54391100  0.55867800  1
  C  438  1  0.00812400  0.99598000  0.49095000  1
  C  439  1  0.93292100  0.99237300  0.47909700  1
  C  440  1  0.92426600  0.99425300  0.45159200  1
  C  441  1  0.98996200  0.00084500  0.43472100  1
  C  442  1  0.56538800  0.50325900  0.44672600  1
  C  443  1  0.57565400  0.50085000  0.47445400  1
  C  448  1  0.98953400  0.91206600  0.52373500  1
  C  453  1  0.65675800  0.50332800  0.48574000  1
  C  457  1  0.79633200  0.59702300  0.99986600  1
  C  458  1  0.84397500  0.62093800  0.98154800  1
  C  459  1  0.92753000  0.61800700  0.98168000  1
  C  460  1  0.96506600  0.58957400  0.00067400  1
  C  461  1  0.91784500  0.56464400  0.01858700  1
  C  462  1  0.83481600  0.56809700  0.01808500  1
  C  464  1  0.04905200  0.58841600  0.00342500  1
  C  465  1  0.08461700  0.62200100  0.01946300  1
  C  466  1  0.16719500  0.62632100  0.02075400  1
  C  467  1  0.21767400  0.59760100  0.00593400  1
  C  468  1  0.18162400  0.56283400  0.99069400  1
  C  469  1  0.09827300  0.55774600  0.98915800  1
  C  474  1  0.97389200  0.64563200  0.96248400  1
  C  479  1  0.06372800  0.52108700  0.97246600  1
  C  483  1  0.21987400  0.60113800  0.66653400  1
  C  484  1  0.16020000  0.61299900  0.64820800  1
  C  485  1  0.12280400  0.65623700  0.64833800  1
  C  486  1  0.14666200  0.68922500  0.66733400  1
  C  487  1  0.20765600  0.67808800  0.68525300  1
  C  488  1  0.24397800  0.63484000  0.68475900  1
  C  490  1  0.10637300  0.73178800  0.67007800  1
  C  491  1  0.03824900  0.73278700  0.68613200  1
  C  492  1  0.99046700  0.77191400  0.68741600  1
  C  493  1  0.00824800  0.81149100  0.67257000  1
  C  494  1  0.07844900  0.81085300  0.65733800  1
  C  495  1  0.12779600  0.77173300  0.65581800  1
  C  500  1  0.05821200  0.66560300  0.62913400  1
  C  505  1  0.20007700  0.77279800  0.63913400  1
  C  509  1  0.00197400  0.81087700  0.33322000  1
  C  510  1  0.01405600  0.77510500  0.31489900  1
  C  511  1  0.96787000  0.73479800  0.31501900  1
  C  512  1  0.90640400  0.73024600  0.33399600  1
  C  513  1  0.89255200  0.76633600  0.35189500  1
  C  514  1  0.93924500  0.80612700  0.35140300  1
  C  516  1  0.86270800  0.68882000  0.33674400  1
  C  517  1  0.89527400  0.65426200  0.35279800  1
  C  518  1  0.86040700  0.61082900  0.35412100  1
  C  519  1  0.79210600  0.59994100  0.33929700  1
  C  520  1  0.75796100  0.63534900  0.32405900  1
  C  521  1  0.79206000  0.67955600  0.32249300  1
  C  526  1  0.98616200  0.69780700  0.29582800  1
  C  531  1  0.75437000  0.71514400  0.30578400  1
  H  25  1  0.79338600  0.17812900  0.00271300  1
  H  26  1  0.93247900  0.19301400  0.00180100  1
  H  27  1  0.08242500  0.19282800  0.00134800  1
  H  28  1  0.22159900  0.17750600  0.00008100  1
  H  29  1  0.17574900  0.03552300  0.00254800  1
  H  30  1  0.83858700  0.03618700  0.00690200  1
  H  31  1  0.01743500  0.05736800  0.06048100  1
  H  32  1  0.50573000  0.41528900  0.07638400  1
  H  33  1  0.50195000  0.39972700  0.03017100  1
  H  34  1  0.00146600  0.05558500  0.94808200  1
  H  35  1  0.50170800  0.39897100  0.98016300  1
  H  36  1  0.49945400  0.41359200  0.93360800  1
  H  62  1  0.34997400  0.30930300  0.66933600  1
  H  63  1  0.25808700  0.37138500  0.66850800  1
  H  64  1  0.18335400  0.44637300  0.66796800  1
  H  65  1  0.63636200  0.02359000  0.66681000  1
  H  66  1  0.87224200  0.07167700  0.66923500  1
  H  67  1  0.54029100  0.40289200  0.67349400  1
  H  68  1  0.41951200  0.48137700  0.72719800  1
  H  69  1  0.13428400  0.04661800  0.74364300  1
  H  70  1  0.16140800  0.05284900  0.69750400  1
  H  71  1  0.42809100  0.47542000  0.61491300  1
  H  72  1  0.16409700  0.05318500  0.64715600  1
  H  73  1  0.14405500  0.04485100  0.60052600  1
  H  99  1  0.37464700  0.02187800  0.33602700  1
  H  100  1  0.82747700  0.44488600  0.33521000  1
  H  101  1  0.75237500  0.37001700  0.33468800  1
  H  102  1  0.65990200  0.30804400  0.33345400  1
  H  103  1  0.46971500  0.40185200  0.33612400  1
  H  104  1  0.13909000  0.07022200  0.34017400  1
  H  105  1  0.58177600  0.47057500  0.39386200  1
  H  106  1  0.87459600  0.04696400  0.40974800  1
  H  107  1  0.85314100  0.05666100  0.36353600  1
  H  108  1  0.58638800  0.47785300  0.28157500  1
  H  109  1  0.85213000  0.05718700  0.31352000  1
  H  110  1  0.87515700  0.05100200  0.26696600  1
  H  118  1  0.87994900  0.98416100  0.23329100  1
  H  125  1  0.58840000  0.44851300  0.15707400  1
  H  126  1  0.59245600  0.44008500  0.11064100  1
  H  127  1  0.94394200  0.05430000  0.10175600  1
  H  128  1  0.61078900  0.53553800  0.24140300  1
  H  130  1  0.19280100  0.05193400  0.20518300  1
  H  131  1  0.13907900  0.06870600  0.17703300  1
  H  132  1  0.67927800  0.51289900  0.17921800  1
  H  133  1  0.89466500  0.98260800  0.18666700  1
  H  135  1  0.96969200  0.09889000  0.16451200  1
  H  136  1  0.88159100  0.06597700  0.16459500  1
  H  137  1  0.90518400  0.10043100  0.13726500  1
  H  144  1  0.59738500  0.44945700  0.89994300  1
  H  151  1  0.03710200  0.07013100  0.82403200  1
  H  152  1  0.05169200  0.07676700  0.77775500  1
  H  153  1  0.46068200  0.44625300  0.76844700  1
  H  154  1  0.90838000  0.04511000  0.90833700  1
  H  156  1  0.82142100  0.05823100  0.86725900  1
  H  157  1  0.87240100  0.06309100  0.83724900  1
  H  158  1  0.89925900  0.09836100  0.86398700  1
  H  159  1  0.59233000  0.45761200  0.85332400  1
  H  161  1  0.38039100  0.43695500  0.83115400  1
  H  162  1  0.47380300  0.40935400  0.83129300  1
  H  163  1  0.41045200  0.40390500  0.80393200  1
  H  170  1  0.04170800  0.07561700  0.56659300  1
  H  177  1  0.38310400  0.48902800  0.49040200  1
  H  178  1  0.36845600  0.49122800  0.44397000  1
  H  179  1  0.11392200  0.00868600  0.43511700  1
  H  180  1  0.50247600  0.43436900  0.57474900  1
  H  182  1  0.48614500  0.38510900  0.53855100  1
  H  183  1  0.53817700  0.40358200  0.51040000  1
  H  184  1  0.43431000  0.41138900  0.51256300  1
  H  185  1  0.03145300  0.06897500  0.51998400  1
  H  187  1  0.66797700  0.47321200  0.49781700  1
  H  188  1  0.16287600  0.03375600  0.49793800  1
  H  189  1  0.20262100  0.00473800  0.47058400  1
  H  196  1  0.30258700  0.05109800  0.03197300  1
  H  203  1  0.55023500  0.14479400  0.02978100  1
  H  204  1  0.68980900  0.15172100  0.03244900  1
  H  205  1  0.71670900  0.04220300  0.97957800  1
  H  206  1  0.31709300  0.14181900  0.96797300  1
  H  208  1  0.43651100  0.16537200  0.94913800  1
  H  209  1  0.51080000  0.12333600  0.95047300  1
  H  210  1  0.51182000  0.16965700  0.97298400  1
  H  211  1  0.44346600  0.04476300  0.03268500  1
  H  213  1  0.52717400  0.03603700  0.95704500  1
  H  214  1  0.52725400  0.99879000  0.98460500  1
  H  215  1  0.10877100  0.50006500  0.96299800  1
  H  222  1  0.78552000  0.12732800  0.69869000  1
  H  229  1  0.52130100  0.20440400  0.69645000  1
  H  230  1  0.44128600  0.27079900  0.69910400  1
  H  231  1  0.59223500  0.33883900  0.64619600  1
  H  232  1  0.64229900  0.08917900  0.63466600  1
  H  234  1  0.54733400  0.13709400  0.61579600  1
  H  235  1  0.57323800  0.19525800  0.61712100  1
  H  236  1  0.50320300  0.17262500  0.63962400  1
  H  237  1  0.72464200  0.20095400  0.69935600  1
  H  239  1  0.69603900  0.24705900  0.62368300  1
  H  240  1  0.75190200  0.26567200  0.65124700  1
  H  241  1  0.70911000  0.30584300  0.62967400  1
  H  248  1  0.42964900  0.33059300  0.36540900  1
  H  255  1  0.44631400  0.15998900  0.36313000  1
  H  256  1  0.38673600  0.08678600  0.36579100  1
  H  257  1  0.20924800  0.12820400  0.31286000  1
  H  258  1  0.55869300  0.27816400  0.30140100  1
  H  260  1  0.53444500  0.20670100  0.28252100  1
  H  261  1  0.43425500  0.19054000  0.28380700  1
  H  262  1  0.50316600  0.16686100  0.30633600  1
  H  263  1  0.34972900  0.26333100  0.36603200  1
  H  265  1  0.29502700  0.22595700  0.29033000  1
  H  266  1  0.23917500  0.24463900  0.31788200  1
  H  267  1  0.20029600  0.20313200  0.29633000  1
  H  292  1  0.29351400  0.67789300  0.00263400  1
  H  293  1  0.43258600  0.69279700  0.00180700  1
  H  294  1  0.58244100  0.69267400  0.00129900  1
  H  295  1  0.72163600  0.67741500  0.00006700  1
  H  296  1  0.67598900  0.53542400  0.00279200  1
  H  297  1  0.33874600  0.53594500  0.00683100  1
  H  298  1  0.51682700  0.55708600  0.06053400  1
  H  299  1  0.00595200  0.91559100  0.07639100  1
  H  300  1  0.00123900  0.89999800  0.03021200  1
  H  301  1  0.50363000  0.55578400  0.94824500  1
  H  302  1  0.99614800  0.89912000  0.98047200  1
  H  303  1  0.99003600  0.91329400  0.93403200  1
  H  329  1  0.84982700  0.80918800  0.66939700  1
  H  330  1  0.75786000  0.87123700  0.66847300  1
  H  331  1  0.68300400  0.94633000  0.66794500  1
  H  332  1  0.13664300  0.52359500  0.66673900  1
  H  333  1  0.37244900  0.57177400  0.66945800  1
  H  334  1  0.04004600  0.90287300  0.67329700  1
  H  335  1  0.91722100  0.98088100  0.72661900  1
  H  336  1  0.63772800  0.54675000  0.74305200  1
  H  337  1  0.66299500  0.55262200  0.69683800  1
  H  338  1  0.92877800  0.97548600  0.61472600  1
  H  339  1  0.66426000  0.55287800  0.64683100  1
  H  340  1  0.64345800  0.54444700  0.60027600  1
  H  366  1  0.87464000  0.52187600  0.33603300  1
  H  367  1  0.32748600  0.94488700  0.33520800  1
  H  368  1  0.25238100  0.87001600  0.33468600  1
  H  369  1  0.15990500  0.80804200  0.33344800  1
  H  370  1  0.96972400  0.90185400  0.33613500  1
  H  371  1  0.63908500  0.57022200  0.34016200  1
  H  372  1  0.08179900  0.97058000  0.39387900  1
  H  373  1  0.37461300  0.54699900  0.40972800  1
  H  374  1  0.35316400  0.55670300  0.36351600  1
  H  375  1  0.08640000  0.97785200  0.28158500  1
  H  376  1  0.35213300  0.55721200  0.31350800  1
  H  377  1  0.37516800  0.55102900  0.26695200  1
  H  385  1  0.37998700  0.48415500  0.23328700  1
  H  392  1  0.08837600  0.94854500  0.15705300  1
  H  393  1  0.09280100  0.94029100  0.11061400  1
  H  394  1  0.44359000  0.55409000  0.10177700  1
  H  395  1  0.11078500  0.03548900  0.24139500  1
  H  397  1  0.69283100  0.55197400  0.20519500  1
  H  398  1  0.63910700  0.56874500  0.17704400  1
  H  399  1  0.17923200  0.01285500  0.17920900  1
  H  400  1  0.39473800  0.48258600  0.18666700  1
  H  402  1  0.46982200  0.59888400  0.16447300  1
  H  403  1  0.38168500  0.56600800  0.16463300  1
  H  404  1  0.40518400  0.60038200  0.13726100  1
  H  411  1  0.08048900  0.94279800  0.89905500  1
  H  418  1  0.54655700  0.57147300  0.82373700  1
  H  419  1  0.55717500  0.57770700  0.77730400  1
  H  420  1  0.95615800  0.94537800  0.76763400  1
  H  421  1  0.40488400  0.53914400  0.90807500  1
  H  423  1  0.33916500  0.57192700  0.87187100  1
  H  424  1  0.34088100  0.53669000  0.84371600  1
  H  425  1  0.40454900  0.58470500  0.84589300  1
  H  426  1  0.07298100  0.95038700  0.85265200  1
  H  428  1  0.87004500  0.93598800  0.82966800  1
  H  429  1  0.96226800  0.90709400  0.82982000  1
  H  430  1  0.89981000  0.90362400  0.80216500  1
  H  437  1  0.54071000  0.57546600  0.56660300  1
  H  444  1  0.88323700  0.98916600  0.49046700  1
  H  445  1  0.86850100  0.99129100  0.44403300  1
  H  446  1  0.61387900  0.50871900  0.43511500  1
  H  447  1  0.00314000  0.93456200  0.57479600  1
  H  449  1  0.98625800  0.88528800  0.53864300  1
  H  450  1  0.03803400  0.90367200  0.51042100  1
  H  451  1  0.93422500  0.91161200  0.51271200  1
  H  452  1  0.53098300  0.56884700  0.51998600  1
  H  454  1  0.16807600  0.97324500  0.49783100  1
  H  455  1  0.66265200  0.53371900  0.49796900  1
  H  456  1  0.70251300  0.50478800  0.47060200  1
  H  463  1  0.80287800  0.55102600  0.03206900  1
  H  470  1  0.05051500  0.64469500  0.02976800  1
  H  471  1  0.19010200  0.65151600  0.03241400  1
  H  472  1  0.21670200  0.54199900  0.97952200  1
  H  473  1  0.81707900  0.64171500  0.96804100  1
  H  475  1  0.93641500  0.66530900  0.94916700  1
  H  476  1  0.01075600  0.62330000  0.95047700  1
  H  477  1  0.01178700  0.66961900  0.97299000  1
  H  478  1  0.94374800  0.54469700  0.03271100  1
  H  480  1  0.02710600  0.53598400  0.95702300  1
  H  481  1  0.02714000  0.49873100  0.98458100  1
  H  482  1  0.60891400  0.00018600  0.96303600  1
  H  489  1  0.28557800  0.62742500  0.69873800  1
  H  496  1  0.02132800  0.70440900  0.69646800  1
  H  497  1  0.94126300  0.77078400  0.69909800  1
  H  498  1  0.09214800  0.83879100  0.64615300  1
  H  499  1  0.14250700  0.58916200  0.63469700  1
  H  501  1  0.04744500  0.63702400  0.61581500  1
  H  502  1  0.07329300  0.69520000  0.61712500  1
  H  503  1  0.00327200  0.67256000  0.63963200  1
  H  504  1  0.22461500  0.70101700  0.69937400  1
  H  506  1  0.19605300  0.74704700  0.62368300  1
  H  507  1  0.25188800  0.76567000  0.65125300  1
  H  508  1  0.20910200  0.80583400  0.62967400  1
  H  515  1  0.92965100  0.83059200  0.36541100  1
  H  522  1  0.94630800  0.65998700  0.36313000  1
  H  523  1  0.88672900  0.58678400  0.36579100  1
  H  524  1  0.70924700  0.62820700  0.31285600  1
  H  525  1  0.05869500  0.77816500  0.30140100  1
  H  527  1  0.03444600  0.70670300  0.28252100  1
  H  528  1  0.93425700  0.69054300  0.28380700  1
  H  529  1  0.00316600  0.66686300  0.30633600  1
  H  530  1  0.84973100  0.76333000  0.36603400  1
  H  532  1  0.79503000  0.72596000  0.29033000  1
  H  533  1  0.73917800  0.74464200  0.31788200  1
  H  534  1  0.70029900  0.70313300  0.29632800  1
