# generated using pymatgen
data_H11C20N4O3
_symmetry_space_group_name_H-M   'P 1'
_cell_length_a   27.65350000
_cell_length_b   27.65350000
_cell_length_c   41.29470000
_cell_angle_alpha   90.00000000
_cell_angle_beta   90.00000000
_cell_angle_gamma   90.00000000
_symmetry_Int_Tables_number   1
_chemical_formula_structural   H11C20N4O3
_chemical_formula_sum   'H176 C320 N64 O48'
_cell_volume   31578.72037580
_cell_formula_units_Z   16
loop_
 _symmetry_equiv_pos_site_id
 _symmetry_equiv_pos_as_xyz
  1  'x, y, z'
loop_
 _atom_site_type_symbol
 _atom_site_label
 _atom_site_symmetry_multiplicity
 _atom_site_fract_x
 _atom_site_fract_y
 _atom_site_fract_z
 _atom_site_occupancy
  H  7  1  0.24258900  0.09572100  0.15137000  1
  H  16  1  0.09588600  0.09389800  0.09805000  1
  H  17  1  0.15824800  0.11784700  0.25066600  1
  H  18  1  0.17977300  0.12197100  0.99987400  1
  H  19  1  0.09317700  0.06555200  0.14737500  1
  H  20  1  0.24579600  0.06634800  0.10250900  1
  H  22  1  0.08863100  0.10175600  0.01456900  1
  H  24  1  0.26367500  0.06099800  0.02004100  1
  H  26  1  0.25123000  0.10178300  0.23455000  1
  H  28  1  0.07672500  0.05679800  0.22991000  1
  H  35  1  0.59454800  0.05599700  0.64848900  1
  H  44  1  0.74144000  0.07107900  0.59642700  1
  H  45  1  0.67520600  0.03966900  0.74970300  1
  H  46  1  0.66127000  0.06859900  0.49316900  1
  H  47  1  0.74179800  0.09573500  0.64669700  1
  H  48  1  0.58996200  0.08788700  0.60056800  1
  H  50  1  0.75085700  0.07024600  0.51435800  1
  H  52  1  0.57320800  0.10249400  0.51771200  1
  H  54  1  0.58457400  0.04839600  0.73169100  1
  H  56  1  0.75683100  0.10102300  0.72934900  1
  H  63  1  0.09481300  0.59785600  0.59946100  1
  H  72  1  0.24091300  0.58440800  0.65428900  1
  H  73  1  0.18096300  0.63227900  0.50297400  1
  H  74  1  0.15810200  0.58230300  0.75648100  1
  H  75  1  0.24394500  0.56592200  0.60346200  1
  H  76  1  0.08940800  0.56969700  0.64783500  1
  H  78  1  0.24755300  0.58252400  0.73616100  1
  H  80  1  0.07032900  0.55156900  0.73024300  1
  H  82  1  0.08901500  0.61243700  0.51618900  1
  H  84  1  0.26191900  0.56429500  0.52156300  1
  H  91  1  0.74077100  0.57771100  0.09578900  1
  H  100  1  0.59323800  0.56494900  0.15054500  1
  H  101  1  0.66019900  0.57167500  0.99339500  1
  H  102  1  0.67939800  0.53071800  0.24759100  1
  H  103  1  0.58864600  0.58563700  0.10094700  1
  H  104  1  0.74333200  0.59196200  0.14658900  1
  H  106  1  0.58634200  0.55240500  0.23368500  1
  H  108  1  0.76035300  0.59652200  0.22839800  1
  H  110  1  0.74894800  0.57827100  0.01404400  1
  H  112  1  0.57044900  0.60304600  0.01857200  1
  H  119  1  0.94375100  0.39769300  0.35075200  1
  H  128  1  0.92432500  0.25616500  0.40131700  1
  H  129  1  0.95126200  0.31634000  0.24992500  1
  H  130  1  0.96851900  0.34271800  0.49651600  1
  H  131  1  0.88728500  0.25700100  0.35277100  1
  H  132  1  0.89688600  0.40416600  0.39631900  1
  H  134  1  0.90834200  0.25756000  0.48765000  1
  H  136  1  0.91492000  0.42485800  0.48122600  1
  H  138  1  0.93470400  0.40836800  0.26426400  1
  H  140  1  0.89508500  0.24146200  0.26714500  1
  H  147  1  0.89044500  0.74778300  0.85604600  1
  H  156  1  0.89229000  0.89211600  0.89944400  1
  H  157  1  0.86662600  0.82129300  0.75268700  1
  H  158  1  0.90704400  0.82102500  0.00426400  1
  H  159  1  0.93696800  0.89146500  0.85059700  1
  H  160  1  0.94814500  0.75182300  0.89829300  1
  H  162  1  0.91499900  0.91047200  0.98416400  1
  H  164  1  0.95253900  0.74327800  0.98601600  1
  H  166  1  0.89106000  0.73139500  0.76908100  1
  H  168  1  0.91935300  0.90106200  0.76498600  1
  H  175  1  0.44415400  0.27197800  0.90035400  1
  H  184  1  0.44501500  0.41286300  0.85112500  1
  H  185  1  0.43277800  0.35552000  0.00089600  1
  H  186  1  0.48619200  0.32985800  0.75399900  1
  H  187  1  0.38889500  0.41251200  0.89267800  1
  H  188  1  0.40532700  0.26719500  0.85023200  1
  H  190  1  0.44606700  0.41911900  0.76256400  1
  H  192  1  0.42588500  0.25128500  0.76591300  1
  H  194  1  0.42373700  0.26312300  0.98555900  1
  H  196  1  0.38291400  0.43067700  0.97891100  1
  H  203  1  0.38876900  0.90797700  0.39557800  1
  H  212  1  0.40001500  0.76390100  0.35304200  1
  H  213  1  0.37380500  0.83410500  0.49935400  1
  H  214  1  0.39578800  0.83432900  0.24841400  1
  H  215  1  0.44646100  0.76825800  0.40090300  1
  H  216  1  0.44365100  0.90804500  0.35206900  1
  H  218  1  0.41935100  0.74750500  0.26697800  1
  H  220  1  0.43146900  0.91787400  0.26425600  1
  H  222  1  0.38960400  0.92536700  0.48213200  1
  H  224  1  0.43119000  0.75834300  0.48675000  1
  H  235  1  0.90838900  0.99594400  0.00468100  1
  H  236  1  0.95941700  0.03580900  0.04276700  1
  H  241  1  0.18231700  0.02640600  0.95779500  1
  H  242  1  0.21425800  0.99647500  0.90709400  1
  H  243  1  0.16121300  0.95739200  0.86824600  1
  H  244  1  0.07575900  0.94804700  0.88010500  1
  H  259  1  0.93916600  0.16782400  0.51859100  1
  H  260  1  0.87888400  0.13398600  0.55301700  1
  H  265  1  0.67959300  0.13420500  0.44499100  1
  H  266  1  0.66066200  0.15814700  0.39004500  1
  H  267  1  0.72342800  0.19037800  0.35506200  1
  H  268  1  0.80557700  0.19881300  0.37495800  1
  H  283  1  0.44153200  0.50168000  0.73364300  1
  H  284  1  0.37895800  0.52781100  0.69800400  1
  H  289  1  0.17751600  0.51152400  0.80336100  1
  H  290  1  0.15912400  0.48823200  0.85856000  1
  H  291  1  0.22335900  0.46249500  0.89474300  1
  H  292  1  0.30641800  0.46000000  0.87586200  1
  H  307  1  0.40844100  0.66167800  0.24635800  1
  H  308  1  0.45785600  0.62104300  0.20767300  1
  H  313  1  0.68277900  0.62600800  0.29049900  1
  H  314  1  0.71633300  0.65533600  0.34088400  1
  H  315  1  0.66481700  0.69520800  0.38029100  1
  H  316  1  0.57926200  0.70592200  0.36931300  1
  H  331  1  0.27501200  0.63430000  0.48848600  1
  H  332  1  0.32142400  0.67481200  0.44938200  1
  H  337  1  0.54363900  0.69524000  0.53310200  1
  H  338  1  0.57828200  0.67504000  0.58536700  1
  H  339  1  0.52977100  0.63407600  0.62596600  1
  H  340  1  0.44631300  0.61300800  0.61454800  1
  H  355  1  0.77596400  0.52809300  0.26240400  1
  H  356  1  0.82432300  0.49036200  0.30171400  1
  H  361  1  0.04489600  0.47171700  0.21597300  1
  H  362  1  0.07772200  0.49014100  0.16289200  1
  H  363  1  0.02729100  0.52816500  0.12206000  1
  H  364  1  0.94371900  0.54803600  0.13405400  1
  H  379  1  0.57447400  0.11857200  0.76572500  1
  H  380  1  0.53305800  0.16420700  0.80488400  1
  H  385  1  0.30741900  0.19341000  0.72635100  1
  H  386  1  0.26896400  0.17326000  0.67528200  1
  H  387  1  0.31257500  0.12719500  0.63464000  1
  H  388  1  0.39491300  0.10093600  0.64483300  1
  H  403  1  0.90870300  0.51042800  0.49988400  1
  H  404  1  0.95794100  0.54919700  0.53949700  1
  H  409  1  0.18664700  0.53193300  0.46231100  1
  H  410  1  0.22142800  0.50028100  0.41292200  1
  H  411  1  0.17019800  0.46231800  0.37251200  1
  H  412  1  0.08369700  0.45584500  0.38147000  1
  H  427  1  0.93886200  0.66640800  0.01666600  1
  H  428  1  0.87687400  0.63946400  0.05247100  1
  H  433  1  0.67564400  0.64614000  0.94649600  1
  H  434  1  0.65682200  0.66719700  0.89095800  1
  H  435  1  0.72028600  0.69454200  0.85469200  1
  H  436  1  0.80302800  0.70086700  0.87382800  1
  H  451  1  0.43742400  0.00526200  0.23964100  1
  H  452  1  0.38200600  0.04116700  0.20240300  1
  H  457  1  0.16551600  0.02338000  0.29362600  1
  H  458  1  0.13812300  0.99322400  0.34549400  1
  H  459  1  0.19541500  0.95833900  0.38342200  1
  H  460  1  0.28056200  0.95345400  0.36953400  1
  H  475  1  0.27340000  0.13201100  0.98698800  1
  H  476  1  0.31727100  0.17545900  0.94796600  1
  H  481  1  0.53995800  0.20352400  0.03012900  1
  H  482  1  0.57648800  0.18345000  0.08183900  1
  H  483  1  0.53061000  0.13933600  0.12232900  1
  H  484  1  0.44791900  0.11498000  0.11135800  1
  H  499  1  0.76807000  0.03123200  0.76281100  1
  H  500  1  0.81129400  0.98772800  0.80208300  1
  H  505  1  0.03575000  0.96102600  0.72181300  1
  H  506  1  0.07309200  0.98136300  0.67041000  1
  H  507  1  0.02780800  0.02555900  0.62965900  1
  H  508  1  0.94490100  0.04974900  0.64006900  1
  H  523  1  0.39245400  0.01515200  0.50449000  1
  H  524  1  0.44613900  0.04814300  0.54424400  1
  H  529  1  0.67137300  0.99088500  0.47179900  1
  H  530  1  0.70258800  0.95424900  0.42290400  1
  H  531  1  0.64758200  0.92562700  0.38129300  1
  H  532  1  0.56084500  0.93339500  0.38858200  1
  H  547  1  0.89345800  0.64306900  0.74690100  1
  H  548  1  0.94515100  0.60933800  0.70624700  1
  H  553  1  0.17380800  0.66171800  0.77517100  1
  H  554  1  0.20752100  0.69782200  0.82353800  1
  H  555  1  0.15461500  0.72770300  0.86596700  1
  H  556  1  0.06749500  0.72175400  0.86006600  1
  H  571  1  0.06130200  0.12542200  0.26471600  1
  H  572  1  0.01305800  0.16298600  0.30411600  1
  H  577  1  0.79172400  0.17974500  0.21886000  1
  H  578  1  0.75922100  0.16219500  0.16555200  1
  H  579  1  0.81008600  0.12540500  0.12445300  1
  H  580  1  0.89375800  0.10588700  0.13640900  1
  H  595  1  0.39134700  0.51638700  0.00360400  1
  H  596  1  0.44483400  0.54738900  0.04418900  1
  H  601  1  0.67046600  0.49275900  0.97184800  1
  H  602  1  0.70223400  0.45723700  0.92269400  1
  H  603  1  0.64766600  0.42932800  0.88060800  1
  H  604  1  0.56083700  0.43670500  0.88761900  1
  C  1  1  0.16821700  0.08105300  0.14241000  1
  C  2  1  0.21001500  0.08842100  0.16182700  1
  C  3  1  0.20928700  0.08590300  0.19597500  1
  C  4  1  0.16400400  0.08255500  0.21168600  1
  C  5  1  0.12094200  0.07666900  0.19361000  1
  C  6  1  0.12422900  0.07361100  0.15952900  1
  C  9  1  0.17054700  0.08115400  0.10726300  1
  C  10  1  0.21479100  0.07442400  0.09030500  1
  C  11  1  0.21854700  0.07858800  0.05632900  1
  C  12  1  0.17570300  0.08462200  0.03807400  1
  C  13  1  0.13010500  0.08639800  0.05349900  1
  C  14  1  0.12878400  0.08784800  0.08769100  1
  C  29  1  0.66789500  0.07614300  0.64060700  1
  C  30  1  0.62635200  0.06491300  0.65942500  1
  C  31  1  0.62603400  0.06679700  0.69360400  1
  C  32  1  0.67050900  0.07329500  0.70996700  1
  C  33  1  0.71365400  0.08152900  0.69239300  1
  C  34  1  0.71096000  0.08546700  0.65834000  1
  C  37  1  0.66611500  0.07936900  0.60550300  1
  C  38  1  0.62183200  0.08478700  0.58837300  1
  C  39  1  0.61914800  0.08700900  0.55423800  1
  C  40  1  0.66283900  0.08980500  0.53655700  1
  C  41  1  0.70793300  0.08545400  0.55234600  1
  C  42  1  0.70858700  0.07772800  0.58614700  1
  C  57  1  0.16896300  0.58215800  0.60874100  1
  C  58  1  0.12776700  0.59209600  0.58919100  1
  C  59  1  0.12943300  0.59383900  0.55500300  1
  C  60  1  0.17509200  0.59199800  0.53970800  1
  C  61  1  0.21742300  0.58294700  0.55789200  1
  C  62  1  0.21324600  0.57608000  0.59164700  1
  C  65  1  0.16587500  0.57686100  0.64379100  1
  C  66  1  0.12105800  0.57139700  0.66035300  1
  C  67  1  0.11737600  0.56754500  0.69440300  1
  C  68  1  0.16051000  0.56328200  0.71256000  1
  C  69  1  0.20605900  0.56794000  0.69742500  1
  C  70  1  0.20771300  0.57721500  0.66382500  1
  C  85  1  0.66526600  0.58185800  0.10583900  1
  C  86  1  0.70739100  0.58297200  0.08605000  1
  C  87  1  0.70599100  0.59120600  0.05233000  1
  C  88  1  0.66057500  0.59325700  0.03677100  1
  C  89  1  0.61732600  0.58795900  0.05467600  1
  C  90  1  0.62059500  0.58496800  0.08879000  1
  C  93  1  0.66795600  0.57764900  0.14105300  1
  C  94  1  0.71224000  0.58297200  0.15830100  1
  C  95  1  0.71603700  0.57718600  0.19216600  1
  C  96  1  0.67336600  0.56983500  0.21032300  1
  C  97  1  0.62779100  0.56890200  0.19491500  1
  C  98  1  0.62638800  0.56971900  0.16070200  1
  C  113  1  0.91412400  0.32817200  0.35785900  1
  C  114  1  0.92959000  0.36834800  0.33922700  1
  C  115  1  0.92612300  0.36987400  0.30512600  1
  C  116  1  0.91688000  0.32532000  0.28910700  1
  C  117  1  0.90593000  0.28230800  0.30652800  1
  C  118  1  0.90059200  0.28610100  0.34050600  1
  C  121  1  0.91461600  0.33030800  0.39280300  1
  C  122  1  0.90821900  0.37484600  0.40919200  1
  C  123  1  0.91698400  0.38054900  0.44265700  1
  C  124  1  0.92570300  0.33786700  0.46091100  1
  C  125  1  0.92568100  0.29115700  0.44648500  1
  C  126  1  0.92240500  0.28888900  0.41230400  1
  C  141  1  0.91400800  0.81989700  0.85887200  1
  C  142  1  0.90017300  0.77709200  0.84258700  1
  C  143  1  0.90001400  0.77331400  0.80842200  1
  C  144  1  0.90480900  0.81718500  0.79059900  1
  C  145  1  0.91498800  0.86209400  0.80600100  1
  C  146  1  0.92368900  0.86111800  0.83970000  1
  C  149  1  0.91893700  0.82136500  0.89348200  1
  C  150  1  0.93651200  0.78111000  0.91100200  1
  C  151  1  0.93929300  0.78036100  0.94522000  1
  C  152  1  0.93122100  0.82512600  0.96148800  1
  C  153  1  0.91775800  0.86798500  0.94462900  1
  C  154  1  0.90752800  0.86351900  0.91125400  1
  C  169  1  0.41779200  0.34212400  0.89078900  1
  C  170  1  0.42896200  0.30192600  0.91061000  1
  C  171  1  0.41908700  0.30121400  0.94417600  1
  C  172  1  0.40668700  0.34593600  0.95903700  1
  C  173  1  0.39868400  0.38866700  0.94056500  1
  C  174  1  0.40029700  0.38414700  0.90646200  1
  C  177  1  0.42472100  0.34043500  0.85625400  1
  C  178  1  0.41843200  0.29704100  0.83862700  1
  C  179  1  0.43015900  0.29324400  0.80544900  1
  C  180  1  0.44193000  0.33656700  0.78866400  1
  C  181  1  0.44357500  0.38240100  0.80442900  1
  C  182  1  0.43838600  0.38207900  0.83854300  1
  C  197  1  0.41822600  0.83796000  0.39264600  1
  C  198  1  0.40146500  0.87970500  0.40894800  1
  C  199  1  0.40198200  0.88386700  0.44306600  1
  C  200  1  0.41069700  0.84077000  0.46102500  1
  C  201  1  0.42378000  0.79658700  0.44566200  1
  C  202  1  0.43157300  0.79781000  0.41185600  1
  C  205  1  0.42131400  0.83635800  0.35793200  1
  C  206  1  0.43340000  0.87793700  0.33976700  1
  C  207  1  0.43149700  0.87916300  0.30555200  1
  C  208  1  0.42602300  0.83376500  0.28954300  1
  C  209  1  0.41897500  0.78962300  0.30677000  1
  C  210  1  0.41203900  0.79331100  0.34058800  1
  C  225  1  0.96197300  0.98562700  0.96854200  1
  C  226  1  0.01143700  0.99432000  0.96134700  1
  C  227  1  0.04207400  0.01813800  0.98401400  1
  C  228  1  0.02316800  0.03416800  0.01411000  1
  C  229  1  0.97371500  0.02603200  0.02084400  1
  C  230  1  0.94361800  0.00241800  0.99842000  1
  C  232  1  0.10988100  0.00560200  0.94852000  1
  C  233  1  0.07919200  0.98251700  0.92586600  1
  C  237  1  0.15954400  0.01043800  0.94157000  1
  C  238  1  0.17822900  0.99289200  0.91209900  1
  C  239  1  0.14747500  0.97020400  0.88956800  1
  C  240  1  0.09792000  0.96479400  0.89646000  1
  C  245  1  0.05360300  0.05049500  0.03957100  1
  C  246  1  0.93319900  0.95505200  0.94839200  1
  C  249  1  0.89564200  0.17087100  0.47635800  1
  C  250  1  0.84836700  0.16242500  0.46447800  1
  C  251  1  0.81189500  0.14316100  0.48511300  1
  C  252  1  0.82269300  0.13199700  0.51791600  1
  C  253  1  0.87033600  0.13996600  0.52922000  1
  C  254  1  0.90615800  0.15937600  0.50887800  1
  C  256  1  0.75394500  0.15219100  0.44214100  1
  C  257  1  0.79049000  0.17100100  0.42168300  1
  C  261  1  0.70630200  0.14755100  0.43045700  1
  C  262  1  0.69524400  0.16149600  0.39850800  1
  C  263  1  0.73165500  0.18019200  0.37821500  1
  C  264  1  0.77931300  0.18504800  0.38976400  1
  C  269  1  0.78626300  0.11997000  0.54089200  1
  C  270  1  0.92685700  0.20276800  0.45944100  1
  C  273  1  0.39705000  0.49315300  0.77512000  1
  C  274  1  0.34867100  0.49690300  0.78625000  1
  C  275  1  0.31116800  0.51226800  0.76498600  1
  C  276  1  0.32180100  0.52420600  0.73231100  1
  C  277  1  0.37021800  0.52044100  0.72159300  1
  C  278  1  0.40720400  0.50529300  0.74261700  1
  C  280  1  0.25296500  0.49965500  0.80735700  1
  C  281  1  0.29037200  0.48462300  0.82848800  1
  C  285  1  0.20479500  0.50086700  0.81842900  1
  C  286  1  0.19406900  0.48731000  0.85050300  1
  C  287  1  0.23133200  0.47236800  0.87149300  1
  C  288  1  0.27952100  0.47090700  0.86051900  1
  C  293  1  0.28510500  0.53485500  0.70925000  1
  C  294  1  0.43309900  0.47034200  0.79442600  1
  C  297  1  0.46299800  0.67061000  0.28199700  1
  C  298  1  0.51241300  0.66092300  0.28870000  1
  C  299  1  0.54210600  0.63667200  0.26568300  1
  C  300  1  0.52222000  0.62119900  0.23573600  1
  C  301  1  0.47277600  0.63026500  0.22952000  1
  C  302  1  0.44363300  0.65434500  0.25228400  1
  C  304  1  0.61088900  0.64792600  0.30051800  1
  C  305  1  0.58110300  0.67145600  0.32350800  1
  C  309  1  0.66062200  0.64228500  0.30696600  1
  C  310  1  0.68025500  0.65948700  0.33625300  1
  C  311  1  0.65038900  0.68263000  0.35910900  1
  C  312  1  0.60077500  0.68883200  0.35273000  1
  C  317  1  0.55182200  0.60512500  0.20977600  1
  C  318  1  0.43542800  0.70184700  0.30241900  1
  C  321  1  0.32992100  0.62889000  0.52440300  1
  C  322  1  0.37870500  0.64145700  0.53077700  1
  C  323  1  0.40702300  0.66590600  0.50700900  1
  C  324  1  0.38659200  0.67894600  0.47672200  1
  C  325  1  0.33839400  0.66464000  0.47034600  1
  C  326  1  0.31068300  0.64034300  0.49363900  1
  C  328  1  0.47460600  0.66577900  0.54332800  1
  C  329  1  0.44629800  0.64188300  0.56703600  1
  C  333  1  0.52303400  0.67790400  0.55007700  1
  C  334  1  0.54315100  0.66621700  0.58041500  1
  C  335  1  0.51500200  0.64245800  0.60397500  1
  C  336  1  0.46657400  0.63023600  0.59733500  1
  C  341  1  0.40981100  0.71009500  0.45388100  1
  C  342  1  0.29821300  0.61186500  0.54909900  1
  C  345  1  0.82993600  0.53352400  0.22584900  1
  C  346  1  0.87888100  0.52197400  0.21916500  1
  C  347  1  0.90837100  0.49928300  0.24307200  1
  C  348  1  0.88899500  0.48698400  0.27380200  1
  C  349  1  0.84056700  0.50022700  0.28043000  1
  C  350  1  0.81169200  0.52284200  0.25700800  1
  C  352  1  0.97500600  0.49927900  0.20598100  1
  C  353  1  0.94556300  0.52144600  0.18214200  1
  C  357  1  0.02349800  0.48784100  0.19890200  1
  C  358  1  0.04255500  0.49849100  0.16809200  1
  C  359  1  0.01329000  0.52054200  0.14439700  1
  C  360  1  0.96479400  0.53208200  0.15137400  1
  C  365  1  0.91343700  0.45690800  0.29672500  1
  C  366  1  0.79723800  0.54879200  0.20122800  1
  C  369  1  0.51699500  0.11426900  0.73161800  1
  C  370  1  0.46852700  0.12899900  0.72636400  1
  C  371  1  0.44325000  0.15654200  0.75012000  1
  C  372  1  0.46659200  0.17075600  0.77923700  1
  C  373  1  0.51403300  0.15345100  0.78487000  1
  C  374  1  0.53875700  0.12601600  0.76156900  1
  C  376  1  0.37371100  0.15869700  0.71542300  1
  C  377  1  0.39913600  0.13184000  0.69168400  1
  C  381  1  0.32591200  0.17380600  0.70939300  1
  C  382  1  0.30360000  0.16218300  0.67973800  1
  C  383  1  0.32890700  0.13547000  0.65614900  1
  C  384  1  0.37666900  0.12020500  0.66208700  1
  C  389  1  0.44740500  0.20634400  0.80090100  1
  C  390  1  0.54644900  0.09674100  0.70586500  1
  C  393  1  0.96464200  0.49809300  0.46566000  1
  C  394  1  0.01478800  0.50531800  0.46009200  1
  C  395  1  0.04435200  0.52851200  0.48365500  1
  C  396  1  0.02362900  0.54541100  0.51298500  1
  C  397  1  0.97352400  0.53892300  0.51807100  1
  C  398  1  0.94449300  0.51596100  0.49474100  1
  C  400  1  0.11437100  0.51337900  0.45063800  1
  C  401  1  0.08475700  0.49091500  0.42708100  1
  C  405  1  0.16463300  0.51650700  0.44538600  1
  C  406  1  0.18496500  0.49793800  0.41669200  1
  C  407  1  0.15526600  0.47589300  0.39325600  1
  C  408  1  0.10510900  0.47214700  0.39846200  1
  C  413  1  0.05262400  0.56042900  0.53948500  1
  C  414  1  0.93698200  0.46713100  0.44511500  1
  C  417  1  0.89427500  0.67337300  0.97508300  1
  C  418  1  0.84602800  0.66785800  0.96395100  1
  C  419  1  0.80894700  0.65165100  0.98526800  1
  C  420  1  0.81981400  0.64059600  0.01803200  1
  C  421  1  0.86795600  0.64645400  0.02886100  1
  C  422  1  0.90455600  0.66233300  0.00775700  1
  C  424  1  0.75059300  0.66090400  0.94261100  1
  C  425  1  0.78754000  0.67684800  0.92142500  1
  C  429  1  0.70260600  0.65748000  0.93139500  1
  C  430  1  0.69162800  0.66973900  0.89912400  1
  C  431  1  0.72844400  0.68561000  0.87808500  1
  C  432  1  0.77644200  0.68929500  0.88920000  1
  C  437  1  0.78343500  0.62825800  0.04093300  1
  C  438  1  0.93071900  0.69389100  0.95491100  1
  C  441  1  0.38676900  0.99452300  0.27753900  1
  C  442  1  0.33740700  0.00054800  0.28599000  1
  C  443  1  0.30418700  0.02176000  0.26382500  1
  C  444  1  0.32034100  0.03770600  0.23300100  1
  C  445  1  0.36963200  0.03150900  0.22486700  1
  C  446  1  0.40232900  0.01035500  0.24676300  1
  C  448  1  0.23942400  0.00678100  0.30133100  1
  C  449  1  0.27267900  0.98621600  0.32346000  1
  C  453  1  0.18999800  0.00914200  0.30947300  1
  C  454  1  0.17399300  0.99148900  0.33961000  1
  C  455  1  0.20722000  0.97124200  0.36161000  1
  C  456  1  0.25660400  0.96842500  0.35354600  1
  C  461  1  0.28757100  0.05251900  0.20843700  1
  C  462  1  0.41833100  0.96724200  0.29774000  1
  C  465  1  0.32916900  0.12815500  0.02238700  1
  C  466  1  0.37749700  0.14263700  0.02850100  1
  C  467  1  0.40425300  0.16891800  0.00480000  1
  C  468  1  0.38266100  0.18188200  0.97485800  1
  C  469  1  0.33507200  0.16550300  0.96866300  1
  C  470  1  0.30889200  0.13942100  0.99189600  1
  C  472  1  0.47247600  0.17081500  0.04057000  1
  C  473  1  0.44570200  0.14508800  0.06421500  1
  C  477  1  0.52046300  0.18486200  0.04706200  1
  C  478  1  0.54167500  0.17324500  0.07707600  1
  C  479  1  0.51505300  0.14765900  0.10057400  1
  C  480  1  0.46706600  0.13353000  0.09419300  1
  C  485  1  0.40417700  0.21468700  0.95229800  1
  C  486  1  0.29852400  0.10992400  0.04729100  1
  C  489  1  0.82454400  0.03567100  0.72795200  1
  C  490  1  0.87310200  0.02150200  0.72229300  1
  C  491  1  0.89947500  0.99512300  0.74613600  1
  C  492  1  0.87726100  0.98172100  0.77579100  1
  C  493  1  0.82952000  0.99797300  0.78161800  1
  C  494  1  0.80371800  0.02414100  0.75823400  1
  C  496  1  0.96839600  0.99368400  0.71094500  1
  C  497  1  0.94198300  0.01946700  0.68714600  1
  C  501  1  0.01651500  0.97975400  0.70478200  1
  C  502  1  0.03819300  0.99151400  0.67494100  1
  C  503  1  0.01191700  0.01714600  0.65129100  1
  C  504  1  0.96381000  0.03118800  0.65735000  1
  C  509  1  0.89821600  0.94861900  0.79840400  1
  C  510  1  0.79424000  0.05331400  0.70265100  1
  C  513  1  0.44689200  0.99468200  0.47096500  1
  C  514  1  0.49768400  0.99345200  0.46611000  1
  C  515  1  0.52971300  0.01236200  0.48988800  1
  C  516  1  0.51093100  0.03385500  0.51839800  1
  C  517  1  0.46040900  0.03431600  0.52331600  1
  C  518  1  0.42884700  0.01495300  0.49994500  1
  C  520  1  0.59757400  0.98547900  0.45834400  1
  C  521  1  0.56562200  0.96795800  0.43425600  1
  C  525  1  0.64786800  0.97987000  0.45421800  1
  C  526  1  0.66609700  0.95820200  0.42588000  1
  C  527  1  0.63419500  0.94155600  0.40175300  1
  C  528  1  0.58388700  0.94605900  0.40600300  1
  C  533  1  0.54183100  0.04979900  0.54353400  1
  C  534  1  0.41516300  0.97069900  0.44908900  1
  C  537  1  0.94937100  0.66266600  0.77956400  1
  C  538  1  0.00035200  0.66292200  0.78360100  1
  C  539  1  0.03117400  0.64347100  0.75930200  1
  C  540  1  0.01105800  0.62239900  0.73106900  1
  C  541  1  0.96037900  0.62282600  0.72696700  1
  C  542  1  0.92999600  0.64267500  0.75086800  1
  C  544  1  0.10065200  0.66893600  0.78975900  1
  C  545  1  0.06992400  0.68710000  0.81434100  1
  C  549  1  0.15118500  0.67340900  0.79308600  1
  C  550  1  0.17085900  0.69470500  0.82111900  1
  C  551  1  0.14017400  0.71207000  0.84572500  1
  C  552  1  0.08964400  0.70862400  0.84228400  1
  C  557  1  0.04095800  0.60631500  0.70540500  1
  C  558  1  0.91889700  0.68721900  0.80201500  1
  C  561  1  0.00723700  0.11994000  0.22828900  1
  C  562  1  0.95818400  0.13117900  0.22178000  1
  C  563  1  0.92859600  0.15346400  0.24582500  1
  C  564  1  0.94804700  0.16628300  0.27650000  1
  C  565  1  0.99661300  0.15308300  0.28291700  1
  C  566  1  0.02550800  0.13054200  0.25943500  1
  C  568  1  0.86182700  0.15285800  0.20873200  1
  C  569  1  0.89151900  0.13144100  0.18474200  1
  C  573  1  0.81326900  0.16404300  0.20169600  1
  C  574  1  0.79441400  0.15393900  0.17074600  1
  C  575  1  0.82392900  0.13261200  0.14689500  1
  C  576  1  0.87247300  0.12125500  0.15385400  1
  C  581  1  0.92367400  0.19653800  0.29955900  1
  C  582  1  0.03991500  0.10530500  0.20346400  1
  C  585  1  0.44596900  0.49624500  0.97011400  1
  C  586  1  0.49683500  0.49477700  0.96554900  1
  C  587  1  0.52869300  0.51280700  0.98974300  1
  C  588  1  0.50979500  0.53341600  0.01849500  1
  C  589  1  0.45923400  0.53397600  0.02318700  1
  C  590  1  0.42780200  0.51570400  0.99932800  1
  C  592  1  0.59682900  0.48708900  0.95809300  1
  C  593  1  0.56510500  0.47012900  0.93369000  1
  C  597  1  0.64717400  0.48188200  0.95409000  1
  C  598  1  0.66570300  0.46093000  0.92559700  1
  C  599  1  0.63405100  0.44470400  0.90119200  1
  C  600  1  0.58368800  0.44897800  0.90527500  1
  C  605  1  0.54073900  0.54883900  0.04378800  1
  C  606  1  0.41412500  0.47434600  0.94727800  1
  N  21  1  0.08846100  0.08484900  0.03528600  1
  N  23  1  0.26261200  0.07732900  0.04095500  1
  N  25  1  0.25137500  0.08515100  0.21374200  1
  N  27  1  0.07720500  0.07412000  0.20934600  1
  N  49  1  0.74989900  0.08805200  0.53471200  1
  N  51  1  0.57558400  0.08491200  0.53813600  1
  N  53  1  0.58345300  0.06482900  0.71082200  1
  N  55  1  0.75714200  0.08485600  0.70837800  1
  N  77  1  0.24746700  0.56518800  0.71561200  1
  N  79  1  0.07347200  0.56978400  0.71011500  1
  N  81  1  0.08798200  0.59458400  0.53653600  1
  N  83  1  0.26138700  0.58045500  0.54254600  1
  N  105  1  0.58624100  0.57013100  0.21327300  1
  N  107  1  0.75989700  0.57961300  0.20767700  1
  N  109  1  0.74763100  0.59577700  0.03451100  1
  N  111  1  0.57368200  0.58483800  0.03870100  1
  N  133  1  0.92245200  0.25090100  0.46640100  1
  N  135  1  0.91813100  0.42537500  0.45774800  1
  N  137  1  0.93045800  0.41244000  0.28745500  1
  N  139  1  0.90182200  0.23873500  0.29011900  1
  N  161  1  0.91643100  0.91212400  0.96063100  1
  N  163  1  0.94882100  0.73838800  0.96284200  1
  N  165  1  0.89704500  0.72922500  0.79228000  1
  N  167  1  0.91566800  0.90474000  0.78826500  1
  N  189  1  0.44662800  0.42447800  0.78588200  1
  N  191  1  0.43008000  0.24937700  0.78924800  1
  N  193  1  0.42076100  0.25896600  0.96226500  1
  N  195  1  0.39073200  0.43266500  0.95596900  1
  N  217  1  0.42012800  0.74553800  0.29050900  1
  N  219  1  0.43189500  0.92198900  0.28766600  1
  N  221  1  0.39533600  0.92775700  0.45890600  1
  N  223  1  0.42728100  0.75422000  0.46351900  1
  N  231  1  0.09000700  0.02202200  0.97653600  1
  N  234  1  0.03185700  0.97756300  0.93350600  1
  N  255  1  0.76624000  0.13960100  0.47284000  1
  N  258  1  0.83578300  0.17563500  0.43382300  1
  N  279  1  0.26503600  0.51234400  0.77665800  1
  N  282  1  0.33622000  0.48358100  0.81691700  1
  N  303  1  0.59012900  0.63193500  0.27267400  1
  N  306  1  0.53369800  0.67725000  0.31636000  1
  N  327  1  0.45376200  0.67670000  0.51449400  1
  N  330  1  0.39978700  0.63078200  0.55971500  1
  N  351  1  0.95515000  0.48921500  0.23525800  1
  N  354  1  0.89899000  0.53181400  0.18978300  1
  N  375  1  0.39685800  0.16981800  0.74342900  1
  N  378  1  0.44521400  0.11820800  0.69821700  1
  N  399  1  0.09290000  0.53082700  0.47784300  1
  N  402  1  0.03678500  0.48751600  0.43310100  1
  N  423  1  0.76293500  0.64945600  0.97347700  1
  N  426  1  0.83321900  0.67989700  0.93311600  1
  N  447  1  0.25662600  0.02328300  0.27257200  1
  N  450  1  0.31978400  0.98367800  0.31465700  1
  N  471  1  0.45060900  0.18156900  0.01204800  1
  N  474  1  0.39957000  0.13216600  0.05714200  1
  N  495  1  0.94601500  0.98268000  0.73924700  1
  N  498  1  0.89570000  0.03220700  0.69387500  1
  N  519  1  0.57821700  0.00688100  0.48498400  1
  N  522  1  0.51744700  0.97221400  0.43944300  1
  N  543  1  0.07992500  0.64798000  0.76343400  1
  N  546  1  0.02150500  0.68377300  0.80992600  1
  N  567  1  0.88165100  0.16279600  0.23803300  1
  N  570  1  0.93817500  0.12145200  0.19234900  1
  N  591  1  0.57723300  0.50762200  0.98494100  1
  N  594  1  0.51687200  0.47429100  0.93871000  1
  O  8  1  0.16197800  0.08366100  0.24462200  1
  O  15  1  0.17835600  0.08735200  0.00521000  1
  O  36  1  0.67155100  0.07357700  0.74298300  1
  O  43  1  0.66167500  0.09978800  0.50430400  1
  O  64  1  0.17826300  0.59734300  0.50699900  1
  O  71  1  0.15840600  0.55173600  0.74458900  1
  O  92  1  0.65857900  0.60291900  0.00446500  1
  O  99  1  0.67611100  0.56547700  0.24310600  1
  O  120  1  0.91774700  0.32395100  0.25606200  1
  O  127  1  0.93326500  0.34158900  0.49349900  1
  O  148  1  0.90101200  0.81607500  0.75765800  1
  O  155  1  0.93855100  0.82763900  0.99413100  1
  O  176  1  0.40088300  0.34746100  0.99183800  1
  O  183  1  0.45100700  0.33384900  0.75621000  1
  O  204  1  0.40754700  0.84200300  0.49399500  1
  O  211  1  0.42915400  0.83232200  0.25656500  1
  O  247  1  0.05375500  0.02187200  0.06620900  1
  O  248  1  0.93838500  0.96196600  0.91611900  1
  O  271  1  0.78456700  0.14802500  0.56778700  1
  O  272  1  0.94534600  0.18600700  0.43128700  1
  O  295  1  0.28538900  0.50800900  0.68179600  1
  O  296  1  0.43714600  0.48721600  0.82504700  1
  O  319  1  0.55251300  0.63531600  0.18392800  1
  O  320  1  0.44017600  0.69353300  0.33455800  1
  O  343  1  0.39884700  0.70176400  0.42238500  1
  O  344  1  0.29759900  0.63837600  0.57669300  1
  O  367  1  0.90308400  0.46638300  0.32816500  1
  O  368  1  0.79663800  0.52130500  0.17407000  1
  O  391  1  0.46106000  0.20274000  0.83232900  1
  O  392  1  0.54533500  0.12408200  0.67863400  1
  O  415  1  0.05195200  0.52964800  0.56501600  1
  O  416  1  0.94470600  0.47211800  0.41291500  1
  O  439  1  0.78194500  0.65540800  0.06823000  1
  O  440  1  0.93209300  0.67734700  0.92408600  1
  O  463  1  0.28738400  0.02412200  0.18168800  1
  O  464  1  0.41820100  0.98074100  0.32922300  1
  O  487  1  0.39266300  0.20706500  0.92080200  1
  O  488  1  0.29725600  0.13681000  0.07470900  1
  O  511  1  0.88601200  0.95565600  0.82983400  1
  O  512  1  0.79480100  0.02663400  0.67512500  1
  O  535  1  0.54625700  0.01808800  0.56835100  1
  O  536  1  0.42322000  0.98039400  0.41741600  1
  O  559  1  0.04619000  0.63860000  0.68100700  1
  O  560  1  0.92844100  0.67811400  0.83358100  1
  O  583  1  0.93698900  0.19060900  0.33090400  1
  O  584  1  0.04039200  0.13368600  0.17672100  1
  O  607  1  0.54591000  0.51668000  0.06826500  1
  O  608  1  0.42375900  0.48436200  0.91584300  1
