# generated using pymatgen
data_Ag3H40C44(N3O)4
_symmetry_space_group_name_H-M   'P 1'
_cell_length_a   15.25750604
_cell_length_b   15.30793000
_cell_length_c   42.81205000
_cell_angle_alpha   90.00181000
_cell_angle_beta   89.99618804
_cell_angle_gamma   60.10180074
_symmetry_Int_Tables_number   1
_chemical_formula_structural   Ag3H40C44(N3O)4
_chemical_formula_sum   'Ag18 H240 C264 N72 O24'
_cell_volume   8668.44628843
_cell_formula_units_Z   6
loop_
 _symmetry_equiv_pos_site_id
 _symmetry_equiv_pos_as_xyz
  1  'x, y, z'
loop_
 _atom_site_type_symbol
 _atom_site_label
 _atom_site_symmetry_multiplicity
 _atom_site_fract_x
 _atom_site_fract_y
 _atom_site_fract_z
 _atom_site_occupancy
  Ag  Ag0  1  0.85912000  0.57175000  0.08340000  1
  Ag  Ag1  1  0.49745000  0.75180000  0.08340000  1
  Ag  Ag2  1  0.57043000  0.85905000  0.75015000  1
  Ag  Ag3  1  0.75088000  0.49821000  0.75001000  1
  Ag  Ag4  1  0.56926000  0.57166000  0.41660000  1
  Ag  Ag5  1  0.75069000  0.75188000  0.41657000  1
  Ag  Ag6  1  0.77780000  0.77568000  0.91628000  1
  Ag  Ag7  1  0.44684000  0.77581000  0.58380000  1
  Ag  Ag8  1  0.77800000  0.44418000  0.25000000  1
  Ag  Ag9  1  0.14086000  0.42841000  0.58338000  1
  Ag  Ag10  1  0.50263000  0.24838000  0.58333000  1
  Ag  Ag11  1  0.42945000  0.14113000  0.25000000  1
  Ag  Ag12  1  0.24922000  0.50172000  0.25000000  1
  Ag  Ag13  1  0.43087000  0.42822000  0.91660000  1
  Ag  Ag14  1  0.24934000  0.24813000  0.91660000  1
  Ag  Ag15  1  0.22234000  0.22460000  0.41634000  1
  Ag  Ag16  1  0.55355000  0.22410000  0.08381000  1
  Ag  Ag17  1  0.22198000  0.55586000  0.74998000  1
  H  H18  1  0.02961000  0.59374000  0.07686000  1
  H  H19  1  0.16225000  0.63998000  0.06721000  1
  H  H20  1  0.16073000  0.72881000  0.01824000  1
  H  H21  1  0.02360000  0.77054000  0.97846000  1
  H  H22  1  0.75482000  0.71508000  0.96968000  1
  H  H23  1  0.62068000  0.74385000  0.98748000  1
  H  H24  1  0.56474000  0.69735000  0.01375000  1
  H  H25  1  0.71439000  0.57467000  0.96094000  1
  H  H26  1  0.58422000  0.61295000  0.96219000  1
  H  H27  1  0.66825000  0.52234000  0.98919000  1
  H  H28  1  0.76464000  0.40919000  0.11855000  1
  H  H29  1  0.83314000  0.29104000  0.09950000  1
  H  H30  1  0.70523000  0.33776000  0.11014000  1
  H  H31  1  0.78914000  0.41985000  0.05911000  1
  H  H32  1  0.71369000  0.36447000  0.05291000  1
  H  H33  1  0.57493000  0.37872000  0.07466000  1
  H  H34  1  0.25969000  0.50577000  0.11923000  1
  H  H35  1  0.12669000  0.67500000  0.13932000  1
  H  H36  1  0.15509000  0.82167000  0.13469000  1
  H  H37  1  0.31541000  0.79925000  0.11206000  1
  H  H38  1  0.37767000  0.02996000  0.74370000  1
  H  H39  1  0.19946000  0.16279000  0.73389000  1
  H  H40  1  0.11130000  0.16047000  0.68521000  1
  H  H41  1  0.20549000  0.02257000  0.64566000  1
  H  H42  1  0.52837000  0.75422000  0.63689000  1
  H  H43  1  0.63431000  0.62213000  0.65397000  1
  H  H44  1  0.73627000  0.56564000  0.68036000  1
  H  H45  1  0.71142000  0.71514000  0.62782000  1
  H  H46  1  0.80234000  0.58530000  0.62902000  1
  H  H47  1  0.80973000  0.66851000  0.65617000  1
  H  H48  1  0.82831000  0.76330000  0.78497000  1
  H  H49  1  0.88059000  0.83063000  0.76643000  1
  H  H50  1  0.95930000  0.70245000  0.77664000  1
  H  H51  1  0.79348000  0.78956000  0.72554000  1
  H  H52  1  0.92418000  0.71387000  0.71934000  1
  H  H53  1  0.04750000  0.57616000  0.74046000  1
  H  H54  1  0.23608000  0.26134000  0.78376000  1
  H  H55  1  0.20005000  0.12860000  0.80463000  1
  H  H56  1  0.02390000  0.15797000  0.80168000  1
  H  H57  1  0.88520000  0.31817000  0.77975000  1
  H  H58  1  0.59111000  0.37961000  0.41034000  1
  H  H59  1  0.63633000  0.20155000  0.40079000  1
  H  H60  1  0.72830000  0.11276000  0.35240000  1
  H  H61  1  0.77371000  0.20597000  0.31291000  1
  H  H62  1  0.72038000  0.52813000  0.30378000  1
  H  H63  1  0.74321000  0.63631000  0.32046000  1
  H  H64  1  0.69798000  0.73770000  0.34695000  1
  H  H65  1  0.57354000  0.71265000  0.29425000  1
  H  H66  1  0.61135000  0.80471000  0.29598000  1
  H  H67  1  0.52106000  0.80963000  0.32290000  1
  H  H68  1  0.40766000  0.82684000  0.45184000  1
  H  H69  1  0.28830000  0.87857000  0.43317000  1
  H  H70  1  0.33767000  0.95752000  0.44364000  1
  H  H71  1  0.41695000  0.79246000  0.39246000  1
  H  H72  1  0.36179000  0.92283000  0.38625000  1
  H  H73  1  0.37622000  0.04680000  0.40775000  1
  H  H74  1  0.50489000  0.23447000  0.45124000  1
  H  H75  1  0.67447000  0.19813000  0.47169000  1
  H  H76  1  0.82068000  0.02270000  0.46825000  1
  H  H77  1  0.79755000  0.88488000  0.44629000  1
  H  H78  1  0.02940000  0.37957000  0.08966000  1
  H  H79  1  0.16219000  0.20150000  0.09921000  1
  H  H80  1  0.15909000  0.11276000  0.14760000  1
  H  H81  1  0.02040000  0.20600000  0.18707000  1
  H  H82  1  0.75144000  0.52806000  0.19621000  1
  H  H83  1  0.62045000  0.63645000  0.17953000  1
  H  H84  1  0.56435000  0.73782000  0.15304000  1
  H  H85  1  0.71378000  0.71276000  0.20576000  1
  H  H86  1  0.58391000  0.80475000  0.20401000  1
  H  H87  1  0.66928000  0.80974000  0.17711000  1
  H  H88  1  0.76551000  0.82672000  0.04814000  1
  H  H89  1  0.83316000  0.87845000  0.06681000  1
  H  H90  1  0.70482000  0.95738000  0.05632000  1
  H  H91  1  0.79058000  0.79246000  0.10753000  1
  H  H92  1  0.71532000  0.92284000  0.11370000  1
  H  H93  1  0.57702000  0.04663000  0.09224000  1
  H  H94  1  0.26071000  0.23447000  0.04876000  1
  H  H95  1  0.12739000  0.19828000  0.02830000  1
  H  H96  1  0.15649000  0.02293000  0.03173000  1
  H  H97  1  0.31743000  0.88502000  0.05368000  1
  H  H98  1  0.37664000  0.59388000  0.42310000  1
  H  H99  1  0.19774000  0.64018000  0.43274000  1
  H  H100  1  0.11042000  0.72915000  0.48169000  1
  H  H101  1  0.20589000  0.77051000  0.52154000  1
  H  H102  1  0.53037000  0.71466000  0.53034000  1
  H  H103  1  0.63530000  0.74402000  0.51250000  1
  H  H104  1  0.73783000  0.69746000  0.48624000  1
  H  H105  1  0.71095000  0.57499000  0.53915000  1
  H  H106  1  0.80289000  0.61329000  0.53779000  1
  H  H107  1  0.80946000  0.52253000  0.51087000  1
  H  H108  1  0.82622000  0.40917000  0.38143000  1
  H  H109  1  0.87606000  0.29105000  0.40051000  1
  H  H110  1  0.95708000  0.33786000  0.38986000  1
  H  H111  1  0.79093000  0.42005000  0.44087000  1
  H  H112  1  0.92178000  0.36467000  0.44709000  1
  H  H113  1  0.04631000  0.37878000  0.42532000  1
  H  H114  1  0.23466000  0.50581000  0.38086000  1
  H  H115  1  0.19849000  0.67500000  0.36077000  1
  H  H116  1  0.02338000  0.82167000  0.36537000  1
  H  H117  1  0.88536000  0.79929000  0.38791000  1
  H  H118  1  0.59228000  0.03004000  0.75667000  1
  H  H119  1  0.63745000  0.16296000  0.76657000  1
  H  H120  1  0.72886000  0.15995000  0.81513000  1
  H  H121  1  0.77403000  0.02104000  0.85440000  1
  H  H122  1  0.72007000  0.75231000  0.86302000  1
  H  H123  1  0.74392000  0.62112000  0.84614000  1
  H  H124  1  0.69794000  0.56522000  0.81973000  1
  H  H125  1  0.57367000  0.71499000  0.87225000  1
  H  H126  1  0.61223000  0.58525000  0.87112000  1
  H  H127  1  0.52183000  0.66845000  0.84393000  1
  H  H128  1  0.40838000  0.76345000  0.71504000  1
  H  H129  1  0.28874000  0.83089000  0.73358000  1
  H  H130  1  0.33814000  0.70270000  0.72336000  1
  H  H131  1  0.41683000  0.78972000  0.77449000  1
  H  H132  1  0.36177000  0.71408000  0.78066000  1
  H  H133  1  0.37626000  0.57635000  0.75957000  1
  H  H134  1  0.50258000  0.26138000  0.71629000  1
  H  H135  1  0.67139000  0.12865000  0.69543000  1
  H  H136  1  0.81818000  0.15800000  0.69838000  1
  H  H137  1  0.79662000  0.31822000  0.72031000  1
  H  H138  1  0.97039000  0.40628000  0.57689000  1
  H  H139  1  0.83783000  0.35994000  0.56724000  1
  H  H140  1  0.83942000  0.27106000  0.51827000  1
  H  H141  1  0.97641000  0.22955000  0.47845000  1
  H  H142  1  0.24508000  0.28516000  0.46966000  1
  H  H143  1  0.37937000  0.25605000  0.48749000  1
  H  H144  1  0.43530000  0.30260000  0.51373000  1
  H  H145  1  0.28576000  0.42513000  0.46090000  1
  H  H146  1  0.41592000  0.38691000  0.46218000  1
  H  H147  1  0.33183000  0.47754000  0.48914000  1
  H  H148  1  0.23519000  0.59088000  0.61847000  1
  H  H149  1  0.16688000  0.70910000  0.59942000  1
  H  H150  1  0.29475000  0.66218000  0.61011000  1
  H  H151  1  0.21094000  0.58012000  0.55904000  1
  H  H152  1  0.28630000  0.63559000  0.55285000  1
  H  H153  1  0.42504000  0.62148000  0.57467000  1
  H  H154  1  0.74028000  0.49441000  0.61921000  1
  H  H155  1  0.87327000  0.32518000  0.63931000  1
  H  H156  1  0.84489000  0.17849000  0.63467000  1
  H  H157  1  0.68459000  0.20090000  0.61203000  1
  H  H158  1  0.62234000  0.96984000  0.24342000  1
  H  H159  1  0.80047000  0.83691000  0.23356000  1
  H  H160  1  0.88898000  0.83976000  0.18501000  1
  H  H161  1  0.79514000  0.97851000  0.14569000  1
  H  H162  1  0.47263000  0.24717000  0.13697000  1
  H  H163  1  0.36509000  0.37876000  0.15389000  1
  H  H164  1  0.26320000  0.43459000  0.18034000  1
  H  H165  1  0.28855000  0.28504000  0.12776000  1
  H  H166  1  0.19744000  0.41486000  0.12895000  1
  H  H167  1  0.19019000  0.33156000  0.15611000  1
  H  H168  1  0.17168000  0.23664000  0.28497000  1
  H  H169  1  0.11941000  0.16931000  0.26644000  1
  H  H170  1  0.04068000  0.29754000  0.27663000  1
  H  H171  1  0.20656000  0.21026000  0.22554000  1
  H  H172  1  0.07584000  0.28600000  0.21933000  1
  H  H173  1  0.95257000  0.42374000  0.24043000  1
  H  H174  1  0.76399000  0.73865000  0.28370000  1
  H  H175  1  0.80002000  0.87136000  0.30459000  1
  H  H176  1  0.97619000  0.84192000  0.30167000  1
  H  H177  1  0.11487000  0.68172000  0.27974000  1
  H  H178  1  0.40898000  0.62034000  0.91032000  1
  H  H179  1  0.36373000  0.79839000  0.90077000  1
  H  H180  1  0.27176000  0.88716000  0.85239000  1
  H  H181  1  0.22633000  0.79394000  0.81291000  1
  H  H182  1  0.27955000  0.47183000  0.80379000  1
  H  H183  1  0.25688000  0.36359000  0.82047000  1
  H  H184  1  0.30212000  0.26219000  0.84695000  1
  H  H185  1  0.42655000  0.28730000  0.79426000  1
  H  H186  1  0.38874000  0.19525000  0.79598000  1
  H  H187  1  0.47903000  0.19029000  0.82289000  1
  H  H188  1  0.59228000  0.17319000  0.95186000  1
  H  H189  1  0.71167000  0.12147000  0.93322000  1
  H  H190  1  0.66231000  0.04252000  0.94368000  1
  H  H191  1  0.58317000  0.20745000  0.89247000  1
  H  H192  1  0.63829000  0.07708000  0.88630000  1
  H  H193  1  0.62383000  0.95329000  0.90776000  1
  H  H194  1  0.49526000  0.76545000  0.95123000  1
  H  H195  1  0.32568000  0.80176000  0.97169000  1
  H  H196  1  0.17944000  0.97717000  0.96828000  1
  H  H197  1  0.20253000  0.11503000  0.94632000  1
  H  H198  1  0.97066000  0.62039000  0.58966000  1
  H  H199  1  0.83782000  0.79848000  0.59920000  1
  H  H200  1  0.84079000  0.88725000  0.64761000  1
  H  H201  1  0.97948000  0.79408000  0.68708000  1
  H  H202  1  0.24858000  0.47207000  0.69621000  1
  H  H203  1  0.37953000  0.36354000  0.67955000  1
  H  H204  1  0.43564000  0.26224000  0.65304000  1
  H  H205  1  0.28617000  0.28721000  0.70574000  1
  H  H206  1  0.41604000  0.19525000  0.70399000  1
  H  H207  1  0.33072000  0.19025000  0.67709000  1
  H  H208  1  0.23460000  0.17322000  0.54807000  1
  H  H209  1  0.16699000  0.12157000  0.56680000  1
  H  H210  1  0.29533000  0.04262000  0.55633000  1
  H  H211  1  0.20950000  0.20779000  0.60745000  1
  H  H212  1  0.28480000  0.07746000  0.61367000  1
  H  H213  1  0.42326000  0.95350000  0.59229000  1
  H  H214  1  0.73938000  0.76575000  0.54871000  1
  H  H215  1  0.87276000  0.80190000  0.52826000  1
  H  H216  1  0.84371000  0.97724000  0.53171000  1
  H  H217  1  0.68272000  0.11522000  0.55362000  1
  H  H218  1  0.62334000  0.40620000  0.92315000  1
  H  H219  1  0.80226000  0.35990000  0.93280000  1
  H  H220  1  0.88952000  0.27107000  0.98177000  1
  H  H221  1  0.79415000  0.22941000  0.02156000  1
  H  H222  1  0.46974000  0.28507000  0.03032000  1
  H  H223  1  0.36456000  0.25608000  0.01250000  1
  H  H224  1  0.26205000  0.30266000  0.98624000  1
  H  H225  1  0.28913000  0.42524000  0.03906000  1
  H  H226  1  0.19716000  0.38704000  0.03781000  1
  H  H227  1  0.19060000  0.47764000  0.01082000  1
  H  H228  1  0.17382000  0.59072000  0.88142000  1
  H  H229  1  0.12410000  0.70890000  0.90047000  1
  H  H230  1  0.04298000  0.66214000  0.88984000  1
  H  H231  1  0.20903000  0.58008000  0.94088000  1
  H  H232  1  0.07817000  0.63545000  0.94708000  1
  H  H233  1  0.95371000  0.62125000  0.92534000  1
  H  H234  1  0.76541000  0.49421000  0.88079000  1
  H  H235  1  0.80170000  0.32502000  0.86070000  1
  H  H236  1  0.97679000  0.17833000  0.86534000  1
  H  H237  1  0.11471000  0.20075000  0.88794000  1
  H  H238  1  0.40773000  0.96988000  0.25673000  1
  H  H239  1  0.36242000  0.83713000  0.26672000  1
  H  H240  1  0.27080000  0.84055000  0.31529000  1
  H  H241  1  0.22567000  0.97970000  0.35447000  1
  H  H242  1  0.27987000  0.24824000  0.36293000  1
  H  H243  1  0.25610000  0.37921000  0.34604000  1
  H  H244  1  0.30238000  0.43496000  0.31966000  1
  H  H245  1  0.42627000  0.28503000  0.37220000  1
  H  H246  1  0.38790000  0.41477000  0.37109000  1
  H  H247  1  0.47837000  0.33144000  0.34391000  1
  H  H248  1  0.59174000  0.23654000  0.21503000  1
  H  H249  1  0.71135000  0.16911000  0.23356000  1
  H  H250  1  0.66199000  0.29730000  0.22334000  1
  H  H251  1  0.58320000  0.21033000  0.27447000  1
  H  H252  1  0.63830000  0.28597000  0.28065000  1
  H  H253  1  0.62382000  0.42375000  0.25955000  1
  H  H254  1  0.49735000  0.73877000  0.21631000  1
  H  H255  1  0.32854000  0.87148000  0.19546000  1
  H  H256  1  0.18182000  0.84201000  0.19839000  1
  H  H257  1  0.20345000  0.68175000  0.22030000  1
  C  C258  1  0.95281000  0.65341000  0.03326000  1
  C  C259  1  0.03004000  0.63192000  0.05539000  1
  C  C260  1  0.10353000  0.65831000  0.04985000  1
  C  C261  1  0.10289000  0.70838000  0.02227000  1
  C  C262  1  0.02793000  0.73124000  0.00001000  1
  C  C263  1  0.95516000  0.70291000  0.00532000  1
  C  C264  1  0.80892000  0.69841000  0.98848000  1
  C  C265  1  0.80471000  0.65491000  0.01703000  1
  C  C266  1  0.71952000  0.64100000  0.02284000  1
  C  C267  1  0.63334000  0.67604000  0.99999000  1
  C  C268  1  0.65115000  0.59175000  0.97677000  1
  C  C269  1  0.75888000  0.35971000  0.10119000  1
  C  C270  1  0.72714000  0.41219000  0.06920000  1
  C  C271  1  0.63570000  0.51646000  0.06970000  1
  C  C272  1  0.54001000  0.53431000  0.08228000  1
  C  C273  1  0.52138000  0.45339000  0.08346000  1
  C  C274  1  0.35917000  0.55916000  0.10556000  1
  C  C275  1  0.26970000  0.57105000  0.11846000  1
  C  C276  1  0.19645000  0.66536000  0.12928000  1
  C  C277  1  0.21282000  0.74764000  0.12666000  1
  C  C278  1  0.30179000  0.73594000  0.11391000  1
  C  C279  1  0.37880000  0.64072000  0.10321000  1
  C  C280  1  0.39388000  0.95240000  0.70032000  1
  C  C281  1  0.33885000  0.03002000  0.72230000  1
  C  C282  1  0.23929000  0.10364000  0.71670000  1
  C  C283  1  0.18936000  0.10266000  0.68925000  1
  C  C284  1  0.24070000  0.02733000  0.66713000  1
  C  C285  1  0.34154000  0.95449000  0.67248000  1
  C  C286  1  0.49149000  0.80826000  0.65568000  1
  C  C287  1  0.53976000  0.80441000  0.68409000  1
  C  C288  1  0.63900000  0.71988000  0.68966000  1
  C  C289  1  0.68967000  0.63432000  0.66666667  1
  C  C290  1  0.75699000  0.65193000  0.64364000  1
  C  C291  1  0.88418000  0.75726000  0.76774000  1
  C  C292  1  0.86272000  0.72720000  0.73555000  1
  C  C293  1  0.84887000  0.63630000  0.73586000  1
  C  C294  1  0.92660000  0.54085000  0.74830000  1
  C  C295  1  0.02634000  0.52242000  0.74916000  1
  C  C296  1  0.08255000  0.36071000  0.77123000  1
  C  C297  1  0.16056000  0.27128000  0.78370000  1
  C  C298  1  0.13953000  0.19840000  0.79495000  1
  C  C299  1  0.04026000  0.21532000  0.79324000  1
  C  C300  1  0.96255000  0.30424000  0.78086000  1
  C  C301  1  0.98094000  0.38057000  0.76954000  1
  C  C302  1  0.65320000  0.39525000  0.36697000  1
  C  C303  1  0.63023000  0.34053000  0.38902000  1
  C  C304  1  0.65619000  0.24106000  0.38359000  1
  C  C305  1  0.70791000  0.19081000  0.35629000  1
  C  C306  1  0.73275000  0.24170000  0.33419000  1
  C  C307  1  0.70442000  0.34254000  0.33931000  1
  C  C308  1  0.70165000  0.49196000  0.32242000  1
  C  C309  1  0.65577000  0.54082000  0.35062000  1
  C  C310  1  0.64091000  0.64006000  0.35618000  1
  C  C311  1  0.67577000  0.69111000  0.33325000  1
  C  C312  1  0.59061000  0.75821000  0.31031000  1
  C  C313  1  0.35805000  0.88263000  0.43463000  1
  C  C314  1  0.40988000  0.86171000  0.40248000  1
  C  C315  1  0.51460000  0.84869000  0.40279000  1
  C  C316  1  0.53247000  0.92630000  0.41538000  1
  C  C317  1  0.45131000  0.02573000  0.41643000  1
  C  C318  1  0.55792000  0.08160000  0.43839000  1
  C  C319  1  0.57009000  0.15914000  0.45094000  1
  C  C320  1  0.66448000  0.13802000  0.46199000  1
  C  C321  1  0.74653000  0.03918000  0.46002000  1
  C  C322  1  0.73453000  0.96199000  0.44760000  1
  C  C323  1  0.63934000  0.98043000  0.43650000  1
  C  C324  1  0.95162000  0.39519000  0.13302000  1
  C  C325  1  0.02933000  0.34051000  0.11097000  1
  C  C326  1  0.10283000  0.24103000  0.11641000  1
  C  C327  1  0.10140000  0.19079000  0.14370000  1
  C  C328  1  0.02566000  0.24166000  0.16579000  1
  C  C329  1  0.95311000  0.34249000  0.16067000  1
  C  C330  1  0.80638000  0.49192000  0.17756000  1
  C  C331  1  0.80345000  0.54078000  0.14938000  1
  C  C332  1  0.71907000  0.64005000  0.14382000  1
  C  C333  1  0.63315000  0.69119000  0.16674000  1
  C  C334  1  0.65118000  0.75829000  0.18969000  1
  C  C335  1  0.75934000  0.88251000  0.06534000  1
  C  C336  1  0.72840000  0.86167000  0.09749000  1
  C  C337  1  0.63674000  0.84860000  0.09719000  1
  C  C338  1  0.54128000  0.92623000  0.08459000  1
  C  C339  1  0.52295000  0.02565000  0.08356000  1
  C  C340  1  0.36045000  0.08163000  0.06160000  1
  C  C341  1  0.27073000  0.15921000  0.04904000  1
  C  C342  1  0.19748000  0.13809000  0.03799000  1
  C  C343  1  0.21422000  0.03930000  0.03996000  1
  C  C344  1  0.30347000  0.96206000  0.05237000  1
  C  C345  1  0.38020000  0.98051000  0.06348000  1
  C  C346  1  0.39390000  0.65323000  0.46675000  1
  C  C347  1  0.33811000  0.63190000  0.44460000  1
  C  C348  1  0.23818000  0.65836000  0.45012000  1
  C  C349  1  0.18878000  0.70844000  0.47771000  1
  C  C350  1  0.24088000  0.73120000  0.49999000  1
  C  C351  1  0.34205000  0.70274000  0.49470000  1
  C  C352  1  0.49285000  0.69810000  0.51155000  1
  C  C353  1  0.54051000  0.65468000  0.48299000  1
  C  C354  1  0.63955000  0.64094000  0.47717000  1
  C  C355  1  0.69057000  0.67614000  0.50002000  1
  C  C356  1  0.75711000  0.59199000  0.52327000  1
  C  C357  1  0.88148000  0.35979000  0.39881000  1
  C  C358  1  0.86062000  0.41236000  0.43079000  1
  C  C359  1  0.84783000  0.51659000  0.43026000  1
  C  C360  1  0.92567000  0.53445000  0.41768000  1
  C  C361  1  0.02525000  0.45345000  0.41651000  1
  C  C362  1  0.08165000  0.55926000  0.39443000  1
  C  C363  1  0.15931000  0.57110000  0.38159000  1
  C  C364  1  0.13836000  0.66535000  0.37079000  1
  C  C365  1  0.03967000  0.74764000  0.37338000  1
  C  C366  1  0.96232000  0.73599000  0.38607000  1
  C  C367  1  0.98041000  0.64084000  0.39676000  1
  C  C368  1  0.65469000  0.95167000  0.79987000  1
  C  C369  1  0.63155000  0.02974000  0.77800000  1
  C  C370  1  0.65739000  0.10339000  0.78366000  1
  C  C371  1  0.70885000  0.10200000  0.81103000  1
  C  C372  1  0.73354000  0.02615000  0.83301000  1
  C  C373  1  0.70554000  0.95336000  0.82762000  1
  C  C374  1  0.70229000  0.80687000  0.84436000  1
  C  C375  1  0.65698000  0.80357000  0.81605000  1
  C  C376  1  0.64168000  0.71937000  0.81048000  1
  C  C377  1  0.67623000  0.63378000  0.83342000  1
  C  C378  1  0.59118000  0.65175000  0.85646000  1
  C  C379  1  0.35849000  0.75748000  0.73226000  1
  C  C380  1  0.40997000  0.72739000  0.76447000  1
  C  C381  1  0.51476000  0.63643000  0.76420000  1
  C  C382  1  0.53247000  0.54100000  0.75173000  1
  C  C383  1  0.45118000  0.52255000  0.75086000  1
  C  C384  1  0.55673000  0.36080000  0.72883000  1
  C  C385  1  0.56812000  0.27138000  0.71637000  1
  C  C386  1  0.66208000  0.19845000  0.70511000  1
  C  C387  1  0.74441000  0.21539000  0.70681000  1
  C  C388  1  0.73322000  0.30428000  0.71919000  1
  C  C389  1  0.63846000  0.38068000  0.73051000  1
  C  C390  1  0.04714000  0.34674000  0.53326000  1
  C  C391  1  0.96995000  0.36815000  0.55540000  1
  C  C392  1  0.89650000  0.34170000  0.54987000  1
  C  C393  1  0.89716000  0.29164000  0.52228000  1
  C  C394  1  0.97207000  0.26885000  0.50000000  1
  C  C395  1  0.04479000  0.29726000  0.50531000  1
  C  C396  1  0.19100000  0.30179000  0.48846000  1
  C  C397  1  0.19525000  0.34523000  0.51702000  1
  C  C398  1  0.28050000  0.35904000  0.52283000  1
  C  C399  1  0.36670000  0.32390000  0.49998000  1
  C  C400  1  0.34896000  0.40810000  0.47674000  1
  C  C401  1  0.24106000  0.64035000  0.60113000  1
  C  C402  1  0.27287000  0.58787000  0.56913000  1
  C  C403  1  0.36435000  0.48362000  0.56965000  1
  C  C404  1  0.45998000  0.46587000  0.58225000  1
  C  C405  1  0.47863000  0.54677000  0.58344000  1
  C  C406  1  0.64083000  0.44097000  0.60555000  1
  C  C407  1  0.73028000  0.42911000  0.61844000  1
  C  C408  1  0.80353000  0.33480000  0.62926000  1
  C  C409  1  0.78716000  0.25252000  0.62663000  1
  C  C410  1  0.69819000  0.26422000  0.61389000  1
  C  C411  1  0.62119000  0.35943000  0.60318000  1
  C  C412  1  0.60644000  0.04808000  0.20020000  1
  C  C413  1  0.66129000  0.97012000  0.22209000  1
  C  C414  1  0.76083000  0.89641000  0.21646000  1
  C  C415  1  0.81098000  0.89769000  0.18910000  1
  C  C416  1  0.75983000  0.97338000  0.16709000  1
  C  C417  1  0.65900000  0.04621000  0.17243000  1
  C  C418  1  0.50929000  0.19269000  0.15566000  1
  C  C419  1  0.46064000  0.19618000  0.18398000  1
  C  C420  1  0.36115000  0.28047000  0.18954000  1
  C  C421  1  0.31006000  0.36609000  0.16661000  1
  C  C422  1  0.24286000  0.34825000  0.14357000  1
  C  C423  1  0.11582000  0.24268000  0.26774000  1
  C  C424  1  0.13734000  0.27267000  0.23553000  1
  C  C425  1  0.15126000  0.36356000  0.23582000  1
  C  C426  1  0.07351000  0.45904000  0.24826000  1
  C  C427  1  0.97373000  0.47751000  0.24913000  1
  C  C428  1  0.91753000  0.63925000  0.27117000  1
  C  C429  1  0.83951000  0.72870000  0.28363000  1
  C  C430  1  0.86054000  0.80154000  0.29491000  1
  C  C431  1  0.95982000  0.78459000  0.29322000  1
  C  C432  1  0.03752000  0.69567000  0.28084000  1
  C  C433  1  0.01914000  0.61935000  0.26950000  1
  C  C434  1  0.34684000  0.60470000  0.86697000  1
  C  C435  1  0.36984000  0.65940000  0.88901000  1
  C  C436  1  0.34386000  0.75888000  0.88357000  1
  C  C437  1  0.29215000  0.80912000  0.85627000  1
  C  C438  1  0.26727000  0.75823000  0.83419000  1
  C  C439  1  0.29559000  0.65740000  0.83932000  1
  C  C440  1  0.29832000  0.50799000  0.82243000  1
  C  C441  1  0.34424000  0.45914000  0.85063000  1
  C  C442  1  0.35915000  0.35988000  0.85618000  1
  C  C443  1  0.32432000  0.30880000  0.83326000  1
  C  C444  1  0.40949000  0.24172000  0.81031000  1
  C  C445  1  0.64192000  0.11740000  0.93467000  1
  C  C446  1  0.59017000  0.13826000  0.90251000  1
  C  C447  1  0.48545000  0.15131000  0.90280000  1
  C  C448  1  0.46757000  0.07370000  0.91540000  1
  C  C449  1  0.54874000  0.97431000  0.91645000  1
  C  C450  1  0.44219000  0.91836000  0.93840000  1
  C  C451  1  0.43004000  0.84079000  0.95093000  1
  C  C452  1  0.33566000  0.86187000  0.96199000  1
  C  C453  1  0.25359000  0.96071000  0.96005000  1
  C  C454  1  0.26555000  0.03793000  0.94762000  1
  C  C455  1  0.36073000  0.01953000  0.93651000  1
  C  C456  1  0.04837000  0.60486000  0.63303000  1
  C  C457  1  0.97068000  0.65950000  0.61097000  1
  C  C458  1  0.89716000  0.75897000  0.61640000  1
  C  C459  1  0.89852000  0.80923000  0.64370000  1
  C  C460  1  0.97426000  0.75840000  0.66580000  1
  C  C461  1  0.04685000  0.65759000  0.66067000  1
  C  C462  1  0.19362000  0.50819000  0.67757000  1
  C  C463  1  0.19657000  0.45932000  0.64938000  1
  C  C464  1  0.28095000  0.36003000  0.64382000  1
  C  C465  1  0.36683000  0.30883000  0.66674000  1
  C  C466  1  0.34878000  0.24171000  0.68967000  1
  C  C467  1  0.24080000  0.11752000  0.56531000  1
  C  C468  1  0.27170000  0.13856000  0.59743000  1
  C  C469  1  0.36335000  0.15161000  0.59713000  1
  C  C470  1  0.45883000  0.07398000  0.58452000  1
  C  C471  1  0.47722000  0.97455000  0.58354000  1
  C  C472  1  0.63967000  0.91862000  0.56154000  1
  C  C473  1  0.72939000  0.84101000  0.54899000  1
  C  C474  1  0.80267000  0.86210000  0.53794000  1
  C  C475  1  0.78594000  0.96090000  0.53992000  1
  C  C476  1  0.69666000  0.03818000  0.55231000  1
  C  C477  1  0.61990000  0.01975000  0.56341000  1
  C  C478  1  0.60617000  0.34662000  0.96676000  1
  C  C479  1  0.66192000  0.36807000  0.94463000  1
  C  C480  1  0.76182000  0.34166000  0.95016000  1
  C  C481  1  0.81122000  0.29159000  0.97775000  1
  C  C482  1  0.75916000  0.26872000  0.00001000  1
  C  C483  1  0.65803000  0.29708000  0.99470000  1
  C  C484  1  0.50727000  0.30163000  0.01154000  1
  C  C485  1  0.45959000  0.34512000  0.98299000  1
  C  C486  1  0.36050000  0.35900000  0.97716000  1
  C  C487  1  0.30938000  0.32393000  1.00000000  1
  C  C488  1  0.24291000  0.40821000  0.02323000  1
  C  C489  1  0.11859000  0.64020000  0.89879000  1
  C  C490  1  0.13937000  0.58772000  0.93079000  1
  C  C491  1  0.15219000  0.48346000  0.93028000  1
  C  C492  1  0.07435000  0.46559000  0.91770000  1
  C  C493  1  0.97476000  0.54659000  0.91654000  1
  C  C494  1  0.91837000  0.44081000  0.89444000  1
  C  C495  1  0.84076000  0.42894000  0.88156000  1
  C  C496  1  0.86179000  0.33467000  0.87075000  1
  C  C497  1  0.96046000  0.25237000  0.87337000  1
  C  C498  1  0.03776000  0.26404000  0.88608000  1
  C  C499  1  0.01961000  0.35921000  0.89678000  1
  C  C500  1  0.34527000  0.04857000  0.29989000  1
  C  C501  1  0.36840000  0.97037000  0.27807000  1
  C  C502  1  0.34249000  0.89681000  0.28378000  1
  C  C503  1  0.29091000  0.89842000  0.31115000  1
  C  C504  1  0.26624000  0.97440000  0.33308000  1
  C  C505  1  0.29434000  0.04709000  0.32766000  1
  C  C506  1  0.29771000  0.19360000  0.34429000  1
  C  C507  1  0.34306000  0.19669000  0.31597000  1
  C  C508  1  0.35836000  0.28085000  0.31039000  1
  C  C509  1  0.32389000  0.36643000  0.33333333  1
  C  C510  1  0.40893000  0.34828000  0.35642000  1
  C  C511  1  0.64162000  0.24254000  0.23224000  1
  C  C512  1  0.59012000  0.27265000  0.26445000  1
  C  C513  1  0.48534000  0.36363000  0.26414000  1
  C  C514  1  0.46763000  0.45907000  0.25170000  1
  C  C515  1  0.54890000  0.47755000  0.25084000  1
  C  C516  1  0.44328000  0.63930000  0.22884000  1
  C  C517  1  0.43183000  0.72876000  0.21639000  1
  C  C518  1  0.33788000  0.80166000  0.20513000  1
  C  C519  1  0.25559000  0.78466000  0.20683000  1
  C  C520  1  0.26682000  0.69575000  0.21919000  1
  C  C521  1  0.36159000  0.61937000  0.23051000  1
  N  N522  1  0.88062000  0.72240000  0.98254000  1
  N  N523  1  0.87903000  0.62955000  0.03910000  1
  N  N524  1  0.72192000  0.59073000  0.04856000  1
  N  N525  1  0.63517000  0.59628000  0.05745000  1
  N  N526  1  0.46784000  0.62872000  0.09160000  1
  N  N527  1  0.43350000  0.46426000  0.09408000  1
  N  N528  1  0.39601000  0.87981000  0.64978000  1
  N  N529  1  0.49140000  0.87873000  0.70612000  1
  N  N530  1  0.68758000  0.72232000  0.71525000  1
  N  N531  1  0.76898000  0.63590000  0.72388000  1
  N  N532  1  0.90385000  0.46930000  0.75802000  1
  N  N533  1  0.10323000  0.43497000  0.75974000  1
  N  N534  1  0.72581000  0.39647000  0.31668000  1
  N  N535  1  0.62897000  0.49280000  0.37260000  1
  N  N536  1  0.58959000  0.68835000  0.38175000  1
  N  N537  1  0.59470000  0.76962000  0.39053000  1
  N  N538  1  0.62708000  0.90374000  0.42493000  1
  N  N539  1  0.46266000  0.10238000  0.42691000  1
  N  N540  1  0.87781000  0.39645000  0.18331000  1
  N  N541  1  0.87832000  0.49275000  0.12741000  1
  N  N542  1  0.72208000  0.68832000  0.11825000  1
  N  N543  1  0.63569000  0.76956000  0.10945000  1
  N  N544  1  0.46916000  0.90379000  0.07504000  1
  N  N545  1  0.43494000  0.10232000  0.07310000  1
  N  N546  1  0.39707000  0.72231000  0.51748000  1
  N  N547  1  0.49158000  0.62932000  0.46091000  1
  N  N548  1  0.68734000  0.59081000  0.45142000  1
  N  N549  1  0.76851000  0.59640000  0.44252000  1
  N  N550  1  0.90334000  0.62884000  0.40834000  1
  N  N551  1  0.10225000  0.46436000  0.40591000  1
  N  N552  1  0.72632000  0.87836000  0.85025000  1
  N  N553  1  0.63068000  0.87813000  0.79408000  1
  N  N554  1  0.59026000  0.72217000  0.78493000  1
  N  N555  1  0.59503000  0.63588000  0.77627000  1
  N  N556  1  0.62682000  0.46940000  0.74203000  1
  N  N557  1  0.46175000  0.43507000  0.74032000  1
  N  N558  1  0.11933000  0.27776000  0.48253000  1
  N  N559  1  0.12092000  0.37061000  0.53910000  1
  N  N560  1  0.27813000  0.40934000  0.54854000  1
  N  N561  1  0.36489000  0.40377000  0.55742000  1
  N  N562  1  0.53216000  0.37145000  0.59156000  1
  N  N563  1  0.56651000  0.53586000  0.59407000  1
  N  N564  1  0.60482000  0.12109000  0.14977000  1
  N  N565  1  0.50888000  0.12170000  0.20598000  1
  N  N566  1  0.31257000  0.27773000  0.21511000  1
  N  N567  1  0.23105000  0.36403000  0.22377000  1
  N  N568  1  0.09624000  0.53062000  0.25798000  1
  N  N569  1  0.89683000  0.56501000  0.25968000  1
  N  N570  1  0.27419000  0.60347000  0.81669000  1
  N  N571  1  0.37108000  0.50715000  0.87259000  1
  N  N572  1  0.41046000  0.31163000  0.88175000  1
  N  N573  1  0.40537000  0.23036000  0.89054000  1
  N  N574  1  0.37296000  0.09625000  0.92495000  1
  N  N575  1  0.53744000  0.89763000  0.92692000  1
  N  N576  1  0.12214000  0.60365000  0.68332000  1
  N  N577  1  0.12171000  0.50731000  0.62742000  1
  N  N578  1  0.27800000  0.31185000  0.61822000  1
  N  N579  1  0.36440000  0.23061000  0.60941000  1
  N  N580  1  0.53091000  0.09645000  0.57496000  1
  N  N581  1  0.56528000  0.89788000  0.57308000  1
  N  N582  1  0.60303000  0.27751000  0.01747000  1
  N  N583  1  0.50851000  0.37050000  0.96091000  1
  N  N584  1  0.31272000  0.40919000  0.95142000  1
  N  N585  1  0.23153000  0.40364000  0.94252000  1
  N  N586  1  0.09667000  0.37119000  0.90838000  1
  N  N587  1  0.89776000  0.53571000  0.90591000  1
  N  N588  1  0.27352000  0.12229000  0.35023000  1
  N  N589  1  0.36933000  0.12205000  0.29403000  1
  N  N590  1  0.40975000  0.27797000  0.28483000  1
  N  N591  1  0.40501000  0.36422000  0.27617000  1
  N  N592  1  0.37326000  0.53062000  0.24200000  1
  N  N593  1  0.53829000  0.56505000  0.24031000  1
  O  O594  1  0.41386000  0.38996000  0.09392000  1
  O  O595  1  0.88523000  0.76359000  0.95593000  1
  O  O596  1  0.19715000  0.41588000  0.75963000  1
  O  O597  1  0.35037000  0.88447000  0.62311000  1
  O  O598  1  0.38857000  0.19627000  0.42681000  1
  O  O599  1  0.76863000  0.35001000  0.29031000  1
  O  O600  1  0.41520000  0.19618000  0.07323000  1
  O  O601  1  0.88156000  0.35001000  0.20969000  1
  O  O602  1  0.19626000  0.39012000  0.40606000  1
  O  O603  1  0.35122000  0.76378000  0.54406000  1
  O  O604  1  0.38693000  0.41596000  0.74037000  1
  O  O605  1  0.76797000  0.88280000  0.87683000  1
  O  O606  1  0.58620000  0.61014000  0.59393000  1
  O  O607  1  0.11478000  0.23649000  0.45593000  1
  O  O608  1  0.80288000  0.58418000  0.25962000  1
  O  O609  1  0.65090000  0.11647000  0.12318000  1
  O  O610  1  0.61163000  0.80379000  0.92682000  1
  O  O611  1  0.23136000  0.64992000  0.79032000  1
  O  O612  1  0.58518000  0.80398000  0.57326000  1
  O  O613  1  0.11833000  0.65010000  0.70970000  1
  O  O614  1  0.80375000  0.60998000  0.90605000  1
  O  O615  1  0.64888000  0.23623000  0.04407000  1
  O  O616  1  0.61307000  0.58424000  0.24037000  1
  O  O617  1  0.23155000  0.11845000  0.37680000  1
