# generated using pymatgen
data_CuH8C12(NO2)2
_symmetry_space_group_name_H-M   'P 1'
_cell_length_a   4.96306000
_cell_length_b   11.21945000
_cell_length_c   12.63780356
_cell_angle_alpha   88.52450777
_cell_angle_beta   78.67595262
_cell_angle_gamma   82.46482000
_symmetry_Int_Tables_number   1
_chemical_formula_structural   CuH8C12(NO2)2
_chemical_formula_sum   'Cu2 H16 C24 N4 O8'
_cell_volume   684.05022285
_cell_formula_units_Z   2
loop_
 _symmetry_equiv_pos_site_id
 _symmetry_equiv_pos_as_xyz
  1  'x, y, z'
loop_
 _atom_site_type_symbol
 _atom_site_label
 _atom_site_symmetry_multiplicity
 _atom_site_fract_x
 _atom_site_fract_y
 _atom_site_fract_z
 _atom_site_occupancy
  C  C1  1  0.91576167  0.01088000  0.37798667  1.0
  C  C2  1  0.95490500  0.94292000  0.46869000  1.0
  C  C3  1  0.12400500  0.97954500  0.53490000  1.0
  C  C4  1  0.24774000  0.08407500  0.50675000  1.0
  C  C5  1  0.20082000  0.14728000  0.41461000  1.0
  C  C6  1  0.18183500  0.90745333  0.63256000  1.0
  C  C7  1  0.59116500  0.40301500  0.13063000  1.0
  C  C8  1  0.50931667  0.48458000  0.05451667  1.0
  C  C9  1  0.68645000  0.49515500  0.95482000  1.0
  C  C10  1  0.94026500  0.42075500  0.93503000  1.0
  C  C11  1  0.00603500  0.33933500  0.01371000  1.0
  C  C12  1  0.60814000  0.58282000  0.86980000  1.0
  C  C13  1  0.29375500  0.51088000  0.62201000  1.0
  C  C14  1  0.42359667  0.44292000  0.53129667  1.0
  C  C15  1  0.65890000  0.47954500  0.46509000  1.0
  C  C16  1  0.75449333  0.58407500  0.49324333  1.0
  C  C17  1  0.61543833  0.64728333  0.58538333  1.0
  C  C18  1  0.81439500  0.40745000  0.36744000  1.0
  C  C19  1  0.72180333  0.90301667  0.86935333  1.0
  C  C20  1  0.56383500  0.98458000  0.94548000  1.0
  C  C21  1  0.64128000  0.99515500  0.04518000  1.0
  C  C22  1  0.87529500  0.92075500  0.06497000  1.0
  C  C23  1  0.01975000  0.83933500  0.98629000  1.0
  C  C24  1  0.47793000  0.08282000  0.13020000  1.0
  Cu  Cu1  1  0.94510000  0.21655000  0.22713000  1.0
  Cu  Cu2  1  0.17223500  0.71655000  0.77287000  1.0
  H  H1  1  0.78211500  0.98806167  0.32495000  1.0
  H  H2  1  0.85335500  0.86292500  0.48837000  1.0
  H  H3  1  0.38258500  0.11356500  0.55635000  1.0
  H  H4  1  0.29933000  0.22692333  0.38823000  1.0
  H  H5  1  0.45814000  0.39372333  0.20898000  1.0
  H  H6  1  0.30811500  0.53906333  0.07296000  1.0
  H  H7  1  0.08597000  0.42751000  0.85947000  1.0
  H  H8  1  0.19777500  0.27805167  0.00126000  1.0
  H  H9  1  0.10706500  0.48806000  0.67505000  1.0
  H  H10  1  0.34172167  0.36292500  0.51162667  1.0
  H  H11  1  0.93894500  0.61356833  0.44364000  1.0
  H  H12  1  0.68756000  0.72692333  0.61177000  1.0
  H  H13  1  0.66712500  0.89372500  0.79102000  1.0
  H  H14  1  0.38107500  0.03906167  0.92703000  1.0
  H  H15  1  0.94544333  0.92751000  0.14052333  1.0
  H  H16  1  0.19904000  0.77805333  0.99873000  1.0
  N  N1  1  0.03691500  0.11102500  0.35137000  1.0
  N  N2  1  0.83653500  0.33129500  0.11054000  1.0
  N  N3  1  0.38829500  0.61102500  0.64863000  1.0
  N  N4  1  0.94708000  0.83129500  0.88946000  1.0
  O  O1  1  0.03756500  0.81876167  0.65671000  1.0
  O  O2  1  0.36158000  0.93436833  0.68108000  1.0
  O  O3  1  0.34737500  0.62228500  0.88399000  1.0
  O  O4  1  0.79308500  0.60928500  0.79339000  1.0
  O  O5  1  0.69427000  0.31876167  0.34329000  1.0
  O  O6  1  0.23136000  0.12228500  0.11601000  1.0
  O  O7  1  0.58646500  0.10928500  0.20661000  1.0
  O  O9  1  0.04266500  0.43436667  0.31891000  1.0
