# generated using pymatgen
data_V2H20C33O13
_symmetry_space_group_name_H-M   'P 1'
_cell_length_a   6.94576000
_cell_length_b   17.66520000
_cell_length_c   19.43764000
_cell_angle_alpha   71.56771000
_cell_angle_beta   89.71463000
_cell_angle_gamma   89.11221000
_symmetry_Int_Tables_number   1
_chemical_formula_structural   V2H20C33O13
_chemical_formula_sum   'V4 H40 C66 O26'
_cell_volume   2262.33908881
_cell_formula_units_Z   2
loop_
 _symmetry_equiv_pos_site_id
 _symmetry_equiv_pos_as_xyz
  1  'x, y, z'
loop_
 _atom_site_type_symbol
 _atom_site_label
 _atom_site_symmetry_multiplicity
 _atom_site_fract_x
 _atom_site_fract_y
 _atom_site_fract_z
 _atom_site_occupancy
  V  V0  1  0.06463000  0.49062000  0.50156000  1
  V  V1  1  0.56406000  0.50938000  0.49844000  1
  V  V2  1  0.67053000  0.00937000  0.99845000  1
  V  V3  1  0.17107000  0.99045000  0.00169000  1
  H  H4  1  0.55710000  0.70512000  0.30286000  1
  H  H5  1  0.57754000  0.80694000  0.18344000  1
  H  H6  1  0.61129000  0.57749000  0.69108000  1
  H  H7  1  0.29107000  0.86689000  0.72379000  1
  H  H8  1  0.14133000  0.90982000  0.81615000  1
  H  H9  1  0.46751000  0.69527000  0.87527000  1
  H  H10  1  0.27555000  0.04858000  0.34757000  1
  H  H11  1  0.24806000  0.12610000  0.42610000  1
  H  H12  1  0.10253000  0.26259000  0.66214000  1
  H  H13  1  0.63293000  0.23741000  0.83828000  1
  H  H14  1  0.60493000  0.71344000  0.97486000  1
  H  H15  1  0.65681000  0.80217000  0.99271000  1
  H  H16  1  0.46082000  0.80231000  0.93176000  1
  H  H17  1  0.47089000  0.53829000  0.80907000  1
  H  H18  1  0.31042000  0.60153000  0.83965000  1
  H  H19  1  0.32879000  0.61526000  0.74452000  1
  H  H20  1  0.25030000  0.21504000  0.99583000  1
  H  H21  1  0.22489000  0.30804000  0.00876000  1
  H  H22  1  0.46154000  0.27385000  0.98722000  1
  H  H23  1  0.48824000  0.99298000  0.28160000  1
  H  H24  1  0.23855000  0.98454000  0.25809000  1
  H  H25  1  0.43229000  0.97915000  0.19800000  1
  H  H26  1  0.25291000  0.28621000  0.50636000  1
  H  H27  1  0.10324000  0.22229000  0.47556000  1
  H  H28  1  0.35411000  0.19684000  0.49856000  1
  H  H29  1  0.64694000  0.48021000  0.23021000  1
  H  H30  1  0.47278000  0.52715000  0.27461000  1
  H  H31  1  0.66893000  0.46415000  0.32255000  1
  H  H32  1  0.28092000  0.51637000  0.16417000  1
  H  H33  1  0.61371000  0.37282000  0.02526000  1
  H  H34  1  0.06365000  0.09761000  0.73759000  1
  H  H35  1  0.60194000  0.43036000  0.71401000  1
  H  H36  1  0.76048000  0.35867000  0.77377000  1
  H  H37  1  0.76282000  0.36869000  0.67931000  1
  H  H38  1  0.28532000  0.86842000  0.17502000  1
  H  H39  1  0.16259000  0.58902000  0.29453000  1
  H  H40  1  0.31256000  0.66825000  0.24607000  1
  H  H41  1  0.28288000  0.64687000  0.34340000  1
  H  H42  1  0.11055000  0.69663000  0.51145000  1
  H  H43  1  0.38319000  0.73324000  0.61405000  1
  C  C44  1  0.35044000  0.41637000  0.41737000  1
  C  C45  1  0.34621000  0.38437000  0.61601000  1
  C  C46  1  0.83966000  0.58696000  0.57995000  1
  C  C47  1  0.84481000  0.61461000  0.38322000  1
  C  C48  1  0.69501000  0.72194000  0.27887000  1
  C  C49  1  0.70746000  0.78300000  0.21244000  1
  C  C50  1  0.88552000  0.81564000  0.18523000  1
  C  C51  1  0.05218000  0.78098000  0.22540000  1
  C  C52  1  0.03883000  0.70584000  0.27928000  1
  C  C53  1  0.85960000  0.68115000  0.31311000  1
  C  C54  1  0.71717000  0.62329000  0.68553000  1
  C  C55  1  0.84862000  0.63737000  0.62830000  1
  C  C56  1  0.98384000  0.69924000  0.61757000  1
  C  C57  1  0.00857000  0.73635000  0.67249000  1
  C  C58  1  0.86675000  0.72400000  0.72815000  1
  C  C59  1  0.71837000  0.66814000  0.73382000  1
  C  C60  1  0.16982000  0.78489000  0.67445000  1
  C  C61  1  0.17023000  0.82891000  0.72320000  1
  C  C62  1  0.02310000  0.82163000  0.77397000  1
  C  C63  1  0.87319000  0.76766000  0.77824000  1
  C  C64  1  0.73097000  0.75700000  0.83288000  1
  C  C65  1  0.58183000  0.70293000  0.83579000  1
  C  C66  1  0.57513000  0.65793000  0.78804000  1
  C  C67  1  0.02783000  0.86679000  0.82156000  1
  C  C68  1  0.88730000  0.85828000  0.87538000  1
  C  C69  1  0.74211000  0.79996000  0.88382000  1
  C  C70  1  0.36917000  0.22038000  0.09898000  1
  C  C71  1  0.37353000  0.13606000  0.12873000  1
  C  C72  1  0.36496000  0.09920000  0.20442000  1
  C  C73  1  0.34082000  0.14700000  0.25011000  1
  C  C74  1  0.36085000  0.23107000  0.22195000  1
  C  C75  1  0.38619000  0.26848000  0.14610000  1
  C  C76  1  0.29946000  0.11191000  0.32413000  1
  C  C77  1  0.28318000  0.15744000  0.37020000  1
  C  C78  1  0.31636000  0.23989000  0.34534000  1
  C  C79  1  0.35796000  0.27701000  0.27057000  1
  C  C80  1  0.39823000  0.35938000  0.24492000  1
  C  C81  1  0.40977000  0.39818000  0.16887000  1
  C  C82  1  0.41806000  0.35262000  0.12037000  1
  C  C83  1  0.30697000  0.28564000  0.39368000  1
  C  C84  1  0.36244000  0.36647000  0.36869000  1
  C  C85  1  0.42999000  0.39999000  0.29672000  1
  C  C86  1  0.21817000  0.25793000  0.70065000  1
  C  C87  1  0.22232000  0.19279000  0.76466000  1
  C  C88  1  0.37442000  0.18437000  0.81536000  1
  C  C89  1  0.51725000  0.24274000  0.79973000  1
  C  C90  1  0.51237000  0.30862000  0.73591000  1
  C  C91  1  0.36044000  0.31647000  0.68511000  1
  C  C92  1  0.38908000  0.11593000  0.88406000  1
  C  C93  1  0.38479000  0.08601000  0.08037000  1
  C  C94  1  0.89180000  0.88445000  0.11645000  1
  C  C95  1  0.89538000  0.91192000  0.92099000  1
  C  C96  1  0.60839000  0.77917000  0.94901000  1
  C  C97  1  0.41214000  0.60006000  0.79579000  1
  C  C98  1  0.32622000  0.25659000  0.01842000  1
  C  C99  1  0.38100000  0.00907000  0.23693000  1
  C  C100  1  0.25104000  0.24618000  0.47265000  1
  C  C101  1  0.55900000  0.47238000  0.27958000  1
  C  C102  1  0.38707000  0.48676000  0.13997000  1
  C  C103  1  0.48169000  0.39261000  0.04477000  1
  C  C104  1  0.06931000  0.13336000  0.77378000  1
  C  C105  1  0.66788000  0.37007000  0.72501000  1
  C  C106  1  0.22865000  0.82734000  0.22408000  1
  C  C107  1  0.20989000  0.64959000  0.29211000  1
  C  C108  1  0.06804000  0.73398000  0.54379000  1
  C  C109  1  0.35044000  0.78318000  0.63346000  1
  O  O110  1  0.50567000  0.41571000  0.58628000  1
  O  O111  1  0.18064000  0.43007000  0.43979000  1
  O  O112  1  0.00568000  0.58429000  0.41372000  1
  O  O113  1  0.17626000  0.40629000  0.58733000  1
  O  O114  1  0.00127000  0.56034000  0.56231000  1
  O  O115  1  0.51008000  0.43966000  0.43769000  1
  O  O116  1  0.33767000  0.55057000  0.49162000  1
  O  O117  1  0.67128000  0.56993000  0.56021000  1
  O  O118  1  0.67566000  0.59371000  0.41267000  1
  O  O119  1  0.84089000  0.44943000  0.50838000  1
  O  O120  1  0.22506000  0.06047000  0.06220000  1
  O  O121  1  0.55912000  0.09373000  0.91265000  1
  O  O122  1  0.73387000  0.93963000  0.93772000  1
  O  O123  1  0.55452000  0.06996000  0.06018000  1
  O  O124  1  0.72923000  0.91569000  0.08631000  1
  O  O125  1  0.22970000  0.08441000  0.91362000  1
  O  O126  1  0.39740000  0.94951000  0.00833000  1
  O  O127  1  0.05924000  0.90616000  0.08744000  1
  O  O128  1  0.06385000  0.92993000  0.93990000  1
  O  O129  1  0.89433000  0.05049000  0.99168000  1
  O  O130  1  0.49246000  0.52741000  0.09260000  1
  O  O131  1  0.38431000  0.44566000  0.00337000  1
  O  O132  1  0.94218000  0.12746000  0.81865000  1
  O  O133  1  0.31210000  0.82139000  0.28075000  1
  O  O134  1  0.08213000  0.80618000  0.51674000  1
  O  O135  1  0.46745000  0.83666000  0.62237000  1
