# generated using pymatgen
data_H3C8N3O2
_symmetry_space_group_name_H-M   'P 1'
_cell_length_a   9.88266667
_cell_length_b   51.82210000
_cell_length_c   51.82210000
_cell_angle_alpha   90.00000000
_cell_angle_beta   90.00000000
_cell_angle_gamma   90.00000000
_symmetry_Int_Tables_number   1
_chemical_formula_structural   H3C8N3O2
_chemical_formula_sum   'H126 C336 N126 O84'
_cell_volume   26540.19829175
_cell_formula_units_Z   42
loop_
 _symmetry_equiv_pos_site_id
 _symmetry_equiv_pos_as_xyz
  1  'x, y, z'
loop_
 _atom_site_type_symbol
 _atom_site_label
 _atom_site_symmetry_multiplicity
 _atom_site_fract_x
 _atom_site_fract_y
 _atom_site_fract_z
 _atom_site_occupancy
  C  1  1  0.00372200  0.09227600  0.05883800  1
  C  2  1  0.98941400  0.06621200  0.06603800  1
  C  3  1  0.99528300  0.05867500  0.09212800  1
  C  4  1  0.02008700  0.07740700  0.11116400  1
  C  5  1  0.03661500  0.10360600  0.10424900  1
  C  6  1  0.02876900  0.11088600  0.07798700  1
  C  10  1  0.00394000  0.91956400  0.95318700  1
  C  11  1  0.98955500  0.94562400  0.94597400  1
  C  12  1  0.99526900  0.95314400  0.91987900  1
  C  13  1  0.02015200  0.93440900  0.90084800  1
  C  14  1  0.03656900  0.90820800  0.90777200  1
  C  15  1  0.02889500  0.90094600  0.93404200  1
  C  19  1  0.00379200  0.95307700  0.09240100  1
  C  20  1  0.98950600  0.94589100  0.06633200  1
  C  21  1  0.99527800  0.91980300  0.05878400  1
  C  22  1  0.02013100  0.90075300  0.07750300  1
  C  23  1  0.03642200  0.90765400  0.10371200  1
  C  24  1  0.02869200  0.93391500  0.11100300  1
  C  28  1  0.00399000  0.05871600  0.91968800  1
  C  29  1  0.98949600  0.06593300  0.94574400  1
  C  30  1  0.99532400  0.09202900  0.95326400  1
  C  31  1  0.02026200  0.11105500  0.93452500  1
  C  32  1  0.03676700  0.10412100  0.90833100  1
  C  33  1  0.02902600  0.07785500  0.90107000  1
  C  37  1  0.03372200  0.18045300  0.17981300  1
  C  38  1  0.02428500  0.20679000  0.17331500  1
  C  39  1  0.02069800  0.22604100  0.19249400  1
  C  40  1  0.02581900  0.21839700  0.21875600  1
  C  41  1  0.03514400  0.19198600  0.22581500  1
  C  42  1  0.04060700  0.17331200  0.20603000  1
  C  46  1  0.03371100  0.83125200  0.83231200  1
  C  47  1  0.02418400  0.80492200  0.83883600  1
  C  48  1  0.02064300  0.78564800  0.81967800  1
  C  49  1  0.02607100  0.79325700  0.79341100  1
  C  50  1  0.03554300  0.81966100  0.78632300  1
  C  51  1  0.04086400  0.83835700  0.80608700  1
  C  55  1  0.03448000  0.83214000  0.18062000  1
  C  56  1  0.02530600  0.83867400  0.20695200  1
  C  57  1  0.02222100  0.81952200  0.22623400  1
  C  58  1  0.02758400  0.79325100  0.21862900  1
  C  59  1  0.03672100  0.78615600  0.19222400  1
  C  60  1  0.04168000  0.80591600  0.17351900  1
  C  64  1  0.03310900  0.17964300  0.83145300  1
  C  65  1  0.02347700  0.17314600  0.80511900  1
  C  66  1  0.01958000  0.19232600  0.78587200  1
  C  67  1  0.02465500  0.21858800  0.79351000  1
  C  68  1  0.03423700  0.22564300  0.81991900  1
  C  69  1  0.03988900  0.20586000  0.83859100  1
  C  73  1  0.02118400  0.45102600  0.00614400  1
  C  74  1  0.02352100  0.43728500  0.98259700  1
  C  75  1  0.02438100  0.40990300  0.98137200  1
  C  76  1  0.01969700  0.39630000  0.00532900  1
  C  77  1  0.01470200  0.40924500  0.02962600  1
  C  78  1  0.01663900  0.43661300  0.02923200  1
  C  82  1  0.01199400  0.56078100  0.00611900  1
  C  83  1  0.02005100  0.57448100  0.02968100  1
  C  84  1  0.02299500  0.60186500  0.03101800  1
  C  85  1  0.01780900  0.61561800  0.00715600  1
  C  86  1  0.01201100  0.60280300  0.98282300  1
  C  87  1  0.01185400  0.57545200  0.98316000  1
  C  91  1  0.02127000  0.00583000  0.45127300  1
  C  92  1  0.02358700  0.02937300  0.43752400  1
  C  93  1  0.02445200  0.03058900  0.41014200  1
  C  94  1  0.01978300  0.00662600  0.39654900  1
  C  95  1  0.01478700  0.98233300  0.40950100  1
  C  96  1  0.01673000  0.98273600  0.43687000  1
  C  100  1  0.01209200  0.00584400  0.56102900  1
  C  101  1  0.02021200  0.98227500  0.57471700  1
  C  102  1  0.02297500  0.98092400  0.60210100  1
  C  103  1  0.01769400  0.00477700  0.61586500  1
  C  104  1  0.01188600  0.02911600  0.60306600  1
  C  105  1  0.01185800  0.02879400  0.57571400  1
  C  109  1  0.02474500  0.28196700  0.41646000  1
  C  110  1  0.03701900  0.30296900  0.39907100  1
  C  111  1  0.02893000  0.32914900  0.40719100  1
  C  112  1  0.01628200  0.33381500  0.43413400  1
  C  113  1  0.00633800  0.31337000  0.45225000  1
  C  114  1  0.00769900  0.28769000  0.44289100  1
  C  118  1  0.02641100  0.72952300  0.59576200  1
  C  119  1  0.03838500  0.70853800  0.61317700  1
  C  120  1  0.02987500  0.68235200  0.60509000  1
  C  121  1  0.01708700  0.67766500  0.57815300  1
  C  122  1  0.00736600  0.69809500  0.56001400  1
  C  123  1  0.00916200  0.72378300  0.56934100  1
  C  127  1  0.02650600  0.59545100  0.28236600  1
  C  128  1  0.03857800  0.61284100  0.30336900  1
  C  129  1  0.03015800  0.60472700  0.32954700  1
  C  130  1  0.01734000  0.57778900  0.33421100  1
  C  131  1  0.00753200  0.55967300  0.31376400  1
  C  132  1  0.00923700  0.56902400  0.28808600  1
  C  136  1  0.02447400  0.41611000  0.72992900  1
  C  137  1  0.03658000  0.39871100  0.70893600  1
  C  138  1  0.02857000  0.40682300  0.68275000  1
  C  139  1  0.01607900  0.43376900  0.67807800  1
  C  140  1  0.00624700  0.45189400  0.69851700  1
  C  141  1  0.00769400  0.44254300  0.72419900  1
  C  145  1  0.01842200  0.73177700  0.41563800  1
  C  146  1  0.01786600  0.71103500  0.39789600  1
  C  147  1  0.02678900  0.68483200  0.40587300  1
  C  148  1  0.02059700  0.67991100  0.43289500  1
  C  149  1  0.01251300  0.70020400  0.45127900  1
  C  150  1  0.01919000  0.72593600  0.44217300  1
  C  154  1  0.01701300  0.27975700  0.59663000  1
  C  155  1  0.01627500  0.30048200  0.61438900  1
  C  156  1  0.02514500  0.32669100  0.60642900  1
  C  157  1  0.01901200  0.33162700  0.57940600  1
  C  158  1  0.01099300  0.31134400  0.56100800  1
  C  159  1  0.01784500  0.28561000  0.57010100  1
  C  163  1  0.01850800  0.41530000  0.28018200  1
  C  164  1  0.01765700  0.39754500  0.30090700  1
  C  165  1  0.02642600  0.40551100  0.32711600  1
  C  166  1  0.02023200  0.43253200  0.33204800  1
  C  167  1  0.01233200  0.45092600  0.31175900  1
  C  168  1  0.01931300  0.44183100  0.28602900  1
  C  172  1  0.01701000  0.59627700  0.73218400  1
  C  173  1  0.01658500  0.61403200  0.71145400  1
  C  174  1  0.02562600  0.60606800  0.68524900  1
  C  175  1  0.01928600  0.57904700  0.68031300  1
  C  176  1  0.01099300  0.56065100  0.70059400  1
  C  177  1  0.01766400  0.56974800  0.72633000  1
  C  181  1  0.01231800  0.16234600  0.33016400  1
  C  182  1  0.02655100  0.18397700  0.34636400  1
  C  183  1  0.04114400  0.18184900  0.37329300  1
  C  184  1  0.03647900  0.15672300  0.38415100  1
  C  185  1  0.03066000  0.13386900  0.36869000  1
  C  186  1  0.01914400  0.13749700  0.34150100  1
  C  190  1  0.01517900  0.84912300  0.68189500  1
  C  191  1  0.02958200  0.82751100  0.66568000  1
  C  192  1  0.04417300  0.82967400  0.63875300  1
  C  193  1  0.03939200  0.85480600  0.62791000  1
  C  194  1  0.03319600  0.87763800  0.64339400  1
  C  195  1  0.02172000  0.87398300  0.67057900  1
  C  199  1  0.01569800  0.68171900  0.16279500  1
  C  200  1  0.02991600  0.66549800  0.18440900  1
  C  201  1  0.04422400  0.63856600  0.18225300  1
  C  202  1  0.03946400  0.62772500  0.15712100  1
  C  203  1  0.03337700  0.64320700  0.13428700  1
  C  204  1  0.02202800  0.67039400  0.13793600  1
  C  208  1  0.01223400  0.32997500  0.84960200  1
  C  209  1  0.02627900  0.34617300  0.82796800  1
  C  210  1  0.04085500  0.37310000  0.83010000  1
  C  211  1  0.03636700  0.38395800  0.85522800  1
  C  212  1  0.03049800  0.36849600  0.87808000  1
  C  213  1  0.01893200  0.34130800  0.87445000  1
  C  217  1  0.03237500  0.85027700  0.33018600  1
  C  218  1  0.01746900  0.82894400  0.34674000  1
  C  219  1  0.00310600  0.83168400  0.37360300  1
  C  220  1  0.00645900  0.85696300  0.38401000  1
  C  221  1  0.01183200  0.87944800  0.36806300  1
  C  222  1  0.02501800  0.87535700  0.34098800  1
  C  226  1  0.02960300  0.16145800  0.68194900  1
  C  227  1  0.01477100  0.18271200  0.66528800  1
  C  228  1  0.00104600  0.17983700  0.63842900  1
  C  229  1  0.00443100  0.15451100  0.62813800  1
  C  230  1  0.00958100  0.13210900  0.64420100  1
  C  231  1  0.02243300  0.13632500  0.67126000  1
  C  235  1  0.03183800  0.33001200  0.16176500  1
  C  236  1  0.01688900  0.34661900  0.18306000  1
  C  237  1  0.00328700  0.37348600  0.18025100  1
  C  238  1  0.00677500  0.38384000  0.15495500  1
  C  239  1  0.01178800  0.36784000  0.13251200  1
  C  240  1  0.02458300  0.34076400  0.13665900  1
  C  244  1  0.03036800  0.68171500  0.85051200  1
  C  245  1  0.01541100  0.66508200  0.82924000  1
  C  246  1  0.00124900  0.63822600  0.83208400  1
  C  247  1  0.00451200  0.62791200  0.85740300  1
  C  248  1  0.00982400  0.64395000  0.87982400  1
  C  249  1  0.02292600  0.67100800  0.87563300  1
  C  253  1  0.04480600  0.12277000  0.12340600  1
  C  255  1  0.95274500  0.16259300  0.13838500  1
  C  256  1  0.03611500  0.16143500  0.16041900  1
  C  258  1  0.12973300  0.12145900  0.14536600  1
  C  263  1  0.04456900  0.88903600  0.88862000  1
  C  265  1  0.95268400  0.84917100  0.87371700  1
  C  266  1  0.03602700  0.85030200  0.85167800  1
  C  268  1  0.12943500  0.89032700  0.86665000  1
  C  273  1  0.04455900  0.88847700  0.12285700  1
  C  275  1  0.95296700  0.87352200  0.16272900  1
  C  276  1  0.03645700  0.85150600  0.16156900  1
  C  278  1  0.12957100  0.86652700  0.12153700  1
  C  283  1  0.04478200  0.12327300  0.88916200  1
  C  285  1  0.95256100  0.13819600  0.84933100  1
  C  286  1  0.03575600  0.16025300  0.85047200  1
  C  288  1  0.12956500  0.14525400  0.89045300  1
  C  293  1  0.97852700  0.09839300  0.97942300  1
  C  295  1  0.09551500  0.10957500  0.01813800  1
  C  296  1  0.98920700  0.09888500  0.03273600  1
  C  298  1  0.86645800  0.08939600  0.99393400  1
  C  303  1  0.97884500  0.91348200  0.03260300  1
  C  305  1  0.09591100  0.90229700  0.99390900  1
  C  306  1  0.98958600  0.91294900  0.97929300  1
  C  308  1  0.86687300  0.92251300  0.01807800  1
  C  313  1  0.97892100  0.03249800  0.09845800  1
  C  315  1  0.09584000  0.99378700  0.10967100  1
  C  316  1  0.98945600  0.97918000  0.09903400  1
  C  318  1  0.86684200  0.01797600  0.08946500  1
  C  323  1  0.97851600  0.97930700  0.91352200  1
  C  325  1  0.09556800  0.01800800  0.90229700  1
  C  326  1  0.98949600  0.03261600  0.91306300  1
  C  328  1  0.86656400  0.99383000  0.92255100  1
  C  333  1  0.00226500  0.16701800  0.30313700  1
  C  335  1  0.11454900  0.16424700  0.26230500  1
  C  336  1  0.03003200  0.18366200  0.25192000  1
  C  338  1  0.91276100  0.18573500  0.29252000  1
  C  343  1  0.00514800  0.84442800  0.70891400  1
  C  345  1  0.11617800  0.84728200  0.74984900  1
  C  346  1  0.03106000  0.82794500  0.76020300  1
  C  348  1  0.91509700  0.82578900  0.71948100  1
  C  353  1  0.00564600  0.70874600  0.16747500  1
  C  355  1  0.11678700  0.74966900  0.16454800  1
  C  356  1  0.03211300  0.76003300  0.18395100  1
  C  358  1  0.91593700  0.71932900  0.18617300  1
  C  363  1  0.00201700  0.30295600  0.84493900  1
  C  365  1  0.11421500  0.26210800  0.84762000  1
  C  366  1  0.02935900  0.25174400  0.82824800  1
  C  368  1  0.91218800  0.29235400  0.82627400  1
  C  373  1  0.04391000  0.84509400  0.30333000  1
  C  375  1  0.93285100  0.84633500  0.26234400  1
  C  376  1  0.02187300  0.82741400  0.25242700  1
  C  378  1  0.13688600  0.82678300  0.29318400  1
  C  383  1  0.04056200  0.16676500  0.70878900  1
  C  385  1  0.92989700  0.16549700  0.74980000  1
  C  386  1  0.01876600  0.18446700  0.75967100  1
  C  388  1  0.13349000  0.18511600  0.71888700  1
  C  393  1  0.04259400  0.30315500  0.16702200  1
  C  395  1  0.93166600  0.26216800  0.16565700  1
  C  396  1  0.02036300  0.25224400  0.18462900  1
  C  398  1  0.13529900  0.29300300  0.18538500  1
  C  403  1  0.04165400  0.70855900  0.84523100  1
  C  405  1  0.93111400  0.74957700  0.84653100  1
  C  406  1  0.02000000  0.75945300  0.82756500  1
  C  408  1  0.13467100  0.71865700  0.82690700  1
  C  413  1  0.00559900  0.37810300  0.10648800  1
  C  415  1  0.07689700  0.37394100  0.06171300  1
  C  416  1  0.00777000  0.39667300  0.05447700  1
  C  418  1  0.93024000  0.40023300  0.09896700  1
  C  423  1  0.00372300  0.63375300  0.90587500  1
  C  425  1  0.07528000  0.63803300  0.95064000  1
  C  426  1  0.00585900  0.61536500  0.95795300  1
  C  428  1  0.92811600  0.61168400  0.91347200  1
  C  433  1  0.00574100  0.90546000  0.37836600  1
  C  435  1  0.07707100  0.95023800  0.37421300  1
  C  436  1  0.00790100  0.95747500  0.39693700  1
  C  438  1  0.93051400  0.91297400  0.40051500  1
  C  443  1  0.00344900  0.10605300  0.63402300  1
  C  445  1  0.07495500  0.06128700  0.63831500  1
  C  446  1  0.00551400  0.05397100  0.61564900  1
  C  448  1  0.92780200  0.09845200  0.61195900  1
  C  453  1  0.03648400  0.63249900  0.10833600  1
  C  455  1  0.96638500  0.63717800  0.06349200  1
  C  456  1  0.02994600  0.61387000  0.05620300  1
  C  458  1  0.10564400  0.60962500  0.10079800  1
  C  463  1  0.03436400  0.37920300  0.90403200  1
  C  465  1  0.96601100  0.37453200  0.94899400  1
  C  466  1  0.02996800  0.39782700  0.95619700  1
  C  468  1  0.10367200  0.40208900  0.91146500  1
  C  473  1  0.03446500  0.10792100  0.37940800  1
  C  475  1  0.96615700  0.06295500  0.37474800  1
  C  476  1  0.03004900  0.05575900  0.39805300  1
  C  478  1  0.10373800  0.10049500  0.40230200  1
  C  483  1  0.03634700  0.90359000  0.63269600  1
  C  485  1  0.96626800  0.94843400  0.63739500  1
  C  486  1  0.02993700  0.95573600  0.61410000  1
  C  488  1  0.10556300  0.91113900  0.60983100  1
  C  493  1  0.00910500  0.53308000  0.00554300  1
  C  495  1  0.09283600  0.49371400  0.02441300  1
  C  496  1  0.01992500  0.47860100  0.00649600  1
  C  498  1  0.93257700  0.51795700  0.98788000  1
  C  503  1  0.00923800  0.00643200  0.53332700  1
  C  505  1  0.09307800  0.98758300  0.49396100  1
  C  506  1  0.02006600  0.00548700  0.47885000  1
  C  508  1  0.93267000  0.02409000  0.51820600  1
  C  513  1  0.05450600  0.20539900  0.38758400  1
  C  515  1  0.94709900  0.23565400  0.41611600  1
  C  516  1  0.03328000  0.25580000  0.40777200  1
  C  518  1  0.14698900  0.22515900  0.38017200  1
  C  523  1  0.05764600  0.80614700  0.62444600  1
  C  525  1  0.94931900  0.77585500  0.59605500  1
  C  526  1  0.03542600  0.75569800  0.60439700  1
  C  528  1  0.15003500  0.78636000  0.63182600  1
  C  533  1  0.05765100  0.62425000  0.20577700  1
  C  535  1  0.94938500  0.59581000  0.23603500  1
  C  536  1  0.03549200  0.60411900  0.25620200  1
  C  538  1  0.14997100  0.63161900  0.22558200  1
  C  543  1  0.05428100  0.38738700  0.80655400  1
  C  545  1  0.94661200  0.41580400  0.77621800  1
  C  546  1  0.03296300  0.40745400  0.75610300  1
  C  548  1  0.14686900  0.37996900  0.78681200  1
  C  553  1  0.98945600  0.80852100  0.38830600  1
  C  555  1  0.10358000  0.77725000  0.41461100  1
  C  556  1  0.01053300  0.75789700  0.40726900  1
  C  558  1  0.89056000  0.78953100  0.38203000  1
  C  563  1  0.98744200  0.20293900  0.62363800  1
  C  565  1  0.10346600  0.23440200  0.59788400  1
  C  566  1  0.00908700  0.25362600  0.60494300  1
  C  568  1  0.88729600  0.22178200  0.62958700  1
  C  573  1  0.98947100  0.38823000  0.20337100  1
  C  575  1  0.10520900  0.41402600  0.23484800  1
  C  576  1  0.01076000  0.40697000  0.25405600  1
  C  578  1  0.88941800  0.38224500  0.22222000  1
  C  583  1  0.98770900  0.62345300  0.80896200  1
  C  585  1  0.10296800  0.59747000  0.77758800  1
  C  586  1  0.00908100  0.60461900  0.75831000  1
  C  588  1  0.88806600  0.62953300  0.79005700  1
  C  593  1  0.99499500  0.31555500  0.53386000  1
  C  595  1  0.09036700  0.33166000  0.49423200  1
  C  596  1  0.99636500  0.31738400  0.47944800  1
  C  598  1  0.89534600  0.30240600  0.51910100  1
  C  603  1  0.99637600  0.69598500  0.47842000  1
  C  605  1  0.09137800  0.67979000  0.51804800  1
  C  606  1  0.99732200  0.69406700  0.53281900  1
  C  608  1  0.89649400  0.70907800  0.49316500  1
  C  613  1  0.99620400  0.47807100  0.31596200  1
  C  615  1  0.09132700  0.51770800  0.33210600  1
  C  616  1  0.99754000  0.53246800  0.31775500  1
  C  618  1  0.89651800  0.49281300  0.30281100  1
  C  623  1  0.99490900  0.53351000  0.69635800  1
  C  625  1  0.09030400  0.49388000  0.68023000  1
  C  626  1  0.99638700  0.47910100  0.69452700  1
  C  628  1  0.89533000  0.51873700  0.70951300  1
  C  633  1  0.03523900  0.38668300  0.34763800  1
  C  635  1  0.96183600  0.37326400  0.39013700  1
  C  636  1  0.03306300  0.34963700  0.38834800  1
  C  638  1  0.11217100  0.36350700  0.34621900  1
  C  643  1  0.03489500  0.62488400  0.66472300  1
  C  645  1  0.96243800  0.63825500  0.62214400  1
  C  646  1  0.03370100  0.66188000  0.62395400  1
  C  648  1  0.11191300  0.64804600  0.66616400  1
  C  653  1  0.03589600  0.66430200  0.38706100  1
  C  655  1  0.96286800  0.62177400  0.37365400  1
  C  656  1  0.03413600  0.62357600  0.35003000  1
  C  658  1  0.11293700  0.66572800  0.36390100  1
  C  663  1  0.03417700  0.34721700  0.62525300  1
  C  665  1  0.96135500  0.38976800  0.63863900  1
  C  666  1  0.03255200  0.38796800  0.66227000  1
  C  668  1  0.11106400  0.34578100  0.64843400  1
  H  7  1  0.01870600  0.07203300  0.13017600  1
  H  8  1  0.03703600  0.12990700  0.07280600  1
  H  9  1  0.97476300  0.05248400  0.05204800  1
  H  16  1  0.01826500  0.93975800  0.88183300  1
  H  17  1  0.03716200  0.88192800  0.93922900  1
  H  18  1  0.97487900  0.95935800  0.95995600  1
  H  25  1  0.01835000  0.88174400  0.07213000  1
  H  26  1  0.03692800  0.93908300  0.13002700  1
  H  27  1  0.97493500  0.95988900  0.05260900  1
  H  34  1  0.01854300  0.13007000  0.93988200  1
  H  35  1  0.03738500  0.07266400  0.88205300  1
  H  36  1  0.97472300  0.05195300  0.95947800  1
  H  43  1  0.02254900  0.23221200  0.23286600  1
  H  44  1  0.04252900  0.15411200  0.21076400  1
  H  45  1  0.02586000  0.21208700  0.15426300  1
  H  52  1  0.02293100  0.77942900  0.77931500  1
  H  53  1  0.04292900  0.85755000  0.80132700  1
  H  54  1  0.02545400  0.79964800  0.85789500  1
  H  61  1  0.02468500  0.77916000  0.23246500  1
  H  62  1  0.04348600  0.80115100  0.15432600  1
  H  63  1  0.02655600  0.85773500  0.21222000  1
  H  70  1  0.02120000  0.23270000  0.77969900  1
  H  71  1  0.04214000  0.21059800  0.85778900  1
  H  72  1  0.02494900  0.15409400  0.79981800  1
  H  79  1  0.01945300  0.37658100  0.00509500  1
  H  80  1  0.01337400  0.44651400  0.04631800  1
  H  81  1  0.02534800  0.44771900  0.96581500  1
  H  88  1  0.01900900  0.63533400  0.00746900  1
  H  89  1  0.01685800  0.56579000  0.96598600  1
  H  90  1  0.01941200  0.56405100  0.04646500  1
  H  97  1  0.01952900  0.00685100  0.37683000  1
  H  98  1  0.01347800  0.96565400  0.44677900  1
  H  99  1  0.02543900  0.04615900  0.44795200  1
  H  106  1  0.01877000  0.00445300  0.63558300  1
  H  107  1  0.01675700  0.04597500  0.56606000  1
  H  108  1  0.01951300  0.96549600  0.56428100  1
  H  115  1  0.01402800  0.35240000  0.44076000  1
  H  116  1  0.00362700  0.27272000  0.45578700  1
  H  117  1  0.04583300  0.29896700  0.37979400  1
  H  124  1  0.01456500  0.65907500  0.57154200  1
  H  125  1  0.00528000  0.73873900  0.55642700  1
  H  126  1  0.04742600  0.71256700  0.63244300  1
  H  133  1  0.01487800  0.57116200  0.35279600  1
  H  134  1  0.00529600  0.55612600  0.27311300  1
  H  135  1  0.04763500  0.63211300  0.29935900  1
  H  142  1  0.01383200  0.44039200  0.65949100  1
  H  143  1  0.00360600  0.45544700  0.73916400  1
  H  144  1  0.04536800  0.37943500  0.71294900  1
  H  151  1  0.02027400  0.66124400  0.43933000  1
  H  152  1  0.01769800  0.74087200  0.45511900  1
  H  153  1  0.01193000  0.71530500  0.37866900  1
  H  160  1  0.01859000  0.35029700  0.57298000  1
  H  161  1  0.01657800  0.27067600  0.55714900  1
  H  162  1  0.01023400  0.29618900  0.63360900  1
  H  169  1  0.01967100  0.43896000  0.35071600  1
  H  170  1  0.01805700  0.45478100  0.27109100  1
  H  171  1  0.01168600  0.37832300  0.29661700  1
  H  178  1  0.01901800  0.57262100  0.66164500  1
  H  179  1  0.01631200  0.55679800  0.74126500  1
  H  180  1  0.01074400  0.63325700  0.71574200  1
  H  187  1  0.03840700  0.15534200  0.40377200  1
  H  188  1  0.01402500  0.12178700  0.32958000  1
  H  189  1  0.02642000  0.20201200  0.33822100  1
  H  196  1  0.04139100  0.85621300  0.60829100  1
  H  197  1  0.01635900  0.88968100  0.68251400  1
  H  198  1  0.02954700  0.80947000  0.67381000  1
  H  205  1  0.04134500  0.60810400  0.15571400  1
  H  206  1  0.01670600  0.68232500  0.12223500  1
  H  207  1  0.02996600  0.67363000  0.20244900  1
  H  214  1  0.03834000  0.40357900  0.85661000  1
  H  215  1  0.01383900  0.32938500  0.89016000  1
  H  216  1  0.02608200  0.33803000  0.80993300  1
  H  223  1  0.00358200  0.85875600  0.40360600  1
  H  224  1  0.03028700  0.89086000  0.32879800  1
  H  225  1  0.01664300  0.81074200  0.33896400  1
  H  232  1  0.00163900  0.15262000  0.60855200  1
  H  233  1  0.02751300  0.12087700  0.68352400  1
  H  234  1  0.01352200  0.20095100  0.67297600  1
  H  241  1  0.00410800  0.40343400  0.15312000  1
  H  242  1  0.02960200  0.32854200  0.12117900  1
  H  243  1  0.01553300  0.33888900  0.20128100  1
  H  250  1  0.00157700  0.60832400  0.85927300  1
  H  251  1  0.02811400  0.68325500  0.89109200  1
  H  252  1  0.01444000  0.67279100  0.81100800  1
  H  259  1  0.88446300  0.17712100  0.13556900  1
  H  269  1  0.88462500  0.83461400  0.87658400  1
  H  279  1  0.88499000  0.87636600  0.17730400  1
  H  289  1  0.88417000  0.13536500  0.83482400  1
  H  299  1  0.18391300  0.11538400  0.02655600  1
  H  309  1  0.18398000  0.89635400  0.98545700  1
  H  319  1  0.18390400  0.98532900  0.11560900  1
  H  329  1  0.18404500  0.02644200  0.89655800  1
  H  339  1  0.19083500  0.15623600  0.25168800  1
  H  349  1  0.19208400  0.85532300  0.76054500  1
  H  359  1  0.19256900  0.76035600  0.15645300  1
  H  369  1  0.19072300  0.25148600  0.85554900  1
  H  379  1  0.85634300  0.85377900  0.25137000  1
  H  389  1  0.85379300  0.15798100  0.76082700  1
  H  399  1  0.85550400  0.25117700  0.15811100  1
  H  409  1  0.85477500  0.76058200  0.85399300  1
  H  419  1  0.13507000  0.36406900  0.04877000  1
  H  429  1  0.13332500  0.64794800  0.96356800  1
  H  439  1  0.13499900  0.96319800  0.36431200  1
  H  449  1  0.13340200  0.04838100  0.64817600  1
  H  459  1  0.91136900  0.64767600  0.05054300  1
  H  469  1  0.91175900  0.36401100  0.96204200  1
  H  479  1  0.91194500  0.04990100  0.36422700  1
  H  489  1  0.91108100  0.96137400  0.64787100  1
  H  499  1  0.15433100  0.48548600  0.03794300  1
  H  509  1  0.15450300  0.97404500  0.48572900  1
  H  519  1  0.87037900  0.23908500  0.42886600  1
  H  529  1  0.87190100  0.77239100  0.58347200  1
  H  539  1  0.87214700  0.58317300  0.23945400  1
  H  549  1  0.86975100  0.42851300  0.77275000  1
  H  559  1  0.18454600  0.77306100  0.42612500  1
  H  569  1  0.18584200  0.23875700  0.58680400  1
  H  579  1  0.18734000  0.42518200  0.23918000  1
  H  589  1  0.18458200  0.58615000  0.77332100  1
  H  599  1  0.16699600  0.34165200  0.48556900  1
  H  609  1  0.16840600  0.66991600  0.52671400  1
  H  619  1  0.16812700  0.52636300  0.34205500  1
  H  629  1  0.16692300  0.48522200  0.67023200  1
  H  639  1  0.90258500  0.37737400  0.40573800  1
  H  649  1  0.90314200  0.63416800  0.60654500  1
  H  659  1  0.90349600  0.60618600  0.37774500  1
  H  669  1  0.90231300  0.40539500  0.63451600  1
  N  254  1  0.95982800  0.14324400  0.12103200  1
  N  257  1  0.12088200  0.14094500  0.16283400  1
  N  260  1  0.22388300  0.10134200  0.14888600  1
  N  264  1  0.95977600  0.86854100  0.89104500  1
  N  267  1  0.12065100  0.87080700  0.84922100  1
  N  270  1  0.22344700  0.91046000  0.86307800  1
  N  274  1  0.95985700  0.89086800  0.14337000  1
  N  277  1  0.12100900  0.84908200  0.14104800  1
  N  280  1  0.22357700  0.86299900  0.10139600  1
  N  284  1  0.95978200  0.12086400  0.86869600  1
  N  287  1  0.12054400  0.16270400  0.87095500  1
  N  290  1  0.22373000  0.14881300  0.91056000  1
  N  294  1  0.08812400  0.10796600  0.99207800  1
  N  297  1  0.88028000  0.08937200  0.01996200  1
  N  300  1  0.75144700  0.07829300  0.98194300  1
  N  304  1  0.08837300  0.90385800  0.01996800  1
  N  307  1  0.88070900  0.92251100  0.99205100  1
  N  310  1  0.75186700  0.93364100  0.03004800  1
  N  314  1  0.08838200  0.01984600  0.10808900  1
  N  317  1  0.88060900  0.99194400  0.08947600  1
  N  320  1  0.75183800  0.02993700  0.07832500  1
  N  324  1  0.08810800  0.99195000  0.90393400  1
  N  327  1  0.88057700  0.01985500  0.92260100  1
  N  330  1  0.75158400  0.98186600  0.93369300  1
  N  334  1  0.09997900  0.15728900  0.28742400  1
  N  337  1  0.93166600  0.19308600  0.26754400  1
  N  340  1  0.80658000  0.19651700  0.30734000  1
  N  344  1  0.10236600  0.85420200  0.72470500  1
  N  347  1  0.93290200  0.81853600  0.74451700  1
  N  350  1  0.80883600  0.81513700  0.70461900  1
  N  354  1  0.10275600  0.72452500  0.15764200  1
  N  357  1  0.93412700  0.74435100  0.19343100  1
  N  360  1  0.80990300  0.70447600  0.19694100  1
  N  364  1  0.09986700  0.28722500  0.85458800  1
  N  367  1  0.93079700  0.26737500  0.81890400  1
  N  370  1  0.80580100  0.30718600  0.81559700  1
  N  374  1  0.94498900  0.85385300  0.28733500  1
  N  377  1  0.12150600  0.81891000  0.26828000  1
  N  380  1  0.24431300  0.81700000  0.30819500  1
  N  384  1  0.94199300  0.15793900  0.72481900  1
  N  387  1  0.11821700  0.19299500  0.74379100  1
  N  390  1  0.24083100  0.19490300  0.70385500  1
  N  394  1  0.94398100  0.28716200  0.15814400  1
  N  397  1  0.11979600  0.26809000  0.19322500  1
  N  400  1  0.24263800  0.30799200  0.19523900  1
  N  404  1  0.94302500  0.72457900  0.85405100  1
  N  407  1  0.11944700  0.74356800  0.81903700  1
  N  410  1  0.24197900  0.70361500  0.81712500  1
  N  414  1  0.07388200  0.36606400  0.08688400  1
  N  417  1  0.93714200  0.40819700  0.07389200  1
  N  420  1  0.84538900  0.41378500  0.11611300  1
  N  424  1  0.07216600  0.64583100  0.92544200  1
  N  427  1  0.93496500  0.60382800  0.93857500  1
  N  430  1  0.84317800  0.59806400  0.89639200  1
  N  434  1  0.07395800  0.92507100  0.36632500  1
  N  437  1  0.93738300  0.93805200  0.40847500  1
  N  440  1  0.84571800  0.89582700  0.41407800  1
  N  444  1  0.07197500  0.08649300  0.64609400  1
  N  447  1  0.93465100  0.07334800  0.60410800  1
  N  450  1  0.84282500  0.11553000  0.59834400  1
  N  454  1  0.97143700  0.64504200  0.08864800  1
  N  457  1  0.09715900  0.60170500  0.07568100  1
  N  460  1  0.18726300  0.59537400  0.11793000  1
  N  464  1  0.97015000  0.36665500  0.92382700  1
  N  467  1  0.09623900  0.40997800  0.93659300  1
  N  470  1  0.18435500  0.41641500  0.89423500  1
  N  474  1  0.97031100  0.08811800  0.36686100  1
  N  477  1  0.09630000  0.07536800  0.41019800  1
  N  480  1  0.18446500  0.11772600  0.41662000  1
  N  484  1  0.97123700  0.92327300  0.64523900  1
  N  487  1  0.09713600  0.93626000  0.60192900  1
  N  490  1  0.18723200  0.89401300  0.59558200  1
  N  494  1  0.08516000  0.51984200  0.02304500  1
  N  497  1  0.94253500  0.49172700  0.98924100  1
  N  500  1  0.84175100  0.52906600  0.97008100  1
  N  504  1  0.08534600  0.98894000  0.52008900  1
  N  507  1  0.94262600  0.02273300  0.49197600  1
  N  510  1  0.84178700  0.04187700  0.52931900  1
  N  514  1  0.95816200  0.21180900  0.40524200  1
  N  517  1  0.12980800  0.24921000  0.39033400  1
  N  520  1  0.25149700  0.22043500  0.36203900  1
  N  524  1  0.96071900  0.79969600  0.60691500  1
  N  527  1  0.13240300  0.76228700  0.62174100  1
  N  530  1  0.25481500  0.79109000  0.64990300  1
  N  534  1  0.96082000  0.60668800  0.21220100  1
  N  537  1  0.13238800  0.62149000  0.24963700  1
  N  540  1  0.25474000  0.64970400  0.22088100  1
  N  544  1  0.95772400  0.40498000  0.80008200  1
  N  547  1  0.12967100  0.39007100  0.76273500  1
  N  550  1  0.25154200  0.36188100  0.79158800  1
  N  554  1  0.09232300  0.80127100  0.40420200  1
  N  557  1  0.90779800  0.76520300  0.39150700  1
  N  560  1  0.78048800  0.79530600  0.36544900  1
  N  564  1  0.09198500  0.21035400  0.60822200  1
  N  567  1  0.90482300  0.24616500  0.62026300  1
  N  570  1  0.77592500  0.21581400  0.64577900  1
  N  574  1  0.09382000  0.40369500  0.21079800  1
  N  577  1  0.90672400  0.39159600  0.24659600  1
  N  580  1  0.77822700  0.36600800  0.21624400  1
  N  584  1  0.09153000  0.60782200  0.80163000  1
  N  587  1  0.90546000  0.62013000  0.76570100  1
  N  590  1  0.77722100  0.64588900  0.79594100  1
  N  594  1  0.08794600  0.32969400  0.52049100  1
  N  597  1  0.90316300  0.30358100  0.49289600  1
  N  600  1  0.79129000  0.28790200  0.53081500  1
  N  604  1  0.08929800  0.68184700  0.49179400  1
  N  607  1  0.90412900  0.70787000  0.51937000  1
  N  610  1  0.79242300  0.72355900  0.48142600  1
  N  614  1  0.08905900  0.49145100  0.33011600  1
  N  617  1  0.90428500  0.51902000  0.30396900  1
  N  620  1  0.79247500  0.48107300  0.28832700  1
  N  624  1  0.08784700  0.52013800  0.68221500  1
  N  627  1  0.90314300  0.49253400  0.70833000  1
  N  630  1  0.79126900  0.53043800  0.72402400  1
  N  634  1  0.96472500  0.39026400  0.37002000  1
  N  637  1  0.10559000  0.34644100  0.36626100  1
  N  640  1  0.19882800  0.35803500  0.32530900  1
  N  644  1  0.96476500  0.62129500  0.64229600  1
  N  647  1  0.10578200  0.66509100  0.64609600  1
  N  650  1  0.19816100  0.65353600  0.68713000  1
  N  654  1  0.96547900  0.64190800  0.39063700  1
  N  657  1  0.10654400  0.64567900  0.34684100  1
  N  660  1  0.19942000  0.68666500  0.35842800  1
  N  664  1  0.96398600  0.36963600  0.62165600  1
  N  667  1  0.10473400  0.36584200  0.66548700  1
  N  670  1  0.19739200  0.32483100  0.65393400  1
  O  261  1  0.20176600  0.08993300  0.16984900  1
  O  262  1  0.34194200  0.11025700  0.14955800  1
  O  271  1  0.20113900  0.92182900  0.84210100  1
  O  272  1  0.34156300  0.90157400  0.86239900  1
  O  281  1  0.20142900  0.84202400  0.09001300  1
  O  282  1  0.34171600  0.86234900  0.11027400  1
  O  291  1  0.20146900  0.16977700  0.92195700  1
  O  292  1  0.34176600  0.14951400  0.90163500  1
  O  301  1  0.67589600  0.06597200  0.99710600  1
  O  302  1  0.68082200  0.09604900  0.97246200  1
  O  311  1  0.67657400  0.94601400  0.01488000  1
  O  312  1  0.68098500  0.91589800  0.03948200  1
  O  321  1  0.67649300  0.01476400  0.06597100  1
  O  322  1  0.68100600  0.03939900  0.09605900  1
  O  331  1  0.67618900  0.99704300  0.94603200  1
  O  332  1  0.68077800  0.97238900  0.91596100  1
  O  341  1  0.76625700  0.21802700  0.29913300  1
  O  342  1  0.70734000  0.18142900  0.30681000  1
  O  351  1  0.77317700  0.79305400  0.71204400  1
  O  352  1  0.70753700  0.82963300  0.70622600  1
  O  361  1  0.77184200  0.71234100  0.21872500  1
  O  362  1  0.70957200  0.70546600  0.18214500  1
  O  371  1  0.76679200  0.29925500  0.79389600  1
  O  372  1  0.70603900  0.30626500  0.83053600  1
  O  381  1  0.23790600  0.79282100  0.30945500  1
  O  382  1  0.35565800  0.82292000  0.29814700  1
  O  391  1  0.23429000  0.21908000  0.70257100  1
  O  392  1  0.35223800  0.18901300  0.71389300  1
  O  401  1  0.23585300  0.30923700  0.21941400  1
  O  402  1  0.35404000  0.29793700  0.18937500  1
  O  411  1  0.23555400  0.70235500  0.79294600  1
  O  412  1  0.35340100  0.71362900  0.82304500  1
  O  421  1  0.88080100  0.43703400  0.11753100  1
  O  422  1  0.72485000  0.41304600  0.10849400  1
  O  431  1  0.87833200  0.57479000  0.89512500  1
  O  432  1  0.72263800  0.59888200  0.90400700  1
  O  441  1  0.88124600  0.89440500  0.43732000  1
  O  442  1  0.72517400  0.90344500  0.41336100  1
  O  451  1  0.87793700  0.11679500  0.57507000  1
  O  452  1  0.72229600  0.10791300  0.59917100  1
  O  461  1  0.14628100  0.57246900  0.11939600  1
  O  462  1  0.30782700  0.59506300  0.11029000  1
  O  471  1  0.14282100  0.43929200  0.89285000  1
  O  472  1  0.30521200  0.41681500  0.90170300  1
  O  481  1  0.14295300  0.11912300  0.43949600  1
  O  482  1  0.30530700  0.11025200  0.41701700  1
  O  491  1  0.14632200  0.89256000  0.57267100  1
  O  492  1  0.30779800  0.90165500  0.59528900  1
  O  501  1  0.87178500  0.52247800  0.94746300  1
  O  502  1  0.72298800  0.52171400  0.97457500  1
  O  511  1  0.87175900  0.06449900  0.52273300  1
  O  512  1  0.72304000  0.03737200  0.52196500  1
  O  521  1  0.30389600  0.24052300  0.35276700  1
  O  522  1  0.34476000  0.20817600  0.37299600  1
  O  531  1  0.30748400  0.77100600  0.65912900  1
  O  532  1  0.34784700  0.80337600  0.63890700  1
  O  541  1  0.30720100  0.65894100  0.24097800  1
  O  542  1  0.34790200  0.63871500  0.20862400  1
  O  551  1  0.30410900  0.35258900  0.77152500  1
  O  552  1  0.34464900  0.37289500  0.80383700  1
  O  561  1  0.71647200  0.77580700  0.35770900  1
  O  562  1  0.69702500  0.80903600  0.37750100  1
  O  571  1  0.71009300  0.23520300  0.65323700  1
  O  572  1  0.69439300  0.20191000  0.63344600  1
  O  581  1  0.71248100  0.35851300  0.23563100  1
  O  582  1  0.69655300  0.37831200  0.20234400  1
  O  591  1  0.71211200  0.65345000  0.77650100  1
  O  592  1  0.69490300  0.63367200  0.80977900  1
  O  601  1  0.79477100  0.26486000  0.52328700  1
  O  602  1  0.67799900  0.29710100  0.52487100  1
  O  611  1  0.79513100  0.74656600  0.48907400  1
  O  612  1  0.67921600  0.71422300  0.48720600  1
  O  621  1  0.79547800  0.48865700  0.26530000  1
  O  622  1  0.67922600  0.48691600  0.29760700  1
  O  631  1  0.79490900  0.52292600  0.74707000  1
  O  632  1  0.67795900  0.52446600  0.71485200  1
  O  641  1  0.16708600  0.33693000  0.31501800  1
  O  642  1  0.31915900  0.35639100  0.33291200  1
  O  651  1  0.16626100  0.67465500  0.69737300  1
  O  652  1  0.31865300  0.65516100  0.67961600  1
  O  661  1  0.16763800  0.69693700  0.33731600  1
  O  662  1  0.31982200  0.67910100  0.35679800  1
  O  671  1  0.16543800  0.31457500  0.67504500  1
  O  672  1  0.31783500  0.33237000  0.65558600  1
