# generated using pymatgen
data_H24C45(N4O3)2
_symmetry_space_group_name_H-M   'P 1'
_cell_length_a   30.69570000
_cell_length_b   43.28160000
_cell_length_c   43.28160000
_cell_angle_alpha   90.00000000
_cell_angle_beta   89.99740000
_cell_angle_gamma   90.00000000
_symmetry_Int_Tables_number   1
_chemical_formula_structural   H24C45(N4O3)2
_chemical_formula_sum   'H192 C360 N64 O48'
_cell_volume   57502.15954992
_cell_formula_units_Z   8
loop_
 _symmetry_equiv_pos_site_id
 _symmetry_equiv_pos_as_xyz
  1  'x, y, z'
loop_
 _atom_site_type_symbol
 _atom_site_label
 _atom_site_symmetry_multiplicity
 _atom_site_fract_x
 _atom_site_fract_y
 _atom_site_fract_z
 _atom_site_occupancy
  H  25  1  0.11827200  0.24706100  0.18624200  1
  H  26  1  0.04178300  0.25644600  0.18874400  1
  H  27  1  0.96309200  0.25826200  0.18622600  1
  H  28  1  0.88679800  0.25476900  0.17646800  1
  H  29  1  0.90935900  0.18677300  0.10808500  1
  H  30  1  0.09803100  0.17790900  0.11867200  1
  H  31  1  0.02328300  0.23643300  0.07675300  1
  H  32  1  0.03550800  0.18101700  0.99678500  1
  H  33  1  0.01595800  0.13614900  0.02640400  1
  H  34  1  0.98249900  0.14603800  0.16668900  1
  H  35  1  0.99364100  0.09574600  0.06660000  1
  H  36  1  0.97211000  0.06619200  0.11089200  1
  H  39  1  0.83437400  0.19817200  0.13949600  1
  H  41  1  0.94278000  0.10210800  0.18280500  1
  H  43  1  0.06215900  0.25314700  0.03200100  1
  H  45  1  0.17256400  0.21023400  0.13096300  1
  H  70  1  0.11952600  0.75804100  0.68338100  1
  H  71  1  0.04306900  0.74855900  0.68077500  1
  H  72  1  0.96441500  0.74679300  0.68298900  1
  H  73  1  0.88804600  0.75038400  0.69236500  1
  H  74  1  0.91003300  0.81866200  0.76054800  1
  H  75  1  0.09885900  0.82750400  0.75057500  1
  H  76  1  0.02373500  0.76900600  0.79257400  1
  H  77  1  0.03484500  0.82460500  0.87250600  1
  H  78  1  0.01554700  0.86938400  0.84266300  1
  H  79  1  0.98393600  0.85920600  0.70218100  1
  H  80  1  0.99378400  0.90966900  0.80224400  1
  H  81  1  0.97290800  0.93916800  0.75776400  1
  H  84  1  0.83514900  0.80702400  0.72906600  1
  H  86  1  0.94477700  0.90327100  0.68561900  1
  H  88  1  0.06219500  0.75245200  0.83750000  1
  H  90  1  0.17375400  0.79514400  0.73839600  1
  H  115  1  0.11965100  0.75084600  0.17937100  1
  H  116  1  0.04315500  0.74824900  0.18871600  1
  H  117  1  0.96450300  0.75071000  0.19054900  1
  H  118  1  0.88818900  0.76037900  0.18706100  1
  H  119  1  0.91061300  0.82902500  0.11930800  1
  H  120  1  0.09935900  0.81864800  0.11044200  1
  H  121  1  0.02385300  0.86058800  0.16890100  1
  H  122  1  0.03547000  0.94056600  0.11341800  1
  H  123  1  0.01658300  0.91076400  0.06852300  1
  H  124  1  0.98412100  0.77038500  0.07850400  1
  H  125  1  0.99470000  0.87046900  0.02816200  1
  H  126  1  0.97339700  0.82610000  0.99863100  1
  H  129  1  0.83552700  0.79744100  0.13075800  1
  H  131  1  0.94466000  0.75406900  0.03455700  1
  H  133  1  0.06195600  0.90564800  0.18572100  1
  H  135  1  0.17409500  0.80621800  0.14244000  1
  H  160  1  0.12567400  0.25404300  0.69306200  1
  H  161  1  0.04950200  0.25766600  0.68280100  1
  H  162  1  0.97076100  0.25613900  0.67998100  1
  H  163  1  0.89415100  0.24736200  0.68251500  1
  H  164  1  0.91344100  0.17744800  0.74943700  1
  H  165  1  0.10207200  0.18536800  0.76057900  1
  H  166  1  0.02726700  0.14489500  0.70111700  1
  H  167  1  0.03575200  0.06450700  0.75628600  1
  H  168  1  0.01621600  0.09423900  0.80106700  1
  H  169  1  0.98665300  0.23498200  0.79138800  1
  H  170  1  0.99408700  0.13457900  0.84140000  1
  H  171  1  0.97267000  0.17900600  0.87082200  1
  H  174  1  0.83939400  0.20883500  0.73774400  1
  H  176  1  0.94541600  0.25108800  0.83473800  1
  H  178  1  0.06466700  0.09962800  0.68442000  1
  H  180  1  0.17735500  0.19706600  0.72838200  1
  H  205  1  0.61874100  0.74644900  0.68631300  1
  H  206  1  0.54171800  0.75653600  0.68946000  1
  H  207  1  0.45871600  0.75818600  0.68605500  1
  H  208  1  0.38235000  0.75295500  0.67487700  1
  H  209  1  0.41151000  0.68576700  0.60694000  1
  H  210  1  0.59521000  0.67799500  0.61856200  1
  H  211  1  0.52198500  0.73685600  0.57667600  1
  H  212  1  0.53498000  0.68122700  0.49690100  1
  H  213  1  0.51625100  0.63632400  0.52672000  1
  H  214  1  0.48217800  0.64635100  0.66687500  1
  H  215  1  0.49424200  0.59599000  0.56689900  1
  H  216  1  0.47262000  0.56641600  0.61113400  1
  H  219  1  0.33995000  0.70153900  0.61552800  1
  H  221  1  0.44311400  0.60232500  0.68312800  1
  H  223  1  0.56036800  0.75377300  0.53178500  1
  H  225  1  0.66582600  0.68732700  0.63719200  1
  H  250  1  0.62097900  0.25875900  0.18407100  1
  H  251  1  0.54412200  0.24863500  0.17998600  1
  H  252  1  0.46096400  0.24657400  0.18277800  1
  H  253  1  0.38440200  0.25109100  0.19382900  1
  H  254  1  0.41204500  0.31853500  0.26182300  1
  H  255  1  0.59564000  0.32736100  0.25135300  1
  H  256  1  0.52286500  0.26815800  0.29214400  1
  H  257  1  0.53516900  0.32347900  0.37217100  1
  H  258  1  0.51595800  0.36842900  0.34255200  1
  H  259  1  0.48306800  0.35883900  0.20219500  1
  H  260  1  0.49395500  0.40890800  0.30240100  1
  H  261  1  0.47272400  0.43858600  0.25813400  1
  H  264  1  0.34083900  0.30158800  0.25329800  1
  H  266  1  0.44366100  0.40282900  0.18602200  1
  H  268  1  0.56144300  0.25128900  0.33690600  1
  H  270  1  0.66641300  0.31761100  0.23460900  1
  H  295  1  0.60927700  0.24781400  0.68192800  1
  H  296  1  0.53156300  0.24677500  0.68989700  1
  H  297  1  0.44876000  0.24934200  0.68595600  1
  H  298  1  0.37380800  0.25771200  0.67372200  1
  H  299  1  0.40996900  0.32881000  0.61176400  1
  H  300  1  0.59337300  0.31607700  0.61290700  1
  H  301  1  0.51774000  0.36024800  0.66919900  1
  H  302  1  0.53487000  0.43963500  0.61358800  1
  H  303  1  0.51801100  0.40974700  0.56835700  1
  H  304  1  0.48154000  0.26989100  0.57833400  1
  H  305  1  0.49693000  0.36946700  0.52767300  1
  H  306  1  0.47556800  0.32527000  0.49798400  1
  H  309  1  0.33917500  0.31210000  0.61318300  1
  H  311  1  0.44373600  0.25370800  0.53396800  1
  H  313  1  0.55675200  0.40472400  0.68664100  1
  H  315  1  0.66184200  0.29285900  0.62316500  1
  H  340  1  0.61738000  0.75522400  0.19070100  1
  H  341  1  0.54025500  0.75763400  0.18069100  1
  H  342  1  0.45730500  0.75379200  0.17948400  1
  H  343  1  0.38112200  0.74256800  0.18545900  1
  H  344  1  0.41172200  0.67441600  0.25211200  1
  H  345  1  0.59535000  0.68706100  0.25899600  1
  H  346  1  0.52213800  0.64450500  0.20030600  1
  H  347  1  0.53573300  0.56473200  0.25586100  1
  H  348  1  0.51711500  0.59450200  0.30083900  1
  H  349  1  0.48219100  0.73456900  0.29085200  1
  H  350  1  0.49507300  0.63467200  0.34127000  1
  H  351  1  0.47323900  0.67887500  0.37083300  1
  H  354  1  0.33982600  0.68336200  0.23787300  1
  H  356  1  0.44266100  0.75048500  0.33484200  1
  H  358  1  0.56108200  0.59970500  0.18349400  1
  H  360  1  0.66553000  0.70701700  0.24984000  1
  H  371  1  0.89880700  0.92263900  0.16022300  1
  H  372  1  0.03513700  0.05276200  0.16888500  1
  H  373  1  0.07677100  0.00696000  0.17051400  1
  H  375  1  0.89043100  0.01700800  0.15449600  1
  H  390  1  0.90081000  0.08277800  0.70717700  1
  H  391  1  0.03717100  0.95251600  0.70092700  1
  H  392  1  0.07895900  0.99834400  0.69995800  1
  H  394  1  0.89207000  0.98842500  0.71280500  1
  H  409  1  0.89875100  0.77670700  0.85563500  1
  H  410  1  0.03710600  0.76890900  0.98475000  1
  H  411  1  0.07813900  0.76791300  0.93862000  1
  H  413  1  0.89164600  0.78193500  0.95009100  1
  H  428  1  0.89898600  0.22906500  0.01390300  1
  H  429  1  0.03723600  0.23648400  0.88472400  1
  H  430  1  0.07826700  0.23770200  0.93080400  1
  H  432  1  0.89178900  0.22344800  0.91947800  1
  H  447  1  0.39558300  0.42364200  0.65926500  1
  H  448  1  0.53476900  0.55217000  0.66909600  1
  H  449  1  0.57536700  0.50585500  0.67076100  1
  H  451  1  0.38940000  0.51812600  0.65406500  1
  H  466  1  0.39813100  0.58190100  0.20931600  1
  H  467  1  0.53571700  0.45245300  0.20023800  1
  H  468  1  0.57689800  0.49847300  0.19866700  1
  H  470  1  0.39067000  0.48747300  0.21476500  1
  H  485  1  0.39852200  0.27641300  0.35501800  1
  H  486  1  0.53655700  0.26771900  0.48424600  1
  H  487  1  0.57763100  0.26639300  0.43814000  1
  H  489  1  0.39133200  0.28193100  0.44944600  1
  H  504  1  0.39791200  0.72771100  0.51387100  1
  H  505  1  0.53567800  0.73674500  0.38451600  1
  H  506  1  0.57684900  0.73819800  0.43057600  1
  H  508  1  0.39062800  0.72220300  0.41944500  1
  H  523  1  0.81140700  0.16538400  0.21899200  1
  H  524  1  0.70091600  0.29846200  0.16897100  1
  H  525  1  0.75452300  0.28433600  0.13291800  1
  H  527  1  0.70736300  0.21890900  0.24440400  1
  H  542  1  0.81138100  0.83924100  0.64931000  1
  H  543  1  0.70074600  0.70698200  0.70135200  1
  H  544  1  0.75538600  0.72104100  0.73667900  1
  H  546  1  0.70627200  0.78610100  0.62537200  1
  H  561  1  0.81213700  0.71763500  0.09857100  1
  H  562  1  0.70057000  0.77016100  0.23025000  1
  H  563  1  0.75575100  0.80514400  0.21655100  1
  H  565  1  0.70587700  0.69436900  0.15082300  1
  H  580  1  0.81227700  0.28773400  0.77217000  1
  H  581  1  0.70097100  0.23402800  0.64085500  1
  H  582  1  0.76008400  0.20161300  0.65228700  1
  H  584  1  0.70180500  0.30727600  0.72293400  1
  H  599  1  0.19741800  0.83731900  0.22273400  1
  H  600  1  0.30318600  0.70284600  0.17129400  1
  H  601  1  0.25056500  0.71860600  0.13508200  1
  H  603  1  0.29861600  0.78105300  0.24806600  1
  H  618  1  0.19269300  0.16811800  0.64669100  1
  H  619  1  0.30311900  0.30180500  0.69512200  1
  H  620  1  0.25622000  0.28422900  0.73455300  1
  H  622  1  0.28840700  0.22681400  0.61639600  1
  H  637  1  0.19629600  0.29069200  0.10026800  1
  H  638  1  0.30412900  0.23695800  0.23300400  1
  H  639  1  0.24993200  0.20173500  0.21782800  1
  H  641  1  0.30007300  0.31407600  0.15495900  1
  H  656  1  0.19724100  0.71491400  0.76942000  1
  H  657  1  0.30335600  0.76696800  0.63532700  1
  H  658  1  0.25024100  0.80284700  0.65090800  1
  H  660  1  0.29936000  0.69027000  0.71370300  1
  C  1  1  0.99784000  0.15237800  0.11983400  1
  C  2  1  0.00037500  0.13793400  0.09096700  1
  C  3  1  0.00845800  0.16033800  0.06864400  1
  C  4  1  0.01006600  0.18921700  0.08313800  1
  C  5  1  0.02040700  0.21569000  0.06562700  1
  C  6  1  0.02970200  0.21340400  0.03349400  1
  C  7  1  0.02706800  0.18385100  0.01942100  1
  C  8  1  0.01603600  0.15738200  0.03671200  1
  C  9  1  0.99301200  0.10600100  0.08785700  1
  C  10  1  0.98085100  0.08871100  0.11407700  1
  C  11  1  0.97687600  0.10274300  0.14359300  1
  C  12  1  0.98655200  0.13482800  0.14609100  1
  C  13  1  0.04073300  0.19944800  0.13541700  1
  C  14  1  0.02531800  0.22220200  0.15562500  1
  C  15  1  0.98069800  0.22499100  0.15241800  1
  C  16  1  0.96602100  0.20443500  0.12973000  1
  C  17  1  0.95209700  0.24391900  0.16918300  1
  C  18  1  0.90739100  0.24186700  0.16311100  1
  C  19  1  0.89073400  0.22160600  0.14016900  1
  C  20  1  0.92059800  0.20236600  0.12391300  1
  C  21  1  0.08625600  0.19384900  0.13394900  1
  C  22  1  0.11547200  0.21040000  0.15342900  1
  C  23  1  0.09811200  0.23350100  0.17320800  1
  C  24  1  0.05329500  0.23933500  0.17469000  1
  C  37  1  0.00366300  0.18639600  0.11709000  1
  C  46  1  0.99877200  0.85295400  0.74912700  1
  C  47  1  0.00093800  0.86746100  0.77798400  1
  C  48  1  0.00875000  0.84510800  0.80040900  1
  C  49  1  0.01052200  0.81619500  0.78599400  1
  C  50  1  0.02068400  0.78977000  0.80363700  1
  C  51  1  0.02963600  0.79214500  0.83581600  1
  C  52  1  0.02672700  0.82171200  0.84981800  1
  C  53  1  0.01591500  0.84813700  0.83238600  1
  C  54  1  0.99349100  0.89939600  0.78099300  1
  C  55  1  0.98173000  0.91665300  0.75466100  1
  C  56  1  0.97807800  0.90255200  0.72516100  1
  C  57  1  0.98769900  0.87045100  0.72278800  1
  C  58  1  0.04167500  0.80577900  0.73387400  1
  C  59  1  0.02640400  0.78290300  0.71374800  1
  C  60  1  0.98175000  0.78018400  0.71674900  1
  C  61  1  0.96689100  0.80087400  0.73925500  1
  C  62  1  0.95329000  0.76119000  0.69994400  1
  C  63  1  0.90853100  0.76330400  0.70578600  1
  C  64  1  0.89168500  0.78365400  0.72857700  1
  C  65  1  0.92141200  0.80299000  0.74484800  1
  C  66  1  0.08718400  0.81143700  0.73539300  1
  C  67  1  0.11651000  0.79484400  0.71602600  1
  C  68  1  0.09928900  0.77160100  0.69635500  1
  C  69  1  0.05449800  0.76568800  0.69484100  1
  C  82  1  0.00446200  0.81893000  0.75199900  1
  C  91  1  0.99923400  0.81727800  0.08481900  1
  C  92  1  0.00168400  0.84613300  0.07034200  1
  C  93  1  0.00947700  0.86850800  0.09274600  1
  C  94  1  0.01108100  0.85405400  0.12164700  1
  C  95  1  0.02099700  0.87167100  0.14813400  1
  C  96  1  0.02988900  0.90386200  0.14583300  1
  C  97  1  0.02735500  0.91787100  0.11625000  1
  C  98  1  0.01674800  0.90047300  0.08976600  1
  C  99  1  0.99416800  0.84921600  0.03842400  1
  C  100  1  0.98221200  0.82294600  0.02113800  1
  C  101  1  0.97845600  0.79342500  0.03518200  1
  C  102  1  0.98809300  0.79098300  0.06727900  1
  C  103  1  0.04207400  0.80186300  0.13197500  1
  C  104  1  0.02667800  0.78153300  0.15462900  1
  C  105  1  0.98203700  0.78461800  0.15735700  1
  C  106  1  0.96730800  0.80729700  0.13681300  1
  C  107  1  0.95347200  0.76775100  0.17621800  1
  C  108  1  0.90875600  0.77378400  0.17418800  1
  C  109  1  0.89205600  0.79682400  0.15405500  1
  C  110  1  0.92188200  0.81313100  0.13482500  1
  C  111  1  0.08759700  0.80335100  0.12636600  1
  C  112  1  0.11682100  0.78383700  0.14287500  1
  C  113  1  0.09948400  0.76395300  0.16588900  1
  C  114  1  0.05467200  0.76244900  0.17172600  1
  C  127  1  0.00493500  0.82007200  0.11884700  1
  C  136  1  0.00123800  0.18799000  0.78508400  1
  C  137  1  0.00267600  0.15903600  0.79943200  1
  C  138  1  0.01070700  0.13670900  0.77701600  1
  C  139  1  0.01336000  0.15129900  0.74822300  1
  C  140  1  0.02363800  0.13372600  0.72177700  1
  C  141  1  0.03180700  0.10142800  0.72399500  1
  C  142  1  0.02808100  0.08727800  0.75345100  1
  C  143  1  0.01711500  0.10464100  0.77989000  1
  C  144  1  0.99429900  0.15588500  0.83123800  1
  C  145  1  0.98221900  0.18217100  0.84846300  1
  C  146  1  0.97926700  0.21176100  0.83446900  1
  C  147  1  0.98998900  0.21430200  0.80256600  1
  C  148  1  0.04573400  0.20327400  0.73872100  1
  C  149  1  0.03139300  0.22405000  0.71612800  1
  C  150  1  0.98676700  0.22145400  0.71274700  1
  C  151  1  0.97102800  0.19863600  0.73276100  1
  C  152  1  0.95901700  0.23896500  0.69386200  1
  C  153  1  0.91411800  0.23346000  0.69533500  1
  C  154  1  0.89643500  0.21034000  0.71494300  1
  C  155  1  0.92543200  0.19337400  0.73422900  1
  C  156  1  0.09107700  0.20110200  0.74480300  1
  C  157  1  0.12120800  0.22047000  0.72895000  1
  C  158  1  0.10488100  0.24100300  0.70612600  1
  C  159  1  0.06025100  0.24313300  0.69976000  1
  C  172  1  0.00786600  0.18532400  0.75113700  1
  C  181  1  0.49795900  0.65267500  0.62010000  1
  C  182  1  0.50072200  0.63819700  0.59125600  1
  C  183  1  0.50850800  0.66060700  0.56888400  1
  C  184  1  0.50953100  0.68956100  0.58326200  1
  C  185  1  0.51947700  0.71604100  0.56564200  1
  C  186  1  0.52876500  0.71370100  0.53350800  1
  C  187  1  0.52653600  0.68408800  0.51953200  1
  C  188  1  0.51607600  0.65759100  0.53695500  1
  C  189  1  0.49345000  0.60625300  0.58814900  1
  C  190  1  0.48134400  0.58892900  0.61435700  1
  C  191  1  0.47699800  0.60300700  0.64382600  1
  C  192  1  0.48652400  0.63511500  0.64632100  1
  C  193  1  0.53938200  0.70029800  0.63568000  1
  C  194  1  0.52413200  0.72310000  0.65590400  1
  C  195  1  0.47910900  0.72514900  0.65291300  1
  C  196  1  0.46564500  0.70452600  0.62992000  1
  C  197  1  0.44873700  0.74321900  0.66923100  1
  C  198  1  0.40401400  0.73985000  0.66269400  1
  C  199  1  0.38905400  0.71872800  0.63993600  1
  C  200  1  0.42087700  0.70154100  0.62321900  1
  C  201  1  0.58447600  0.69428100  0.63388100  1
  C  202  1  0.61475400  0.71147300  0.65194300  1
  C  203  1  0.59806100  0.73404200  0.67259900  1
  C  204  1  0.55300900  0.73992700  0.67472400  1
  C  217  1  0.50315500  0.68676100  0.61724200  1
  C  226  1  0.49819400  0.35237600  0.24906400  1
  C  227  1  0.50064300  0.36675600  0.27796800  1
  C  228  1  0.50846200  0.34429000  0.30028400  1
  C  229  1  0.50995400  0.31541600  0.28577000  1
  C  230  1  0.51998200  0.28888700  0.30329200  1
  C  231  1  0.52923700  0.29113500  0.33543500  1
  C  232  1  0.52677100  0.32068800  0.34952200  1
  C  233  1  0.51598800  0.34720300  0.33222600  1
  C  234  1  0.49341100  0.39870100  0.28112200  1
  C  235  1  0.48142200  0.41606600  0.25491300  1
  C  236  1  0.47752000  0.40210200  0.22535900  1
  C  237  1  0.48710400  0.37000700  0.22281800  1
  C  238  1  0.54034300  0.30506700  0.23349100  1
  C  239  1  0.52562100  0.28220500  0.21314900  1
  C  240  1  0.48058800  0.27986000  0.21590400  1
  C  241  1  0.46662200  0.30038200  0.23884600  1
  C  242  1  0.45062700  0.26149900  0.19953200  1
  C  243  1  0.40581900  0.26443600  0.20599100  1
  C  244  1  0.39039000  0.28542200  0.22871700  1
  C  245  1  0.42178200  0.30294400  0.24547900  1
  C  246  1  0.58535600  0.31117900  0.23577000  1
  C  247  1  0.61617700  0.29395900  0.21817800  1
  C  248  1  0.59999300  0.27131400  0.19739400  1
  C  249  1  0.55500000  0.26539700  0.19470500  1
  C  262  1  0.50377100  0.31831800  0.25178400  1
  C  271  1  0.49786100  0.31655300  0.58465300  1
  C  272  1  0.50164700  0.34529500  0.57009900  1
  C  273  1  0.50843600  0.36774800  0.59260000  1
  C  274  1  0.50766700  0.35352400  0.62163800  1
  C  275  1  0.51643400  0.37120600  0.64828700  1
  C  276  1  0.52646100  0.40323400  0.64604100  1
  C  277  1  0.52591700  0.41708500  0.61632800  1
  C  278  1  0.51658000  0.39961100  0.58965000  1
  C  279  1  0.49561700  0.34826600  0.53801200  1
  C  280  1  0.48360800  0.32206500  0.52062600  1
  C  281  1  0.47834100  0.29270600  0.53476900  1
  C  282  1  0.48688600  0.29028300  0.56701800  1
  C  283  1  0.53537800  0.30080200  0.63390100  1
  C  284  1  0.51775300  0.28096200  0.65620200  1
  C  285  1  0.47268800  0.28432000  0.65624100  1
  C  286  1  0.46153000  0.30743100  0.63510700  1
  C  287  1  0.44037800  0.26695600  0.67140700  1
  C  288  1  0.39621200  0.27212000  0.66408900  1
  C  289  1  0.38353300  0.29494500  0.64230200  1
  C  290  1  0.41722800  0.31302500  0.62857200  1
  C  291  1  0.58084000  0.30134100  0.62907800  1
  C  292  1  0.60898400  0.28233300  0.64702400  1
  C  293  1  0.58999800  0.26225700  0.66918000  1
  C  294  1  0.54459700  0.26139300  0.67383700  1
  C  307  1  0.50074800  0.31960900  0.61887300  1
  C  316  1  0.49818700  0.68782600  0.28453000  1
  C  317  1  0.50128500  0.65901200  0.29902800  1
  C  318  1  0.50901600  0.63664900  0.27658800  1
  C  319  1  0.50984300  0.65103700  0.24762900  1
  C  320  1  0.51972100  0.63344700  0.22111500  1
  C  321  1  0.52917800  0.60134100  0.22343200  1
  C  322  1  0.52717500  0.58734900  0.25304200  1
  C  323  1  0.51677300  0.60474000  0.27957100  1
  C  324  1  0.49421600  0.65591600  0.33099800  1
  C  325  1  0.48186200  0.68208900  0.34829700  1
  C  326  1  0.47739300  0.71154700  0.33422800  1
  C  327  1  0.48675200  0.71404300  0.30209700  1
  C  328  1  0.53911500  0.70362700  0.23674600  1
  C  329  1  0.52341900  0.72377700  0.21402400  1
  C  330  1  0.47841600  0.72054700  0.21218100  1
  C  331  1  0.46540100  0.69749500  0.23287600  1
  C  332  1  0.44766500  0.73685100  0.19443400  1
  C  333  1  0.40302100  0.73027800  0.19824900  1
  C  334  1  0.38849700  0.70743900  0.21944800  1
  C  335  1  0.42071700  0.69067900  0.23621600  1
  C  336  1  0.58425800  0.70224300  0.24270300  1
  C  337  1  0.61410200  0.72068300  0.22553600  1
  C  338  1  0.59697600  0.74122500  0.20303500  1
  C  339  1  0.55188200  0.74290900  0.19719300  1
  C  352  1  0.50320700  0.68498600  0.25043400  1
  C  361  1  0.97344200  0.03125100  0.16366000  1
  C  362  1  0.95285700  0.00184200  0.16071900  1
  C  363  1  0.97817000  0.97422000  0.16311400  1
  C  364  1  0.02399500  0.97539600  0.16715400  1
  C  365  1  0.04397000  0.00490400  0.16674100  1
  C  366  1  0.01934800  0.03225200  0.16526400  1
  C  368  1  0.91299800  0.94397200  0.16015600  1
  C  369  1  0.88816700  0.97090500  0.15653600  1
  C  376  1  0.94943600  0.05762200  0.17380400  1
  C  377  1  0.04907800  0.94977300  0.17820500  1
  C  380  1  0.97538700  0.97410000  0.70501000  1
  C  381  1  0.95471300  0.00352100  0.70760000  1
  C  382  1  0.98014400  0.03112800  0.70563300  1
  C  383  1  0.02608800  0.02989200  0.70235500  1
  C  384  1  0.04604400  0.00038800  0.70318400  1
  C  385  1  0.02132400  0.97306700  0.70416700  1
  C  387  1  0.91495900  0.06143400  0.70749300  1
  C  388  1  0.88996500  0.03452400  0.71069100  1
  C  395  1  0.95159300  0.94774700  0.69455800  1
  C  396  1  0.05150800  0.05552300  0.69172200  1
  C  399  1  0.97506200  0.77356700  0.96365100  1
  C  400  1  0.95395100  0.77642300  0.93442700  1
  C  401  1  0.97891200  0.77443100  0.90661300  1
  C  402  1  0.02481800  0.77082700  0.90747300  1
  C  403  1  0.04524700  0.77140200  0.93682200  1
  C  404  1  0.02100700  0.77252900  0.96436100  1
  C  406  1  0.91325500  0.77682700  0.87686100  1
  C  407  1  0.88874300  0.78005900  0.90399300  1
  C  414  1  0.95178800  0.76269200  0.99007600  1
  C  415  1  0.04961800  0.75985700  0.88166900  1
  C  418  1  0.97515300  0.23184700  0.90580900  1
  C  419  1  0.95410800  0.22909900  0.93507300  1
  C  420  1  0.97908800  0.23123200  0.96286700  1
  C  421  1  0.02499700  0.23484100  0.96199500  1
  C  422  1  0.04537500  0.23422400  0.93263100  1
  C  423  1  0.02109900  0.23298400  0.90511800  1
  C  425  1  0.91346300  0.22887400  0.99266700  1
  C  426  1  0.88893200  0.22551200  0.96556400  1
  C  433  1  0.95179800  0.24239200  0.87931300  1
  C  434  1  0.04990600  0.24571000  0.98777400  1
  C  437  1  0.47269800  0.53134800  0.66359500  1
  C  438  1  0.45142800  0.50220400  0.66040700  1
  C  439  1  0.47608600  0.47428300  0.66275600  1
  C  440  1  0.52188100  0.47494800  0.66709400  1
  C  441  1  0.54257100  0.50420500  0.66678100  1
  C  442  1  0.51860400  0.53184500  0.66527800  1
  C  444  1  0.41026300  0.44480800  0.65936200  1
  C  445  1  0.38607400  0.47204100  0.65582300  1
  C  452  1  0.44912500  0.55786500  0.67387900  1
  C  453  1  0.54617700  0.44902700  0.67833500  1
  C  456  1  0.47384800  0.47369600  0.20556200  1
  C  457  1  0.45294300  0.50297400  0.20859600  1
  C  458  1  0.47799500  0.53072000  0.20626000  1
  C  459  1  0.52382300  0.52977300  0.20215500  1
  C  460  1  0.54409200  0.50036100  0.20250200  1
  C  461  1  0.51975000  0.47288000  0.20394700  1
  C  463  1  0.41253000  0.56063800  0.20932600  1
  C  464  1  0.38796000  0.53357600  0.21286900  1
  C  471  1  0.45010500  0.44728500  0.19520600  1
  C  472  1  0.54853000  0.55552300  0.19095600  1
  C  475  1  0.47459400  0.27281600  0.46311700  1
  C  476  1  0.45357800  0.27581700  0.43386500  1
  C  477  1  0.47855200  0.27356200  0.40607600  1
  C  478  1  0.52441500  0.26964100  0.40695100  1
  C  479  1  0.54476400  0.27000900  0.43633200  1
  C  480  1  0.52050300  0.27136900  0.46384600  1
  C  482  1  0.41298300  0.27645700  0.37626000  1
  C  483  1  0.38848400  0.27996700  0.40335800  1
  C  490  1  0.45094600  0.26241000  0.48954000  1
  C  491  1  0.54922700  0.25872200  0.38113700  1
  C  494  1  0.47380600  0.73153500  0.40571100  1
  C  495  1  0.45285200  0.72849500  0.43498600  1
  C  496  1  0.47785200  0.73079300  0.46275600  1
  C  497  1  0.52368200  0.73485800  0.46181500  1
  C  498  1  0.54402700  0.73442500  0.43243200  1
  C  499  1  0.51971800  0.73301600  0.40494100  1
  C  501  1  0.41234100  0.72772500  0.49262100  1
  C  502  1  0.38782600  0.72414600  0.46553900  1
  C  509  1  0.45011500  0.74202700  0.37932700  1
  C  510  1  0.54853600  0.74585300  0.48757800  1
  C  513  1  0.71175100  0.26175300  0.20066700  1
  C  514  1  0.73693100  0.23436100  0.20497200  1
  C  515  1  0.77081800  0.22675900  0.18354400  1
  C  516  1  0.77896200  0.24511600  0.15687500  1
  C  517  1  0.75005300  0.27007600  0.15151300  1
  C  518  1  0.71756600  0.27836100  0.17284600  1
  C  520  1  0.79111400  0.18372500  0.21541000  1
  C  521  1  0.75677000  0.19026700  0.23567200  1
  C  528  1  0.68834700  0.27548200  0.22586100  1
  C  529  1  0.81830000  0.24348500  0.13873000  1
  C  532  1  0.71142200  0.74330000  0.66917600  1
  C  533  1  0.73669900  0.77059600  0.66445500  1
  C  534  1  0.77115400  0.77815500  0.68544900  1
  C  535  1  0.77971800  0.75991000  0.71212500  1
  C  536  1  0.75070400  0.73513500  0.71798500  1
  C  537  1  0.71773900  0.72684700  0.69704000  1
  C  539  1  0.79102600  0.82099800  0.65320400  1
  C  540  1  0.75613500  0.81453800  0.63339500  1
  C  547  1  0.68637000  0.72987600  0.64456800  1
  C  548  1  0.81924200  0.76171000  0.73004800  1
  C  551  1  0.71124900  0.73790000  0.19397100  1
  C  552  1  0.73680700  0.73306000  0.16682000  1
  C  553  1  0.77159300  0.75386100  0.15949500  1
  C  554  1  0.78019400  0.78050500  0.17776700  1
  C  555  1  0.75105000  0.78646800  0.20243100  1
  C  556  1  0.71768000  0.76574800  0.21046200  1
  C  558  1  0.79164200  0.72158900  0.11672100  1
  C  559  1  0.75633100  0.70204900  0.12284700  1
  C  566  1  0.68541800  0.71347900  0.20705800  1
  C  567  1  0.81979600  0.79833700  0.17609400  1
  C  570  1  0.70990400  0.26576400  0.67788000  1
  C  571  1  0.73594000  0.27096000  0.70476600  1
  C  572  1  0.77294200  0.25170500  0.71075500  1
  C  573  1  0.78330800  0.22607300  0.69154100  1
  C  574  1  0.75416400  0.21961900  0.66703300  1
  C  575  1  0.71857600  0.23887500  0.66031800  1
  C  577  1  0.79148900  0.28337700  0.75428100  1
  C  578  1  0.75408600  0.30127100  0.74954400  1
  C  585  1  0.67940100  0.28848500  0.66686200  1
  C  586  1  0.82434700  0.20999000  0.69227000  1
  C  589  1  0.29349500  0.73938600  0.20330800  1
  C  590  1  0.26930300  0.76715300  0.20797400  1
  C  591  1  0.23604900  0.77579600  0.18644900  1
  C  592  1  0.22746900  0.75795500  0.15949600  1
  C  593  1  0.25545600  0.73252200  0.15388300  1
  C  594  1  0.28736200  0.72326800  0.17525500  1
  C  596  1  0.21703600  0.81865300  0.21894800  1
  C  597  1  0.25069200  0.81098500  0.23939600  1
  C  604  1  0.31572300  0.72468500  0.22845500  1
  C  605  1  0.18841600  0.76065100  0.14118100  1
  C  608  1  0.28999800  0.26574600  0.66332600  1
  C  609  1  0.26537500  0.23818400  0.65922500  1
  C  610  1  0.23555500  0.22843200  0.68267300  1
  C  611  1  0.23046000  0.24536300  0.71066000  1
  C  612  1  0.25895100  0.27079900  0.71518900  1
  C  613  1  0.28763000  0.28108300  0.69200800  1
  C  615  1  0.21251500  0.18679400  0.64984000  1
  C  616  1  0.24267900  0.19579700  0.62728700  1
  C  623  1  0.30341200  0.28328400  0.63717600  1
  C  624  1  0.19352800  0.24223700  0.73108100  1
  C  627  1  0.29439700  0.26946300  0.19685000  1
  C  628  1  0.26962700  0.27460200  0.16941300  1
  C  629  1  0.23545700  0.25364600  0.16115600  1
  C  630  1  0.22659800  0.22669000  0.17890900  1
  C  631  1  0.25494600  0.22059900  0.20401700  1
  C  632  1  0.28778900  0.24140300  0.21289300  1
  C  634  1  0.21629100  0.28654700  0.11865400  1
  C  635  1  0.25090100  0.30636100  0.12582800  1
  C  642  1  0.31841200  0.29407200  0.21109100  1
  C  643  1  0.18700200  0.20893900  0.17656600  1
  C  646  1  0.29378900  0.73480900  0.67178000  1
  C  647  1  0.26944900  0.73002900  0.69947300  1
  C  648  1  0.23586300  0.75135200  0.70798900  1
  C  649  1  0.22713700  0.77828200  0.69016100  1
  C  650  1  0.25520100  0.78404200  0.66480800  1
  C  651  1  0.28740900  0.76285100  0.65566700  1
  C  653  1  0.21692300  0.71878600  0.75080400  1
  C  654  1  0.25098400  0.69859700  0.74334500  1
  C  661  1  0.31668400  0.70977300  0.65727400  1
  C  662  1  0.18795900  0.79649100  0.69281000  1
  N  38  1  0.84614800  0.21885600  0.13692600  1
  N  40  1  0.95761000  0.08817900  0.16847900  1
  N  42  1  0.04640900  0.23889800  0.01850700  1
  N  44  1  0.16013600  0.20722800  0.15139000  1
  N  83  1  0.84707000  0.78637100  0.73154200  1
  N  85  1  0.95942100  0.91716800  0.70007500  1
  N  87  1  0.04636800  0.76672300  0.85092400  1
  N  89  1  0.16115300  0.79816900  0.71803400  1
  N  128  1  0.84748000  0.80013000  0.15136500  1
  N  130  1  0.95932600  0.76848200  0.02063700  1
  N  132  1  0.04610100  0.91900500  0.17139600  1
  N  134  1  0.16147600  0.78581000  0.13969500  1
  N  173  1  0.85174500  0.20760900  0.71709500  1
  N  175  1  0.95993600  0.23674300  0.84880600  1
  N  177  1  0.04853900  0.08627800  0.69859100  1
  N  179  1  0.16575200  0.21753500  0.73250900  1
  N  218  1  0.34527600  0.71449600  0.63358600  1
  N  220  1  0.45770900  0.58839100  0.66868800  1
  N  222  1  0.54488100  0.73930300  0.51836900  1
  N  224  1  0.65881900  0.70560300  0.64943700  1
  N  263  1  0.34651100  0.28901000  0.23501700  1
  N  265  1  0.45831200  0.41671500  0.20047700  1
  N  267  1  0.54577700  0.26557500  0.35041100  1
  N  269  1  0.66025900  0.29957800  0.22174400  1
  N  308  1  0.34153000  0.29839200  0.63103800  1
  N  310  1  0.45885600  0.26794800  0.52010000  1
  N  312  1  0.54204700  0.41825200  0.67187600  1
  N  314  1  0.65337800  0.28226800  0.64217600  1
  N  353  1  0.34484600  0.70118000  0.22451400  1
  N  355  1  0.45772900  0.73629000  0.34876900  1
  N  357  1  0.54538600  0.58626800  0.19783000  1
  N  359  1  0.65821300  0.71893900  0.23142100  1
  N  367  1  0.95662900  0.94676800  0.16337900  1
  N  370  1  0.90860300  0.99877300  0.15717200  1
  N  386  1  0.95868100  0.05860600  0.70500800  1
  N  389  1  0.91035900  0.00663500  0.71040700  1
  N  405  1  0.95699100  0.77405700  0.87931300  1
  N  408  1  0.90958700  0.77950700  0.93170900  1
  N  424  1  0.95718600  0.23168300  0.99017500  1
  N  427  1  0.90975300  0.22597500  0.93783600  1
  N  443  1  0.45392000  0.44708200  0.66277800  1
  N  446  1  0.40713200  0.49967000  0.65670000  1
  N  462  1  0.45618400  0.55806600  0.20607800  1
  N  465  1  0.40866000  0.50580600  0.21214900  1
  N  481  1  0.45666000  0.27332200  0.37876500  1
  N  484  1  0.40927200  0.27929400  0.43109200  1
  N  500  1  0.45599900  0.73097800  0.49008500  1
  N  503  1  0.40857200  0.72489000  0.43778700  1
  N  519  1  0.79648000  0.20210000  0.19046100  1
  N  522  1  0.73112500  0.21523000  0.22998900  1
  N  538  1  0.79684800  0.80268800  0.67814900  1
  N  541  1  0.73042800  0.78969600  0.63947000  1
  N  557  1  0.79752500  0.74645800  0.13511900  1
  N  560  1  0.73037900  0.70823200  0.14753400  1
  N  576  1  0.79906300  0.25950800  0.73490300  1
  N  579  1  0.72779200  0.29463100  0.72515600  1
  N  595  1  0.21129200  0.80084400  0.19363000  1
  N  598  1  0.27537900  0.78559500  0.23346200  1
  N  614  1  0.21026000  0.20345500  0.67620700  1
  N  617  1  0.26770000  0.22117700  0.63248000  1
  N  633  1  0.21022600  0.26128400  0.13648500  1
  N  636  1  0.27611200  0.29995200  0.15084000  1
  N  652  1  0.21099500  0.74404400  0.73294200  1
  N  655  1  0.27579700  0.70466500  0.71804900  1
  O  374  1  0.84445000  0.96897100  0.15300600  1
  O  378  1  0.07371700  0.95621700  0.20342200  1
  O  379  1  0.92425600  0.05190500  0.19892100  1
  O  393  1  0.84614100  0.03649800  0.71346800  1
  O  397  1  0.07656600  0.04905400  0.66666667  1
  O  398  1  0.92703500  0.95341500  0.66912300  1
  O  412  1  0.84492900  0.78312300  0.90239800  1
  O  416  1  0.07489100  0.73493100  0.88800800  1
  O  417  1  0.92650100  0.73764600  0.98433100  1
  O  431  1  0.84513100  0.22239100  0.96719900  1
  O  435  1  0.07477800  0.27084700  0.98147500  1
  O  436  1  0.92644200  0.26746500  0.88480400  1
  O  450  1  0.34234100  0.47063200  0.65215100  1
  O  454  1  0.56983500  0.45522100  0.70408500  1
  O  455  1  0.42397800  0.55220900  0.69902500  1
  O  469  1  0.34422400  0.53528500  0.21639200  1
  O  473  1  0.57340900  0.54915300  0.16584000  1
  O  474  1  0.42494500  0.45298900  0.17007700  1
  O  488  1  0.34472900  0.28341600  0.40171600  1
  O  492  1  0.57396000  0.23350300  0.38739100  1
  O  493  1  0.42528400  0.23752800  0.48388700  1
  O  507  1  0.34409700  0.72055800  0.46721500  1
  O  511  1  0.57278100  0.77129800  0.48127200  1
  O  512  1  0.42423900  0.76676900  0.38506200  1
  O  526  1  0.74986400  0.17207600  0.26062700  1
  O  530  1  0.83442600  0.27080800  0.12844900  1
  O  531  1  0.71345200  0.27843900  0.25149300  1
  O  545  1  0.74876600  0.83268400  0.60847500  1
  O  549  1  0.83555300  0.73435200  0.74009600  1
  O  550  1  0.71096900  0.72677600  0.61868600  1
  O  564  1  0.74878200  0.67728800  0.10451900  1
  O  568  1  0.83612400  0.80825100  0.20349400  1
  O  569  1  0.70770200  0.68652100  0.20937700  1
  O  583  1  0.74483400  0.32491900  0.76891700  1
  O  587  1  0.84104600  0.20157900  0.66448600  1
  O  588  1  0.69764500  0.31700100  0.66560700  1
  O  602  1  0.25784100  0.82850200  0.26479200  1
  O  606  1  0.17107200  0.73372500  0.13084100  1
  O  607  1  0.28829800  0.72041300  0.25268200  1
  O  621  1  0.24616800  0.17956400  0.60068200  1
  O  625  1  0.17756100  0.26891100  0.74305800  1
  O  626  1  0.26982800  0.29029000  0.61804600  1
  O  640  1  0.25848000  0.33161700  0.10819400  1
  O  644  1  0.16989100  0.19872400  0.20361200  1
  O  645  1  0.29389200  0.31990300  0.21469400  1
  O  659  1  0.25841400  0.67332600  0.76098500  1
  O  663  1  0.17064200  0.80667600  0.66581600  1
  O  664  1  0.29079100  0.68464000  0.65370500  1
