# generated using pymatgen
data_LaH9(C3O)6
_symmetry_space_group_name_H-M   'P 1'
_cell_length_a   15.33879000
_cell_length_b   23.09690350
_cell_length_c   23.09589715
_cell_angle_alpha   83.70642496
_cell_angle_beta   70.63651519
_cell_angle_gamma   70.64323055
_symmetry_Int_Tables_number   1
_chemical_formula_structural   LaH9(C3O)6
_chemical_formula_sum   'La16 H144 C288 O96'
_cell_volume   7283.17515065
_cell_formula_units_Z   16
loop_
 _symmetry_equiv_pos_site_id
 _symmetry_equiv_pos_as_xyz
  1  'x, y, z'
loop_
 _atom_site_type_symbol
 _atom_site_label
 _atom_site_symmetry_multiplicity
 _atom_site_fract_x
 _atom_site_fract_y
 _atom_site_fract_z
 _atom_site_occupancy
  La  La1  1  0.09322000  0.75781000  0.30087000  1.0
  La  La2  1  0.39480000  0.71340000  0.23667000  1.0
  La  La3  1  0.15219000  0.24211000  0.69881000  1.0
  La  La4  1  0.34526000  0.28668000  0.76326000  1.0
  La  La5  1  0.60141000  0.80132000  0.74209000  1.0
  La  La6  1  0.85830000  0.73665000  0.78671000  1.0
  La  La7  1  0.14438000  0.19890000  0.25793000  1.0
  La  La8  1  0.38190000  0.26306000  0.21352000  1.0
  La  La9  1  0.59374000  0.30120000  0.75810000  1.0
  La  La10  1  0.89492000  0.23647000  0.71360000  1.0
  La  La11  1  0.65230000  0.69901000  0.24218000  1.0
  La  La12  1  0.84457000  0.76356000  0.28682000  1.0
  La  La13  1  0.10134000  0.74215000  0.80082000  1.0
  La  La14  1  0.35847000  0.78666000  0.73604000  1.0
  La  La15  1  0.64423000  0.25792000  0.19895000  1.0
  La  La16  1  0.88153000  0.21327000  0.26310000  1.0
  H  H1  1  0.18110000  0.70466000  0.48076000  1.0
  H  H2  1  0.17708000  0.70168000  0.59005000  1.0
  H  H3  1  0.91994000  0.88160000  0.68168000  1.0
  H  H4  1  0.80729000  0.96941000  0.64461000  1.0
  H  H5  1  0.81490000  0.97504000  0.53478000  1.0
  H  H6  1  0.93643000  0.89333000  0.46183000  1.0
  H  H7  1  0.59101000  0.50103000  0.17438000  1.0
  H  H8  1  0.68775000  0.39282000  0.18327000  1.0
  H  H9  1  0.74937000  0.38198000  0.37632000  1.0
  H  H10  1  0.71546000  0.45735000  0.45471000  1.0
  H  H11  1  0.61434000  0.56654000  0.44632000  1.0
  H  H12  1  0.55650000  0.59934000  0.35766000  1.0
  H  H13  1  0.25169000  0.55004000  0.19866000  1.0
  H  H14  1  0.35759000  0.44059000  0.18330000  1.0
  H  H15  1  0.48267000  0.39399000  0.35515000  1.0
  H  H16  1  0.46419000  0.45351000  0.44299000  1.0
  H  H17  1  0.35950000  0.56322000  0.45680000  1.0
  H  H18  1  0.27608000  0.61317000  0.38115000  1.0
  H  H19  1  0.36684000  0.29544000  0.51894000  1.0
  H  H20  1  0.46985000  0.29809000  0.40970000  1.0
  H  H21  1  0.48459000  0.11791000  0.31837000  1.0
  H  H22  1  0.42205000  0.03028000  0.35530000  1.0
  H  H23  1  0.32460000  0.02497000  0.46498000  1.0
  H  H24  1  0.29135000  0.10674000  0.53790000  1.0
  H  H25  1  0.26646000  0.49910000  0.82547000  1.0
  H  H26  1  0.26340000  0.60740000  0.81646000  1.0
  H  H27  1  0.50685000  0.61849000  0.62363000  1.0
  H  H28  1  0.62727000  0.54330000  0.54545000  1.0
  H  H29  1  0.62787000  0.43388000  0.55394000  1.0
  H  H30  1  0.51424000  0.40085000  0.64241000  1.0
  H  H31  1  0.00042000  0.44966000  0.80125000  1.0
  H  H32  1  0.98155000  0.55911000  0.81676000  1.0
  H  H33  1  0.23111000  0.60609000  0.64473000  1.0
  H  H34  1  0.36001000  0.54665000  0.55699000  1.0
  H  H35  1  0.37962000  0.43673000  0.54342000  1.0
  H  H36  1  0.27069000  0.38664000  0.61901000  1.0
  H  H37  1  0.63533000  0.98156000  0.79574000  1.0
  H  H38  1  0.62869000  0.09082000  0.79847000  1.0
  H  H39  1  0.55198000  0.18192000  0.61811000  1.0
  H  H40  1  0.52668000  0.14459000  0.53052000  1.0
  H  H41  1  0.53964000  0.03476000  0.52519000  1.0
  H  H42  1  0.57954000  0.96208000  0.60707000  1.0
  H  H43  1  0.84196000  0.67447000  0.99926000  1.0
  H  H44  1  0.83023000  0.68351000  0.10750000  1.0
  H  H45  1  0.88088000  0.87643000  0.11859000  1.0
  H  H46  1  0.92290000  0.95465000  0.04338000  1.0
  H  H47  1  0.93183000  0.94615000  0.93399000  1.0
  H  H48  1  0.90667000  0.85764000  0.90091000  1.0
  H  H49  1  0.55227000  0.69868000  0.94960000  1.0
  H  H50  1  0.54841000  0.68322000  0.05915000  1.0
  H  H51  1  0.62605000  0.85508000  0.10643000  1.0
  H  H52  1  0.66724000  0.94296000  0.04723000  1.0
  H  H53  1  0.67320000  0.95669000  0.93730000  1.0
  H  H54  1  0.64016000  0.88111000  0.88692000  1.0
  H  H55  1  0.41221000  0.01920000  0.20467000  1.0
  H  H56  1  0.51791000  0.91004000  0.20181000  1.0
  H  H57  1  0.35261000  0.81828000  0.38167000  1.0
  H  H58  1  0.20268000  0.85511000  0.46939000  1.0
  H  H59  1  0.10008000  0.96477000  0.47499000  1.0
  H  H60  1  0.14831000  0.03777000  0.39334000  1.0
  H  H61  1  0.51527000  0.32512000  0.00115000  1.0
  H  H62  1  0.62122000  0.31649000  0.89301000  1.0
  H  H63  1  0.87584000  0.12359000  0.88195000  1.0
  H  H64  1  0.92046000  0.04521000  0.95714000  1.0
  H  H65  1  0.81103000  0.05351000  0.06633000  1.0
  H  H66  1  0.66441000  0.14203000  0.09927000  1.0
  H  H67  1  0.19992000  0.30123000  0.04994000  1.0
  H  H68  1  0.29069000  0.31658000  0.94053000  1.0
  H  H69  1  0.58754000  0.14467000  0.89417000  1.0
  H  H70  1  0.65660000  0.05704000  0.95390000  1.0
  H  H71  1  0.56536000  0.04338000  0.06357000  1.0
  H  H72  1  0.40628000  0.11899000  0.11324000  1.0
  H  H73  1  0.68121000  0.48145000  0.70441000  1.0
  H  H74  1  0.67712000  0.59077000  0.70167000  1.0
  H  H75  1  0.41976000  0.68201000  0.88180000  1.0
  H  H76  1  0.30704000  0.64473000  0.96943000  1.0
  H  H77  1  0.31497000  0.53487000  0.97484000  1.0
  H  H78  1  0.43669000  0.46213000  0.89305000  1.0
  H  H79  1  0.09066000  0.17440000  0.50094000  1.0
  H  H80  1  0.18790000  0.18326000  0.39282000  1.0
  H  H81  1  0.24935000  0.37619000  0.38202000  1.0
  H  H82  1  0.21538000  0.45466000  0.45731000  1.0
  H  H83  1  0.11443000  0.44625000  0.56653000  1.0
  H  H84  1  0.05636000  0.35768000  0.59939000  1.0
  H  H85  1  0.75180000  0.19883000  0.55034000  1.0
  H  H86  1  0.85735000  0.18340000  0.44077000  1.0
  H  H87  1  0.98275000  0.35518000  0.39387000  1.0
  H  H88  1  0.96434000  0.44306000  0.45331000  1.0
  H  H89  1  0.85970000  0.45693000  0.56306000  1.0
  H  H90  1  0.77639000  0.38127000  0.61315000  1.0
  H  H91  1  0.86672000  0.51888000  0.29562000  1.0
  H  H92  1  0.96963000  0.40969000  0.29817000  1.0
  H  H93  1  0.98424000  0.31854000  0.11789000  1.0
  H  H94  1  0.92166000  0.35564000  0.03029000  1.0
  H  H95  1  0.82437000  0.46535000  0.02506000  1.0
  H  H96  1  0.79126000  0.53815000  0.10694000  1.0
  H  H97  1  0.76618000  0.82538000  0.49931000  1.0
  H  H98  1  0.76359000  0.81644000  0.60749000  1.0
  H  H99  1  0.00688000  0.62367000  0.61855000  1.0
  H  H100  1  0.12731000  0.54549000  0.54333000  1.0
  H  H101  1  0.12785000  0.55394000  0.43395000  1.0
  H  H102  1  0.01412000  0.64233000  0.40090000  1.0
  H  H103  1  0.50014000  0.80138000  0.45017000  1.0
  H  H104  1  0.48170000  0.81672000  0.55959000  1.0
  H  H105  1  0.73125000  0.64462000  0.60617000  1.0
  H  H106  1  0.86006000  0.55687000  0.54665000  1.0
  H  H107  1  0.87950000  0.54345000  0.43672000  1.0
  H  H108  1  0.77053000  0.61911000  0.38671000  1.0
  H  H109  1  0.13551000  0.79548000  0.98102000  1.0
  H  H110  1  0.12842000  0.79831000  0.09036000  1.0
  H  H111  1  0.05197000  0.61811000  0.18157000  1.0
  H  H112  1  0.02692000  0.53032000  0.14437000  1.0
  H  H113  1  0.03964000  0.52490000  0.03459000  1.0
  H  H114  1  0.07947000  0.60668000  0.96176000  1.0
  H  H115  1  0.34169000  0.99886000  0.67450000  1.0
  H  H116  1  0.33024000  0.10716000  0.68319000  1.0
  H  H117  1  0.38078000  0.11856000  0.87621000  1.0
  H  H118  1  0.42277000  0.04338000  0.95448000  1.0
  H  H119  1  0.43190000  0.93395000  0.94597000  1.0
  H  H120  1  0.40652000  0.90087000  0.85754000  1.0
  H  H121  1  0.05214000  0.94975000  0.69850000  1.0
  H  H122  1  0.04861000  0.05922000  0.68312000  1.0
  H  H123  1  0.12628000  0.10619000  0.85511000  1.0
  H  H124  1  0.16730000  0.04688000  0.94300000  1.0
  H  H125  1  0.17331000  0.93698000  0.95656000  1.0
  H  H126  1  0.14018000  0.88670000  0.88091000  1.0
  H  H127  1  0.91241000  0.20466000  0.01914000  1.0
  H  H128  1  0.01810000  0.20186000  0.91000000  1.0
  H  H129  1  0.85273000  0.38175000  0.81831000  1.0
  H  H130  1  0.70259000  0.46930000  0.85517000  1.0
  H  H131  1  0.60003000  0.47486000  0.96485000  1.0
  H  H132  1  0.64856000  0.39325000  0.03786000  1.0
  H  H133  1  0.01535000  0.00105000  0.32527000  1.0
  H  H134  1  0.12088000  0.89286000  0.31646000  1.0
  H  H135  1  0.37564000  0.88187000  0.12362000  1.0
  H  H136  1  0.42041000  0.95703000  0.04525000  1.0
  H  H137  1  0.31113000  0.06621000  0.05352000  1.0
  H  H138  1  0.16452000  0.09922000  0.14204000  1.0
  H  H139  1  0.69999000  0.05004000  0.30124000  1.0
  H  H140  1  0.79057000  0.94061000  0.31652000  1.0
  H  H141  1  0.08740000  0.89421000  0.14466000  1.0
  H  H142  1  0.15660000  0.95387000  0.05700000  1.0
  H  H143  1  0.06556000  0.06355000  0.04332000  1.0
  H  H144  1  0.90654000  0.11335000  0.11893000  1.0
  C  C1  1  0.08191000  0.78602000  0.42201000  1.0
  C  C2  1  0.06848000  0.79024000  0.48895000  1.0
  C  C3  1  0.13010000  0.74169000  0.51197000  1.0
  C  C4  1  0.12702000  0.73970000  0.57342000  1.0
  C  C5  1  0.05926000  0.78569000  0.61379000  1.0
  C  C6  1  0.06303000  0.77977000  0.67806000  1.0
  C  C7  1  0.99273000  0.83614000  0.59318000  1.0
  C  C8  1  0.92330000  0.88417000  0.63371000  1.0
  C  C9  1  0.86051000  0.93323000  0.61301000  1.0
  C  C10  1  0.86518000  0.93638000  0.55064000  1.0
  C  C11  1  0.93260000  0.89103000  0.50974000  1.0
  C  C12  1  0.99814000  0.83933000  0.52923000  1.0
  C  C13  1  0.53041000  0.59182000  0.24878000  1.0
  C  C14  1  0.58960000  0.52856000  0.26012000  1.0
  C  C15  1  0.61441000  0.48601000  0.21460000  1.0
  C  C16  1  0.66813000  0.42484000  0.22009000  1.0
  C  C17  1  0.69629000  0.40400000  0.27200000  1.0
  C  C18  1  0.74382000  0.33682000  0.27525000  1.0
  C  C19  1  0.67571000  0.44665000  0.31941000  1.0
  C  C20  1  0.70752000  0.42936000  0.37192000  1.0
  C  C21  1  0.68740000  0.47178000  0.41610000  1.0
  C  C22  1  0.63165000  0.53330000  0.41101000  1.0
  C  C23  1  0.59902000  0.55191000  0.36100000  1.0
  C  C24  1  0.62119000  0.51033000  0.31324000  1.0
  C  C25  1  0.22252000  0.62622000  0.28622000  1.0
  C  C26  1  0.28367000  0.56050000  0.27985000  1.0
  C  C27  1  0.29036000  0.52769000  0.23105000  1.0
  C  C28  1  0.34915000  0.46607000  0.22274000  1.0
  C  C29  1  0.39970000  0.43659000  0.26326000  1.0
  C  C30  1  0.46470000  0.37279000  0.24747000  1.0
  C  C31  1  0.39138000  0.46875000  0.31571000  1.0
  C  C32  1  0.43694000  0.44151000  0.36090000  1.0
  C  C33  1  0.42594000  0.47510000  0.41020000  1.0
  C  C34  1  0.36798000  0.53733000  0.41761000  1.0
  C  C35  1  0.32184000  0.56540000  0.37511000  1.0
  C  C36  1  0.33243000  0.53231000  0.32347000  1.0
  C  C37  1  0.29038000  0.21405000  0.57771000  1.0
  C  C38  1  0.34813000  0.20977000  0.51081000  1.0
  C  C39  1  0.38431000  0.25830000  0.48778000  1.0
  C  C40  1  0.44104000  0.26012000  0.42642000  1.0
  C  C41  1  0.45984000  0.21395000  0.38616000  1.0
  C  C42  1  0.52171000  0.21997000  0.32188000  1.0
  C  C43  1  0.42295000  0.16356000  0.40677000  1.0
  C  C44  1  0.44221000  0.11545000  0.36626000  1.0
  C  C45  1  0.40745000  0.06649000  0.38690000  1.0
  C  C46  1  0.35246000  0.06351000  0.44919000  1.0
  C  C47  1  0.33351000  0.10894000  0.49006000  1.0
  C  C48  1  0.36717000  0.16056000  0.47063000  1.0
  C  C49  1  0.37130000  0.40831000  0.75126000  1.0
  C  C50  1  0.37835000  0.47162000  0.73981000  1.0
  C  C51  1  0.31500000  0.51417000  0.78527000  1.0
  C  C52  1  0.31275000  0.57542000  0.77968000  1.0
  C  C53  1  0.37179000  0.59631000  0.72775000  1.0
  C  C54  1  0.35524000  0.66350000  0.72405000  1.0
  C  C55  1  0.44144000  0.55363000  0.68049000  1.0
  C  C56  1  0.50839000  0.57104000  0.62807000  1.0
  C  C57  1  0.57516000  0.52871000  0.58399000  1.0
  C  C58  1  0.57624000  0.46711000  0.58912000  1.0
  C  C59  1  0.51232000  0.44835000  0.63907000  1.0
  C  C60  1  0.44480000  0.48989000  0.68674000  1.0
  C  C61  1  0.13553000  0.37359000  0.71381000  1.0
  C  C62  1  0.12433000  0.43930000  0.72024000  1.0
  C  C63  1  0.04923000  0.47202000  0.76897000  1.0
  C  C64  1  0.03786000  0.53370000  0.77726000  1.0
  C  C65  1  0.09928000  0.56327000  0.73673000  1.0
  C  C66  1  0.08459000  0.62711000  0.75248000  1.0
  C  C67  1  0.17557000  0.53120000  0.68429000  1.0
  C  C68  1  0.23886000  0.55851000  0.63905000  1.0
  C  C69  1  0.31085000  0.52493000  0.58984000  1.0
  C  C70  1  0.32285000  0.46261000  0.58252000  1.0
  C  C71  1  0.26250000  0.43446000  0.62505000  1.0
  C  C72  1  0.18832000  0.46756000  0.67662000  1.0
  C  C73  1  0.61874000  0.92241000  0.71412000  1.0
  C  C74  1  0.60891000  0.98945000  0.70996000  1.0
  C  C75  1  0.62166000  0.01266000  0.75857000  1.0
  C  C76  1  0.61673000  0.07410000  0.76043000  1.0
  C  C77  1  0.59537000  0.11433000  0.71423000  1.0
  C  C78  1  0.59351000  0.17859000  0.72010000  1.0
  C  C79  1  0.57924000  0.09357000  0.66381000  1.0
  C  C80  1  0.55778000  0.13395000  0.61569000  1.0
  C  C81  1  0.54386000  0.11309000  0.56673000  1.0
  C  C82  1  0.55152000  0.05072000  0.56374000  1.0
  C  C83  1  0.57362000  0.00998000  0.60918000  1.0
  C  C84  1  0.58770000  0.02961000  0.66078000  1.0
  C  C85  1  0.87226000  0.74882000  0.90839000  1.0
  C  C86  1  0.86816000  0.76021000  0.97170000  1.0
  C  C87  1  0.85032000  0.71473000  0.01426000  1.0
  C  C88  1  0.84271000  0.72029000  0.07549000  1.0
  C  C89  1  0.84998000  0.77220000  0.09638000  1.0
  C  C90  1  0.83009000  0.77583000  0.16356000  1.0
  C  C91  1  0.87218000  0.81953000  0.05373000  1.0
  C  C92  1  0.88675000  0.87197000  0.07114000  1.0
  C  C93  1  0.90935000  0.91607000  0.02880000  1.0
  C  C94  1  0.91552000  0.91092000  0.96719000  1.0
  C  C95  1  0.90147000  0.86097000  0.94842000  1.0
  C  C96  1  0.88163000  0.81330000  0.98998000  1.0
  C  C97  1  0.59926000  0.78628000  0.87370000  1.0
  C  C98  1  0.59464000  0.77985000  0.93943000  1.0
  C  C99  1  0.56849000  0.73104000  0.97210000  1.0
  C  C100  1  0.56543000  0.72269000  0.03380000  1.0
  C  C101  1  0.58649000  0.76315000  0.06342000  1.0
  C  C102  1  0.58787000  0.74737000  0.12722000  1.0
  C  C103  1  0.61024000  0.81564000  0.03137000  1.0
  C  C104  1  0.62824000  0.86084000  0.05883000  1.0
  C  C105  1  0.65095000  0.91013000  0.02541000  1.0
  C  C106  1  0.65565000  0.91752000  0.96307000  1.0
  C  C107  1  0.63782000  0.87504000  0.93478000  1.0
  C  C108  1  0.61513000  0.82343000  0.96775000  1.0
  C  C109  1  0.25440000  0.07785000  0.28607000  1.0
  C  C110  1  0.30789000  0.01093000  0.29026000  1.0
  C  C111  1  0.39256000  0.98798000  0.24171000  1.0
  C  C112  1  0.45111000  0.92661000  0.23976000  1.0
  C  C113  1  0.42376000  0.88622000  0.28575000  1.0
  C  C114  1  0.49159000  0.82194000  0.27975000  1.0
  C  C115  1  0.33655000  0.90675000  0.33616000  1.0
  C  C116  1  0.30779000  0.86618000  0.38419000  1.0
  C  C117  1  0.22425000  0.88674000  0.43323000  1.0
  C  C118  1  0.16632000  0.94902000  0.43636000  1.0
  C  C119  1  0.19267000  0.98995000  0.39100000  1.0
  C  C120  1  0.27782000  0.97062000  0.33932000  1.0
  C  C121  1  0.52917000  0.25104000  0.09180000  1.0
  C  C122  1  0.59971000  0.23952000  0.02859000  1.0
  C  C123  1  0.57902000  0.28501000  0.98608000  1.0
  C  C124  1  0.63834000  0.27960000  0.92493000  1.0
  C  C125  1  0.71838000  0.22772000  0.90408000  1.0
  C  C126  1  0.76919000  0.22424000  0.83692000  1.0
  C  C127  1  0.74519000  0.18035000  0.94668000  1.0
  C  C128  1  0.82960000  0.12796000  0.92932000  1.0
  C  C129  1  0.85377000  0.08376000  0.97163000  1.0
  C  C130  1  0.79292000  0.08879000  0.03314000  1.0
  C  C131  1  0.71024000  0.13874000  0.05185000  1.0
  C  C132  1  0.68452000  0.18649000  0.01035000  1.0
  C  C133  1  0.25916000  0.21392000  0.12631000  1.0
  C  C134  1  0.31339000  0.22036000  0.06054000  1.0
  C  C135  1  0.27110000  0.26896000  0.02768000  1.0
  C  C136  1  0.32161000  0.27717000  0.96603000  1.0
  C  C137  1  0.41273000  0.23671000  0.93657000  1.0
  C  C138  1  0.46214000  0.25259000  0.87282000  1.0
  C  C139  1  0.45675000  0.18429000  0.96877000  1.0
  C  C140  1  0.54742000  0.13904000  0.94168000  1.0
  C  C141  1  0.58557000  0.08985000  0.97537000  1.0
  C  C142  1  0.53484000  0.08250000  0.03759000  1.0
  C  C143  1  0.44627000  0.12504000  0.06552000  1.0
  C  C144  1  0.40556000  0.17665000  0.03235000  1.0
  C  C145  1  0.58296000  0.42236000  0.78601000  1.0
  C  C146  1  0.56897000  0.48940000  0.79012000  1.0
  C  C147  1  0.63032000  0.51256000  0.74153000  1.0
  C  C148  1  0.62716000  0.57401000  0.73965000  1.0
  C  C149  1  0.55949000  0.61421000  0.78581000  1.0
  C  C150  1  0.56288000  0.67854000  0.77981000  1.0
  C  C151  1  0.49291000  0.59355000  0.83620000  1.0
  C  C152  1  0.42327000  0.63402000  0.88426000  1.0
  C  C153  1  0.36047000  0.61321000  0.93324000  1.0
  C  C154  1  0.36529000  0.55082000  0.93628000  1.0
  C  C155  1  0.43287000  0.51002000  0.89089000  1.0
  C  C156  1  0.49848000  0.52959000  0.83927000  1.0
  C  C157  1  0.02989000  0.24882000  0.59180000  1.0
  C  C158  1  0.08922000  0.26014000  0.52857000  1.0
  C  C159  1  0.11411000  0.21462000  0.48599000  1.0
  C  C160  1  0.16810000  0.22010000  0.42485000  1.0
  C  C161  1  0.19636000  0.27199000  0.40409000  1.0
  C  C162  1  0.24411000  0.27538000  0.33695000  1.0
  C  C163  1  0.17563000  0.31937000  0.44676000  1.0
  C  C164  1  0.20750000  0.37185000  0.42942000  1.0
  C  C165  1  0.18740000  0.41603000  0.47180000  1.0
  C  C166  1  0.13169000  0.41093000  0.53332000  1.0
  C  C167  1  0.09894000  0.36096000  0.55197000  1.0
  C  C168  1  0.12100000  0.31320000  0.51041000  1.0
  C  C169  1  0.72340000  0.28626000  0.62636000  1.0
  C  C170  1  0.78418000  0.27987000  0.56059000  1.0
  C  C171  1  0.79051000  0.23116000  0.52783000  1.0
  C  C172  1  0.84903000  0.22287000  0.46615000  1.0
  C  C173  1  0.89963000  0.26337000  0.43660000  1.0
  C  C174  1  0.96472000  0.24751000  0.37282000  1.0
  C  C175  1  0.89144000  0.31582000  0.46870000  1.0
  C  C176  1  0.93702000  0.36098000  0.44140000  1.0
  C  C177  1  0.92609000  0.41029000  0.47494000  1.0
  C  C178  1  0.86818000  0.41772000  0.53721000  1.0
  C  C179  1  0.82212000  0.37521000  0.56536000  1.0
  C  C180  1  0.83269000  0.32356000  0.53230000  1.0
  C  C181  1  0.79042000  0.57789000  0.21409000  1.0
  C  C182  1  0.84806000  0.51094000  0.20985000  1.0
  C  C183  1  0.88418000  0.48782000  0.25840000  1.0
  C  C184  1  0.94086000  0.42641000  0.26018000  1.0
  C  C185  1  0.95958000  0.38615000  0.21402000  1.0
  C  C186  1  0.02128000  0.32176000  0.22000000  1.0
  C  C187  1  0.92274000  0.40688000  0.16362000  1.0
  C  C188  1  0.94191000  0.36645000  0.11547000  1.0
  C  C189  1  0.90716000  0.38719000  0.06652000  1.0
  C  C190  1  0.85224000  0.44949000  0.06358000  1.0
  C  C191  1  0.83336000  0.49029000  0.10906000  1.0
  C  C192  1  0.86711000  0.47077000  0.16064000  1.0
  C  C193  1  0.87103000  0.75119000  0.40837000  1.0
  C  C194  1  0.87828000  0.73976000  0.47166000  1.0
  C  C195  1  0.81488000  0.78518000  0.51426000  1.0
  C  C196  1  0.81274000  0.77963000  0.57549000  1.0
  C  C197  1  0.87179000  0.72772000  0.59637000  1.0
  C  C198  1  0.85538000  0.72415000  0.66357000  1.0
  C  C199  1  0.94137000  0.68045000  0.55370000  1.0
  C  C200  1  0.00832000  0.62806000  0.57111000  1.0
  C  C201  1  0.07516000  0.58400000  0.52877000  1.0
  C  C202  1  0.07622000  0.58912000  0.46717000  1.0
  C  C203  1  0.01225000  0.63902000  0.44840000  1.0
  C  C204  1  0.94474000  0.68669000  0.48994000  1.0
  C  C205  1  0.63504000  0.71377000  0.37383000  1.0
  C  C206  1  0.62399000  0.72029000  0.43956000  1.0
  C  C207  1  0.54907000  0.76903000  0.47240000  1.0
  C  C208  1  0.53799000  0.77727000  0.53405000  1.0
  C  C209  1  0.59961000  0.73672000  0.56348000  1.0
  C  C210  1  0.58525000  0.75253000  0.62723000  1.0
  C  C211  1  0.67577000  0.68430000  0.53130000  1.0
  C  C212  1  0.73905000  0.63901000  0.55856000  1.0
  C  C213  1  0.81094000  0.58980000  0.52495000  1.0
  C  C214  1  0.82283000  0.58256000  0.46262000  1.0
  C  C215  1  0.76240000  0.62512000  0.43453000  1.0
  C  C216  1  0.68824000  0.67668000  0.46768000  1.0
  C  C217  1  0.11806000  0.71396000  0.92196000  1.0
  C  C218  1  0.10870000  0.70974000  0.98895000  1.0
  C  C219  1  0.12165000  0.75834000  0.01208000  1.0
  C  C220  1  0.11659000  0.76027000  0.07354000  1.0
  C  C221  1  0.09510000  0.71415000  0.11381000  1.0
  C  C222  1  0.09294000  0.72017000  0.17807000  1.0
  C  C223  1  0.07905000  0.66368000  0.09314000  1.0
  C  C224  1  0.05775000  0.61558000  0.13361000  1.0
  C  C225  1  0.04391000  0.56655000  0.11283000  1.0
  C  C226  1  0.05149000  0.56350000  0.05048000  1.0
  C  C227  1  0.07351000  0.60891000  0.00966000  1.0
  C  C228  1  0.08752000  0.66058000  0.02919000  1.0
  C  C229  1  0.37249000  0.90823000  0.74874000  1.0
  C  C230  1  0.36816000  0.97154000  0.76014000  1.0
  C  C231  1  0.35016000  0.01402000  0.71464000  1.0
  C  C232  1  0.34254000  0.07526000  0.72008000  1.0
  C  C233  1  0.34985000  0.09621000  0.77196000  1.0
  C  C234  1  0.33021000  0.16337000  0.77540000  1.0
  C  C235  1  0.37206000  0.05366000  0.81935000  1.0
  C  C236  1  0.38656000  0.07112000  0.87180000  1.0
  C  C237  1  0.40921000  0.02879000  0.91591000  1.0
  C  C238  1  0.41544000  0.96717000  0.91079000  1.0
  C  C239  1  0.40138000  0.94837000  0.86086000  1.0
  C  C240  1  0.38156000  0.98990000  0.81319000  1.0
  C  C241  1  0.09902000  0.87370000  0.78608000  1.0
  C  C242  1  0.09462000  0.93939000  0.77966000  1.0
  C  C243  1  0.06847000  0.97214000  0.73088000  1.0
  C  C244  1  0.06541000  0.03381000  0.72263000  1.0
  C  C245  1  0.08623000  0.06337000  0.76325000  1.0
  C  C246  1  0.08736000  0.12717000  0.74747000  1.0
  C  C247  1  0.11013000  0.03125000  0.81566000  1.0
  C  C248  1  0.12826000  0.05862000  0.86087000  1.0
  C  C249  1  0.15097000  0.02513000  0.91014000  1.0
  C  C250  1  0.15568000  0.96279000  0.91743000  1.0
  C  C251  1  0.13788000  0.93455000  0.87489000  1.0
  C  C252  1  0.11511000  0.96762000  0.82332000  1.0
  C  C253  1  0.75453000  0.28598000  0.07784000  1.0
  C  C254  1  0.80810000  0.29029000  0.01094000  1.0
  C  C255  1  0.89276000  0.24174000  0.98795000  1.0
  C  C256  1  0.95135000  0.23983000  0.92659000  1.0
  C  C257  1  0.92409000  0.28587000  0.88622000  1.0
  C  C258  1  0.99188000  0.27983000  0.82190000  1.0
  C  C259  1  0.83684000  0.33625000  0.90678000  1.0
  C  C260  1  0.80796000  0.38425000  0.86622000  1.0
  C  C261  1  0.72428000  0.43321000  0.88682000  1.0
  C  C262  1  0.66637000  0.43632000  0.94911000  1.0
  C  C263  1  0.69285000  0.39098000  0.99002000  1.0
  C  C264  1  0.77810000  0.33938000  0.97065000  1.0
  C  C265  1  0.02923000  0.09178000  0.25125000  1.0
  C  C266  1  0.09971000  0.02853000  0.23965000  1.0
  C  C267  1  0.07901000  0.98597000  0.28510000  1.0
  C  C268  1  0.13823000  0.92479000  0.27963000  1.0
  C  C269  1  0.21826000  0.90392000  0.22774000  1.0
  C  C270  1  0.26899000  0.83670000  0.22421000  1.0
  C  C271  1  0.24510000  0.94660000  0.18042000  1.0
  C  C272  1  0.32946000  0.92925000  0.12799000  1.0
  C  C273  1  0.35370000  0.97154000  0.08380000  1.0
  C  C274  1  0.29297000  0.03306000  0.08884000  1.0
  C  C275  1  0.21027000  0.05178000  0.13880000  1.0
  C  C276  1  0.18446000  0.01030000  0.18657000  1.0
  C  C277  1  0.75833000  0.12623000  0.21379000  1.0
  C  C278  1  0.81310000  0.06056000  0.22017000  1.0
  C  C279  1  0.77105000  0.02772000  0.26888000  1.0
  C  C280  1  0.82156000  0.96610000  0.27712000  1.0
  C  C281  1  0.91267000  0.93669000  0.23664000  1.0
  C  C282  1  0.96203000  0.87295000  0.25252000  1.0
  C  C283  1  0.95671000  0.96890000  0.18425000  1.0
  C  C284  1  0.04739000  0.94174000  0.13903000  1.0
  C  C285  1  0.08561000  0.97539000  0.08982000  1.0
  C  C286  1  0.03499000  0.03762000  0.08248000  1.0
  C  C287  1  0.94639000  0.06561000  0.12499000  1.0
  C  C288  1  0.90546000  0.03246000  0.17656000  1.0
  O  O1  1  0.15018000  0.73979000  0.39181000  1.0
  O  O2  1  0.02697000  0.82553000  0.39483000  1.0
  O  O3  1  0.98672000  0.77735000  0.72377000  1.0
  O  O4  1  0.14248000  0.77463000  0.68629000  1.0
  O  O5  1  0.53128000  0.63947000  0.27426000  1.0
  O  O6  1  0.47783000  0.59988000  0.21436000  1.0
  O  O7  1  0.75280000  0.30199000  0.23121000  1.0
  O  O8  1  0.77779000  0.31118000  0.31841000  1.0
  O  O9  1  0.26369000  0.66859000  0.28038000  1.0
  O  O10  1  0.13239000  0.64001000  0.29653000  1.0
  O  O11  1  0.53477000  0.34853000  0.26869000  1.0
  O  O12  1  0.45144000  0.34277000  0.20816000  1.0
  O  O13  1  0.28311000  0.25990000  0.60815000  1.0
  O  O14  1  0.24700000  0.17478000  0.60457000  1.0
  O  O15  1  0.48813000  0.22256000  0.27637000  1.0
  O  O16  1  0.60424000  0.22523000  0.31347000  1.0
  O  O17  1  0.44532000  0.36078000  0.72580000  1.0
  O  O18  1  0.29253000  0.40014000  0.78579000  1.0
  O  O19  1  0.28655000  0.69840000  0.76851000  1.0
  O  O20  1  0.40552000  0.68910000  0.68007000  1.0
  O  O21  1  0.21322000  0.33133000  0.71965000  1.0
  O  O22  1  0.06953000  0.35977000  0.70349000  1.0
  O  O23  1  0.15160000  0.65142000  0.73128000  1.0
  O  O24  1  0.00198000  0.65707000  0.79170000  1.0
  O  O25  1  0.64124000  0.89226000  0.76023000  1.0
  O  O26  1  0.60356000  0.89510000  0.67452000  1.0
  O  O27  1  0.51485000  0.22442000  0.72264000  1.0
  O  O28  1  0.66791000  0.18675000  0.72521000  1.0
  O  O29  1  0.92088000  0.77420000  0.86078000  1.0
  O  O30  1  0.82767000  0.71446000  0.90026000  1.0
  O  O31  1  0.80524000  0.73158000  0.19861000  1.0
  O  O32  1  0.83721000  0.81958000  0.18905000  1.0
  O  O33  1  0.68283000  0.78019000  0.83139000  1.0
  O  O34  1  0.52290000  0.79686000  0.85986000  1.0
  O  O35  1  0.63393000  0.76855000  0.15140000  1.0
  O  O36  1  0.54455000  0.70816000  0.15734000  1.0
  O  O37  1  0.29284000  0.10822000  0.24013000  1.0
  O  O38  1  0.17188000  0.10477000  0.32536000  1.0
  O  O39  1  0.46058000  0.77641000  0.27729000  1.0
  O  O40  1  0.57933000  0.81354000  0.27459000  1.0
  O  O41  1  0.55575000  0.22578000  0.13940000  1.0
  O  O42  1  0.44222000  0.28545000  0.09987000  1.0
  O  O43  1  0.73471000  0.26856000  0.80216000  1.0
  O  O44  1  0.84562000  0.18064000  0.81125000  1.0
  O  O45  1  0.29491000  0.21964000  0.16851000  1.0
  O  O46  1  0.17945000  0.20345000  0.14024000  1.0
  O  O47  1  0.55340000  0.23125000  0.84857000  1.0
  O  O48  1  0.40983000  0.29209000  0.84284000  1.0
  O  O49  1  0.65162000  0.39202000  0.74001000  1.0
  O  O50  1  0.52795000  0.39525000  0.82557000  1.0
  O  O51  1  0.48635000  0.72381000  0.77700000  1.0
  O  O52  1  0.64192000  0.68727000  0.77488000  1.0
  O  O53  1  0.03043000  0.27443000  0.63948000  1.0
  O  O54  1  0.97764000  0.21422000  0.59988000  1.0
  O  O55  1  0.25334000  0.23131000  0.30208000  1.0
  O  O56  1  0.27803000  0.31861000  0.31138000  1.0
  O  O57  1  0.76483000  0.28012000  0.66862000  1.0
  O  O58  1  0.63320000  0.29704000  0.64024000  1.0
  O  O59  1  0.03527000  0.26841000  0.34872000  1.0
  O  O60  1  0.95103000  0.20846000  0.34274000  1.0
  O  O61  1  0.78185000  0.60797000  0.26053000  1.0
  O  O62  1  0.74843000  0.60524000  0.17433000  1.0
  O  O63  1  0.98768000  0.27630000  0.22243000  1.0
  O  O64  1  0.10386000  0.31321000  0.22529000  1.0
  O  O65  1  0.94469000  0.72557000  0.36069000  1.0
  O  O66  1  0.79231000  0.78586000  0.40029000  1.0
  O  O67  1  0.78654000  0.76857000  0.69848000  1.0
  O  O68  1  0.90594000  0.68038000  0.68916000  1.0
  O  O69  1  0.71288000  0.71950000  0.33157000  1.0
  O  O70  1  0.56910000  0.70341000  0.35995000  1.0
  O  O71  1  0.65222000  0.73124000  0.65153000  1.0
  O  O72  1  0.50291000  0.79201000  0.65718000  1.0
  O  O73  1  0.14021000  0.76020000  0.89185000  1.0
  O  O74  1  0.10276000  0.67441000  0.89467000  1.0
  O  O75  1  0.01400000  0.72291000  0.22369000  1.0
  O  O76  1  0.16733000  0.72517000  0.18634000  1.0
  O  O77  1  0.42090000  0.86065000  0.77424000  1.0
  O  O78  1  0.32826000  0.90013000  0.71415000  1.0
  O  O79  1  0.30477000  0.19828000  0.73132000  1.0
  O  O80  1  0.33820000  0.18889000  0.81884000  1.0
  O  O81  1  0.18252000  0.83127000  0.77995000  1.0
  O  O82  1  0.02255000  0.85998000  0.79676000  1.0
  O  O83  1  0.13323000  0.15150000  0.76861000  1.0
  O  O84  1  0.04401000  0.15710000  0.70820000  1.0
  O  O85  1  0.79216000  0.23943000  0.10786000  1.0
  O  O86  1  0.67284000  0.32576000  0.10516000  1.0
  O  O87  1  0.96067000  0.27722000  0.77649000  1.0
  O  O88  1  0.07966000  0.27471000  0.81337000  1.0
  O  O89  1  0.05520000  0.13944000  0.22547000  1.0
  O  O90  1  0.94262000  0.09988000  0.28622000  1.0
  O  O91  1  0.23444000  0.80187000  0.26846000  1.0
  O  O92  1  0.34549000  0.81106000  0.18063000  1.0
  O  O93  1  0.79368000  0.16854000  0.21981000  1.0
  O  O94  1  0.67871000  0.14003000  0.20324000  1.0
  O  O95  1  0.05340000  0.84882000  0.23158000  1.0
  O  O96  1  0.90938000  0.84289000  0.29163000  1.0
