# generated using pymatgen
data_MnH4(C2O)4
_symmetry_space_group_name_H-M   'P 1'
_cell_length_a   10.31770000
_cell_length_b   10.31770000
_cell_length_c   12.65270000
_cell_angle_alpha   100.75400000
_cell_angle_beta   100.75400000
_cell_angle_gamma   104.73000000
_symmetry_Int_Tables_number   1
_chemical_formula_structural   MnH4(C2O)4
_chemical_formula_sum   'Mn4 H16 C32 O16'
_cell_volume   1240.36545139
_cell_formula_units_Z   4
loop_
 _symmetry_equiv_pos_site_id
 _symmetry_equiv_pos_as_xyz
  1  'x, y, z'
loop_
 _atom_site_type_symbol
 _atom_site_label
 _atom_site_symmetry_multiplicity
 _atom_site_fract_x
 _atom_site_fract_y
 _atom_site_fract_z
 _atom_site_occupancy
  Mn  Mn1  1  0.62148000  0.22714000  0.09853000  1.0
  Mn  Mn2  1  0.77286000  0.37852000  0.40147000  1.0
  Mn  Mn3  1  0.37852000  0.77286000  0.90147000  1.0
  Mn  Mn4  1  0.22714000  0.62148000  0.59853000  1.0
  H  H1  1  0.32710000  0.38510000  0.40930000  1.0
  H  H2  1  0.96190000  0.17230000  0.19760000  1.0
  H  H3  1  0.07450000  0.07650000  0.07850000  1.0
  H  H4  1  0.31180000  0.13020000  0.12450000  1.0
  H  H5  1  0.61490000  0.67290000  0.09070000  1.0
  H  H6  1  0.82770000  0.03810000  0.30240000  1.0
  H  H7  1  0.92350000  0.92550000  0.42150000  1.0
  H  H8  1  0.86980000  0.68820000  0.37550000  1.0
  H  H9  1  0.67290000  0.61490000  0.59070000  1.0
  H  H10  1  0.03810000  0.82770000  0.80240000  1.0
  H  H11  1  0.92550000  0.92350000  0.92150000  1.0
  H  H12  1  0.68820000  0.86980000  0.87550000  1.0
  H  H13  1  0.38510000  0.32710000  0.90930000  1.0
  H  H14  1  0.17230000  0.96190000  0.69760000  1.0
  H  H15  1  0.07650000  0.07450000  0.57850000  1.0
  H  H16  1  0.13020000  0.31180000  0.62450000  1.0
  C  C1  1  0.34311000  0.26309000  0.27110000  1.0
  C  C2  1  0.27585000  0.32175000  0.34300000  1.0
  C  C3  1  0.13315000  0.28705000  0.31680000  1.0
  C  C4  1  0.05780000  0.19520000  0.21670000  1.0
  C  C5  1  0.12540000  0.13800000  0.14570000  1.0
  C  C6  1  0.26730000  0.17070000  0.17270000  1.0
  C  C7  1  0.49758000  0.29862000  0.30150000  1.0
  C  C8  1  0.06052000  0.34908000  0.39520000  1.0
  C  C9  1  0.73691000  0.65689000  0.22890000  1.0
  C  C10  1  0.67825000  0.72415000  0.15700000  1.0
  C  C11  1  0.71295000  0.86685000  0.18320000  1.0
  C  C12  1  0.80480000  0.94220000  0.28330000  1.0
  C  C13  1  0.86200000  0.87460000  0.35430000  1.0
  C  C14  1  0.82930000  0.73270000  0.32730000  1.0
  C  C15  1  0.70138000  0.50242000  0.19850000  1.0
  C  C16  1  0.65092000  0.93948000  0.10480000  1.0
  C  C17  1  0.65689000  0.73691000  0.72890000  1.0
  C  C18  1  0.72415000  0.67825000  0.65700000  1.0
  C  C19  1  0.86685000  0.71295000  0.68320000  1.0
  C  C20  1  0.94220000  0.80480000  0.78330000  1.0
  C  C21  1  0.87460000  0.86200000  0.85430000  1.0
  C  C22  1  0.73270000  0.82930000  0.82730000  1.0
  C  C23  1  0.50242000  0.70138000  0.69850000  1.0
  C  C24  1  0.93948000  0.65092000  0.60480000  1.0
  C  C25  1  0.26309000  0.34311000  0.77110000  1.0
  C  C26  1  0.32175000  0.27585000  0.84300000  1.0
  C  C27  1  0.28705000  0.13315000  0.81680000  1.0
  C  C28  1  0.19520000  0.05780000  0.71670000  1.0
  C  C29  1  0.13800000  0.12540000  0.64570000  1.0
  C  C30  1  0.17070000  0.26730000  0.67270000  1.0
  C  C31  1  0.29862000  0.49758000  0.80150000  1.0
  C  C32  1  0.34908000  0.06052000  0.89520000  1.0
  O  O1  1  0.55272000  0.21960000  0.25000000  1.0
  O  O2  1  0.56594000  0.40168000  0.37775000  1.0
  O  O3  1  0.13181000  0.44331000  0.47552000  1.0
  O  O4  1  0.93273000  0.29941000  0.37400000  1.0
  O  O5  1  0.78040000  0.44728000  0.25000000  1.0
  O  O6  1  0.59832000  0.43406000  0.12225000  1.0
  O  O7  1  0.55669000  0.86819000  0.02448000  1.0
  O  O8  1  0.70059000  0.06727000  0.12600000  1.0
  O  O9  1  0.44728000  0.78040000  0.75000000  1.0
  O  O10  1  0.43406000  0.59832000  0.62225000  1.0
  O  O11  1  0.86819000  0.55669000  0.52448000  1.0
  O  O12  1  0.06727000  0.70059000  0.62600000  1.0
  O  O13  1  0.21960000  0.55272000  0.75000000  1.0
  O  O14  1  0.40168000  0.56594000  0.87775000  1.0
  O  O15  1  0.44331000  0.13181000  0.97552000  1.0
  O  O16  1  0.29941000  0.93273000  0.87400000  1.0
