# generated using pymatgen
data_SiH24(C18O)2
_symmetry_space_group_name_H-M   'P 1'
_cell_length_a   36.00639146
_cell_length_b   35.99775495
_cell_length_c   36.00671444
_cell_angle_alpha   109.50980948
_cell_angle_beta   109.49068121
_cell_angle_gamma   109.39423884
_symmetry_Int_Tables_number   1
_chemical_formula_structural   SiH24(C18O)2
_chemical_formula_sum   'Si6 H144 C216 O12'
_cell_volume   35935.00172103
_cell_formula_units_Z   6
loop_
 _symmetry_equiv_pos_site_id
 _symmetry_equiv_pos_as_xyz
  1  'x, y, z'
loop_
 _atom_site_type_symbol
 _atom_site_label
 _atom_site_symmetry_multiplicity
 _atom_site_fract_x
 _atom_site_fract_y
 _atom_site_fract_z
 _atom_site_occupancy
  C  1  1  0.32658500  0.74105150  0.41553450  1
  C  2  1  0.29281450  0.75353050  0.40489800  1
  C  3  1  0.26965850  0.75612000  0.42944150  1
  C  4  1  0.27814950  0.74453600  0.46417450  1
  C  5  1  0.31282400  0.73309600  0.47536800  1
  C  6  1  0.33662300  0.73132750  0.45138950  1
  C  8  1  0.27557650  0.80681900  0.52396650  1
  C  9  1  0.32188700  0.83310100  0.55867000  1
  C  10  1  0.34375800  0.88079300  0.58323200  1
  C  11  1  0.32055700  0.90388100  0.57265200  1
  C  12  1  0.27498900  0.87802850  0.53681050  1
  C  13  1  0.25286150  0.83025550  0.51281200  1
  C  14  1  0.19552250  0.72420150  0.46181200  1
  C  15  1  0.25782250  0.72660750  0.52639900  1
  C  16  1  0.26981900  0.74933950  0.57267950  1
  C  17  1  0.27124400  0.72695750  0.59807150  1
  C  18  1  0.26003900  0.68091900  0.57782100  1
  C  19  1  0.24725550  0.65777750  0.53148700  1
  C  20  1  0.24550200  0.68007000  0.50604400  1
  C  21  1  0.17197200  0.68993450  0.41552450  1
  C  22  1  0.12421200  0.66594100  0.39016400  1
  C  23  1  0.09843950  0.67495050  0.41045000  1
  C  24  1  0.12163600  0.70847300  0.45679100  1
  C  25  1  0.16935600  0.73217900  0.48220400  1
  C  42  1  0.67471500  0.09498850  0.40969650  1
  C  43  1  0.70843800  0.11805950  0.45593950  1
  C  44  1  0.73156450  0.16575300  0.48174050  1
  C  45  1  0.72313400  0.19205650  0.46171850  1
  C  46  1  0.68851150  0.16863900  0.41560850  1
  C  47  1  0.66471100  0.12086550  0.38999350  1
  C  49  1  0.72566150  0.25438800  0.52656950  1
  C  50  1  0.67936150  0.24283600  0.50653550  1
  C  51  1  0.65744250  0.24546450  0.53231300  1
  C  52  1  0.68058500  0.25799150  0.57856350  1
  C  53  1  0.72614850  0.26768150  0.59828400  1
  C  54  1  0.74832050  0.26585600  0.57268250  1
  C  55  1  0.80576400  0.27227000  0.52410200  1
  C  56  1  0.74356600  0.27466200  0.46421200  1
  C  57  1  0.73155400  0.30895150  0.47491350  1
  C  58  1  0.73015500  0.33291900  0.45110400  1
  C  59  1  0.74141500  0.32387850  0.41631650  1
  C  60  1  0.75425950  0.29035650  0.40602800  1
  C  61  1  0.75596650  0.26665150  0.43006200  1
  C  62  1  0.82932050  0.24951550  0.51340300  1
  C  63  1  0.87707850  0.27188250  0.53720700  1
  C  64  1  0.90284300  0.31793150  0.57199150  1
  C  65  1  0.87964150  0.34109850  0.58228700  1
  C  66  1  0.83192300  0.31881450  0.55826250  1
  C  83  1  0.90526300  0.57791750  0.31423550  1
  C  84  1  0.88216800  0.58858250  0.33737750  1
  C  85  1  0.83449300  0.56402250  0.31546250  1
  C  86  1  0.80822950  0.52926700  0.26914650  1
  C  87  1  0.83167100  0.51803750  0.24648650  1
  C  88  1  0.87942600  0.54201450  0.26866650  1
  C  90  1  0.74600950  0.46958400  0.27173250  1
  C  91  1  0.75762900  0.43484950  0.26333150  1
  C  92  1  0.75497300  0.41030850  0.28647750  1
  C  93  1  0.74237750  0.42093700  0.32014450  1
  C  94  1  0.73265500  0.45681950  0.33012550  1
  C  95  1  0.73449500  0.48079900  0.30633700  1
  C  96  1  0.72794350  0.53167550  0.25117200  1
  C  97  1  0.72566150  0.46704800  0.18900650  1
  C  98  1  0.69141750  0.42079500  0.16548050  1
  C  99  1  0.66742450  0.39537550  0.11769100  1
  C  100  1  0.67638600  0.41557100  0.09186200  1
  C  101  1  0.70986050  0.46188600  0.11503150  1
  C  102  1  0.73359550  0.48735100  0.16278250  1
  C  103  1  0.75059200  0.57792950  0.26314950  1
  C  104  1  0.72815000  0.60329950  0.26451750  1
  C  105  1  0.68212450  0.58304450  0.25324700  1
  C  106  1  0.65905700  0.53672400  0.24043200  1
  C  107  1  0.68141550  0.51131050  0.23875900  1
  C  124  1  0.25894950  0.58383950  0.67396500  1
  C  125  1  0.24637800  0.53757600  0.65077700  1
  C  126  1  0.24366100  0.51177400  0.67266100  1
  C  127  1  0.25526300  0.53181500  0.71899600  1
  C  128  1  0.26674150  0.57793200  0.74168150  1
  C  129  1  0.26861750  0.60355500  0.71953750  1
  C  131  1  0.19303100  0.46699750  0.71645050  1
  C  132  1  0.16672100  0.48702650  0.72489250  1
  C  133  1  0.11905000  0.46123950  0.70176350  1
  C  134  1  0.09600550  0.41498200  0.66808950  1
  C  135  1  0.12188600  0.39527450  0.65806450  1
  C  136  1  0.16963700  0.42088750  0.68182450  1
  C  137  1  0.27563200  0.46945450  0.73688150  1
  C  138  1  0.27326850  0.52934950  0.79913300  1
  C  139  1  0.25059750  0.51869600  0.82272350  1
  C  140  1  0.27301550  0.54251750  0.87051600  1
  C  141  1  0.31903550  0.57727250  0.89628100  1
  C  142  1  0.34212350  0.58752050  0.87304600  1
  C  143  1  0.31979400  0.56346250  0.82529450  1
  C  144  1  0.30985150  0.48012250  0.72483600  1
  C  145  1  0.33385700  0.45631950  0.72343750  1
  C  146  1  0.32490100  0.42154850  0.73470050  1
  C  147  1  0.29143900  0.41127900  0.74756200  1
  C  148  1  0.26770600  0.43531500  0.74928300  1
  C  165  1  0.58502450  0.67932550  0.25247500  1
  C  166  1  0.53882200  0.65623150  0.24000350  1
  C  167  1  0.51304150  0.67817800  0.23737650  1
  C  168  1  0.53303850  0.72448400  0.24895550  1
  C  169  1  0.57910450  0.74709150  0.26037300  1
  C  170  1  0.60470300  0.72488550  0.26216550  1
  C  172  1  0.46819000  0.72197950  0.18668150  1
  C  173  1  0.48817550  0.73036850  0.16035800  1
  C  174  1  0.46237100  0.70723000  0.11265300  1
  C  175  1  0.41615800  0.67355050  0.08958250  1
  C  176  1  0.39649250  0.66358200  0.11547350  1
  C  177  1  0.42212000  0.68737000  0.16326000  1
  C  178  1  0.47074000  0.74249750  0.26933750  1
  C  179  1  0.53054350  0.80464550  0.26695500  1
  C  180  1  0.51983300  0.82820900  0.24424000  1
  C  181  1  0.54363250  0.87598250  0.26664000  1
  C  182  1  0.57844100  0.90175600  0.31267900  1
  C  183  1  0.58875350  0.87854950  0.33581000  1
  C  184  1  0.56472200  0.83081750  0.31349750  1
  C  185  1  0.48145350  0.73049100  0.30360550  1
  C  186  1  0.45767800  0.72914300  0.32760600  1
  C  187  1  0.42288250  0.74041200  0.31859250  1
  C  188  1  0.41256850  0.75323350  0.28508100  1
  C  189  1  0.43659250  0.75492550  0.26137200  1
  C  206  1  0.57919750  0.31933250  0.89857100  1
  C  207  1  0.58976500  0.34250050  0.87549450  1
  C  208  1  0.56519550  0.32061350  0.82779100  1
  C  209  1  0.53049200  0.27431200  0.80148000  1
  C  210  1  0.51932700  0.25164000  0.82490700  1
  C  211  1  0.54334350  0.27378250  0.87269200  1
  C  213  1  0.47076300  0.27692350  0.73920950  1
  C  214  1  0.43608100  0.26855250  0.75084350  1
  C  215  1  0.41150500  0.29170150  0.74817950  1
  C  216  1  0.42205450  0.32534350  0.73557200  1
  C  217  1  0.45789450  0.33530500  0.72585150  1
  C  218  1  0.48190200  0.31150900  0.72768900  1
  C  219  1  0.53288300  0.25637450  0.72119750  1
  C  220  1  0.46833250  0.19420900  0.71882450  1
  C  221  1  0.42205250  0.17072100  0.68463050  1
  C  222  1  0.39664800  0.12295050  0.66064750  1
  C  223  1  0.41686950  0.09710650  0.66962200  1
  C  224  1  0.46320350  0.12024000  0.70306750  1
  C  225  1  0.48866100  0.16797100  0.72676700  1
  C  226  1  0.57915500  0.26840250  0.74392850  1
  C  227  1  0.60453050  0.26981550  0.72153200  1
  C  228  1  0.58427500  0.25857800  0.67548400  1
  C  229  1  0.53794400  0.24572900  0.65233800  1
  C  230  1  0.51252000  0.24399050  0.67464550  1
  C  493  1  0.34328050  0.95207600  0.59655950  1
  C  494  1  0.36555450  0.97664700  0.64455950  1
  C  495  1  0.38929000  0.02441850  0.66834250  1
  C  496  1  0.39169350  0.04888150  0.64479200  1
  C  497  1  0.36972700  0.02436350  0.59660450  1
  C  500  1  0.34537500  0.97646350  0.57293850  1
  C  504  1  0.65782650  0.25912650  0.60400200  1
  C  505  1  0.63554150  0.28485800  0.60632350  1
  C  506  1  0.61181250  0.28489300  0.63036650  1
  C  507  1  0.60942500  0.25891900  0.65240800  1
  C  508  1  0.63139200  0.23268250  0.64982050  1
  C  511  1  0.65575200  0.23339600  0.62628200  1
  C  515  1  0.65041900  0.04679200  0.38423600  1
  C  516  1  0.67383000  0.02218850  0.38187650  1
  C  517  1  0.64983750  0.97441650  0.35780000  1
  C  518  1  0.60184050  0.94998550  0.33577200  1
  C  519  1  0.57819100  0.97453600  0.33839500  1
  C  522  1  0.60242600  0.02243750  0.36195250  1
  C  526  1  0.35088800  0.73994000  0.39163600  1
  C  527  1  0.32748450  0.71420700  0.34363650  1
  C  528  1  0.35148050  0.71415150  0.31986200  1
  C  529  1  0.39948100  0.74011350  0.34341950  1
  C  530  1  0.42312050  0.76635400  0.39160150  1
  C  533  1  0.39887900  0.76565650  0.41525950  1
  C  537  1  0.74115850  0.39701150  0.34440900  1
  C  538  1  0.71540050  0.34903300  0.32093750  1
  C  539  1  0.71526400  0.32523050  0.34490650  1
  C  540  1  0.74115500  0.34873450  0.39294150  1
  C  541  1  0.76741300  0.39689800  0.41665400  1
  C  544  1  0.76681600  0.42058600  0.39243800  1
  C  548  1  0.04783000  0.38951200  0.64384300  1
  C  549  1  0.02334300  0.38722800  0.66733300  1
  C  550  1  0.97558750  0.36313900  0.64338450  1
  C  551  1  0.95105500  0.34100900  0.59534900  1
  C  552  1  0.97548700  0.34354950  0.57161850  1
  C  555  1  0.02337350  0.36713350  0.59581300  1
  C  559  1  0.26021100  0.60931800  0.65125400  1
  C  560  1  0.28602400  0.61159900  0.62909100  1
  C  561  1  0.28619850  0.63569550  0.60541600  1
  C  562  1  0.26027700  0.65782200  0.60295200  1
  C  563  1  0.23396000  0.65527850  0.62479750  1
  C  566  1  0.23455200  0.63170300  0.64912400  1
  C  570  1  0.95344500  0.60183550  0.33698550  1
  C  571  1  0.97793200  0.64981550  0.35921550  1
  C  572  1  0.02568700  0.67361350  0.38291050  1
  C  573  1  0.05022650  0.65009950  0.38532500  1
  C  574  1  0.02579550  0.60193500  0.36340950  1
  C  577  1  0.97790850  0.57825250  0.33907800  1
  C  581  1  0.39068750  0.64925950  0.04137100  1
  C  582  1  0.38832950  0.67268800  0.01681950  1
  C  583  1  0.36422800  0.64869600  0.96903200  1
  C  584  1  0.34215750  0.60067400  0.94452850  1
  C  585  1  0.34477400  0.57700400  0.96902500  1
  C  588  1  0.36838800  0.60124500  0.01694400  1
  C  592  1  0.39810400  0.34961950  0.73436450  1
  C  593  1  0.35014000  0.32617200  0.70857700  1
  C  594  1  0.32630900  0.35014600  0.70846300  1
  C  595  1  0.34977800  0.39816400  0.73441400  1
  C  596  1  0.39792600  0.42185100  0.76070200  1
  C  599  1  0.42164150  0.39763000  0.76006350  1
  C  603  1  0.60315650  0.34204950  0.94678000  1
  C  604  1  0.65111700  0.36419000  0.97127200  1
  C  605  1  0.67495600  0.38789300  0.01906000  1
  C  606  1  0.65150000  0.39040450  0.04361950  1
  C  607  1  0.60335100  0.36857150  0.01918150  1
  C  610  1  0.57962550  0.34421950  0.97126100  1
  C  614  1  0.61047550  0.65654400  0.25361950  1
  C  615  1  0.61281400  0.63431500  0.27937300  1
  C  616  1  0.63691300  0.61060850  0.27946750  1
  C  617  1  0.65899200  0.60817800  0.25352700  1
  C  618  1  0.65638450  0.63008200  0.22726350  1
  C  621  1  0.63279450  0.65442800  0.22792450  1
  H  26  1  0.28024850  0.74454350  0.63148900  1
  H  27  1  0.27653650  0.78210900  0.58852050  1
  H  28  1  0.23776350  0.62405400  0.51547050  1
  H  29  1  0.23494300  0.66153750  0.47226350  1
  H  30  1  0.18889400  0.68086150  0.39965350  1
  H  31  1  0.10837850  0.64156050  0.35673700  1
  H  32  1  0.10394250  0.71497200  0.47283050  1
  H  33  1  0.18460500  0.75538900  0.51598500  1
  H  34  1  0.22028300  0.81322800  0.48640000  1
  H  35  1  0.25744050  0.89379650  0.52792800  1
  H  36  1  0.37724300  0.89856600  0.60805400  1
  H  37  1  0.34045300  0.81795300  0.56689900  1
  H  38  1  0.32225750  0.72694700  0.50179750  1
  H  39  1  0.24622250  0.76638400  0.42119250  1
  H  40  1  0.28572550  0.76219250  0.38007000  1
  H  41  1  0.36133400  0.72274800  0.46030500  1
  H  67  1  0.72109900  0.35730900  0.45963000  1
  H  68  1  0.72475100  0.31803700  0.50090100  1
  H  69  1  0.76377300  0.28382000  0.38181800  1
  H  70  1  0.76653600  0.24342400  0.42211200  1
  H  71  1  0.81240650  0.21673150  0.48740200  1
  H  72  1  0.89291700  0.25427900  0.52866700  1
  H  73  1  0.89733000  0.37481900  0.60650800  1
  H  74  1  0.81667000  0.33735850  0.56621550  1
  H  75  1  0.78088700  0.27198050  0.58823550  1
  H  76  1  0.74366050  0.27628150  0.63157200  1
  H  77  1  0.62396900  0.23685000  0.51659800  1
  H  78  1  0.66083650  0.23256550  0.47284500  1
  H  79  1  0.67910500  0.18567950  0.40006850  1
  H  80  1  0.75496200  0.18088950  0.51543250  1
  H  81  1  0.71547150  0.10027200  0.47165550  1
  H  82  1  0.64003550  0.10511500  0.35670950  1
  H  108  1  0.64306700  0.36197500  0.10187800  1
  H  109  1  0.68238050  0.40498950  0.18244000  1
  H  110  1  0.71634650  0.47785650  0.09729500  1
  H  111  1  0.75677900  0.52110750  0.17800750  1
  H  112  1  0.78336700  0.59378850  0.26997350  1
  H  113  1  0.74569000  0.63671300  0.27356400  1
  H  114  1  0.62535250  0.52070950  0.23092200  1
  H  115  1  0.66294250  0.47755100  0.22821650  1
  H  116  1  0.72831650  0.50723000  0.31570850  1
  H  117  1  0.72399850  0.46573550  0.35477000  1
  H  118  1  0.76362300  0.38544800  0.27942600  1
  H  119  1  0.76793250  0.42657250  0.23994300  1
  H  120  1  0.81466300  0.49157900  0.21391700  1
  H  121  1  0.81934350  0.57231100  0.33399450  1
  H  122  1  0.89992600  0.61343500  0.37086800  1
  H  123  1  0.89519050  0.53307500  0.25114950  1
  H  149  1  0.25546250  0.53402900  0.88637950  1
  H  150  1  0.21782800  0.49274200  0.80581000  1
  H  151  1  0.37583350  0.61168700  0.89073550  1
  H  152  1  0.33828650  0.57137250  0.81002000  1
  H  153  1  0.31889700  0.50611800  0.71806100  1
  H  154  1  0.35820600  0.46483500  0.71437600  1
  H  155  1  0.28495650  0.38706700  0.75706350  1
  H  156  1  0.24452600  0.42738300  0.75986500  1
  H  157  1  0.18667750  0.40533350  0.67241700  1
  H  158  1  0.10615600  0.36198100  0.63340900  1
  H  159  1  0.10122633  0.47694200  0.70882733  1
  H  160  1  0.18183750  0.52071350  0.74829800  1
  H  161  1  0.27290000  0.59349250  0.77427350  1
  H  162  1  0.23337550  0.47808000  0.65410750  1
  H  163  1  0.23773633  0.52185900  0.61728433  1
  H  164  1  0.27725850  0.63685550  0.73708100  1
  H  190  1  0.53508900  0.89182450  0.24905950  1
  H  191  1  0.49382250  0.81129200  0.21146450  1
  H  192  1  0.61299150  0.89625000  0.36952750  1
  H  193  1  0.57269100  0.81556200  0.33201500  1
  H  194  1  0.50745000  0.72369250  0.31267750  1
  H  195  1  0.46621400  0.72009050  0.35197750  1
  H  196  1  0.38835750  0.76276050  0.27857500  1
  H  197  1  0.42862750  0.76548600  0.23815950  1
  H  198  1  0.40659650  0.67801200  0.18031050  1
  H  199  1  0.36322800  0.63893600  0.09972400  1
  H  200  1  0.47805550  0.71425100  0.09485350  1
  H  201  1  0.52184050  0.75374900  0.17549250  1
  H  202  1  0.59463450  0.77966100  0.26652150  1
  H  203  1  0.47937900  0.65967700  0.22712300  1
  H  204  1  0.52312050  0.62274400  0.23133350  1
  H  205  1  0.63796150  0.74237100  0.27074550  1
  H  231  1  0.36323250  0.10716200  0.63631050  1
  H  232  1  0.40622650  0.18768450  0.67556100  1
  H  233  1  0.47918650  0.10248750  0.70956000  1
  H  234  1  0.52242450  0.18317250  0.74994100  1
  H  235  1  0.59500400  0.27516300  0.77670600  1
  H  236  1  0.63794450  0.27886700  0.73912050  1
  H  237  1  0.52193800  0.23624450  0.61861650  1
  H  238  1  0.47875500  0.23342850  0.65611850  1
  H  239  1  0.50830000  0.32086500  0.72151200  1
  H  240  1  0.46675500  0.35993650  0.71719450  1
  H  241  1  0.38668050  0.28466800  0.75683650  1
  H  242  1  0.42785600  0.24517600  0.76114900  1
  H  243  1  0.49292700  0.21907000  0.80786600  1
  H  244  1  0.57343150  0.33915150  0.81264900  1
  H  245  1  0.61460850  0.37597050  0.89328800  1
  H  246  1  0.53447100  0.25625450  0.88845050  1
  H  498  1  0.40471950  0.04119750  0.70311100  1
  H  499  1  0.36438800  0.95995400  0.66262300  1
  H  501  1  0.33040100  0.95940800  0.53821300  1
  H  503  1  0.40148950  0.05399250  0.57330200  1
  H  509  1  0.59638750  0.30424750  0.63174500  1
  H  510  1  0.63670500  0.30410850  0.59082050  1
  H  512  1  0.67071000  0.21361800  0.62415900  1
  H  514  1  0.59963450  0.17760650  0.64767600  1
  H  520  1  0.66781200  0.95761350  0.35639650  1
  H  521  1  0.70857150  0.03885600  0.39737150  1
  H  523  1  0.58477550  0.03951800  0.36411550  1
  H  525  1  0.52529150  0.94489950  0.34056000  1
  H  531  1  0.33351000  0.69478950  0.28509650  1
  H  532  1  0.29274450  0.69495550  0.32557000  1
  H  534  1  0.41652800  0.78543100  0.44998400  1
  H  536  1  0.47602750  0.82141200  0.41487050  1
  H  542  1  0.69589900  0.29047900  0.32688300  1
  H  543  1  0.69620400  0.33100300  0.28616700  1
  H  545  1  0.78658100  0.45529400  0.41014100  1
  H  547  1  0.82240050  0.42006700  0.46966950  1
  H  553  1  0.95887400  0.36180350  0.66142050  1
  H  554  1  0.04008650  0.40279750  0.70210500  1
  H  556  1  0.04036250  0.36922050  0.57809800  1
  H  558  1  0.94565350  0.34556050  0.51861500  1
  H  564  1  0.30560250  0.63703400  0.59007250  1
  H  565  1  0.30523700  0.59602700  0.63030700  1
  H  567  1  0.21470600  0.62960000  0.66397900  1
  H  569  1  0.17896550  0.65326350  0.59287900  1
  H  575  1  0.04239700  0.70836500  0.39829500  1
  H  576  1  0.96118850  0.66785600  0.35802850  1
  H  578  1  0.96092050  0.54354450  0.32415500  1
  H  580  1  0.05560900  0.57872450  0.39522750  1
  H  586  1  0.36283100  0.66668700  0.95227000  1
  H  587  1  0.40384500  0.70744600  0.03353900  1
  H  589  1  0.37050150  0.58357100  0.03398050  1
  H  591  1  0.34682450  0.52398300  0.93923850  1
  H  597  1  0.29157050  0.33214400  0.68907850  1
  H  598  1  0.33214050  0.29141300  0.68934550  1
  H  600  1  0.45633650  0.41530950  0.77987700  1
  H  602  1  0.42107650  0.47481900  0.81576050  1
  H  608  1  0.70969500  0.40322650  0.03577950  1
  H  609  1  0.66911200  0.36294550  0.95450850  1
  H  611  1  0.54493250  0.32937700  0.95426450  1
  H  613  1  0.58021250  0.40051600  0.04899650  1
  H  619  1  0.63830350  0.59523100  0.29884250  1
  H  620  1  0.59729800  0.63552200  0.29861500  1
  H  622  1  0.63067000  0.66934900  0.20813500  1
  H  624  1  0.65434250  0.59825550  0.17221000  1
  O  502  1  0.37189100  0.04567850  0.57181450  1
  O  513  1  0.62923850  0.20570550  0.66894700  1
  O  524  1  0.53210400  0.95325050  0.31928450  1
  O  535  1  0.46920800  0.79331250  0.41639450  1
  O  546  1  0.79431300  0.42164200  0.46278300  1
  O  557  1  0.95409800  0.32433850  0.52548950  1
  O  568  1  0.20701750  0.67447800  0.62255350  1
  O  579  1  0.04718750  0.57718100  0.36558450  1
  O  590  1  0.32561150  0.53088850  0.94766500  1
  O  601  1  0.42263050  0.46796000  0.78766250  1
  O  612  1  0.57865500  0.37085950  0.04059450  1
  O  623  1  0.67555300  0.62788900  0.20031900  1
  Si  7  1  0.25179250  0.75056550  0.49408000  1
  Si  48  1  0.74950250  0.24831400  0.49415450  1
  Si  89  1  0.75200050  0.49939900  0.24530050  1
  Si  130  1  0.24925750  0.49940200  0.74282850  1
  Si  171  1  0.50062900  0.74836850  0.24294950  1
  Si  212  1  0.50061750  0.25048450  0.74521000  1
