# generated using pymatgen
data_H9C10N4O
_symmetry_space_group_name_H-M   'P 1'
_cell_length_a   21.24240000
_cell_length_b   21.24240000
_cell_length_c   21.24240000
_cell_angle_alpha   90.00000000
_cell_angle_beta   90.00000000
_cell_angle_gamma   90.00000000
_symmetry_Int_Tables_number   1
_chemical_formula_structural   H9C10N4O
_chemical_formula_sum   'H108 C120 N48 O12'
_cell_volume   9585.41118176
_cell_formula_units_Z   12
loop_
 _symmetry_equiv_pos_site_id
 _symmetry_equiv_pos_as_xyz
  1  'x, y, z'
loop_
 _atom_site_type_symbol
 _atom_site_label
 _atom_site_symmetry_multiplicity
 _atom_site_fract_x
 _atom_site_fract_y
 _atom_site_fract_z
 _atom_site_occupancy
  C  1  1  0.19514800  0.28516000  0.23322800  1
  C  3  1  0.23320900  0.19510600  0.28521800  1
  C  5  1  0.28516600  0.23311300  0.19512100  1
  C  13  1  0.80062600  0.71063000  0.23324500  1
  C  15  1  0.76262600  0.80075200  0.28517500  1
  C  17  1  0.71066800  0.76272000  0.19509200  1
  C  25  1  0.80066800  0.28515900  0.76258800  1
  C  27  1  0.76260200  0.19510600  0.71059400  1
  C  29  1  0.71065000  0.23311000  0.80069600  1
  C  37  1  0.19519000  0.71063000  0.76256400  1
  C  39  1  0.23319000  0.80075200  0.71064000  1
  C  41  1  0.28514200  0.76272400  0.80072400  1
  C  49  1  0.81826400  0.72715900  0.77820400  1
  C  51  1  0.77829200  0.81822600  0.72707000  1
  C  53  1  0.72723400  0.77835000  0.81823200  1
  C  61  1  0.17758900  0.26867500  0.77820600  1
  C  63  1  0.21751300  0.17756400  0.72710200  1
  C  65  1  0.26858900  0.21746600  0.81823600  1
  C  73  1  0.17755900  0.72715900  0.21762100  1
  C  75  1  0.21753100  0.81822600  0.26875500  1
  C  77  1  0.26859000  0.77835400  0.17759300  1
  C  85  1  0.81823200  0.26867500  0.21762100  1
  C  87  1  0.77831200  0.17756100  0.26872100  1
  C  89  1  0.72723400  0.21746500  0.17758800  1
  C  97  1  0.03174800  0.49816800  0.24850800  1
  C  98  1  0.06578000  0.44411600  0.26706900  1
  C  99  1  0.13212800  0.44276500  0.26837500  1
  C  100  1  0.16571100  0.49848400  0.25360700  1
  C  101  1  0.13341700  0.55485800  0.23797200  1
  C  102  1  0.06699700  0.55284500  0.23330200  1
  C  105  1  0.96405800  0.49766000  0.24850900  1
  C  106  1  0.92880800  0.44298100  0.23331600  1
  C  107  1  0.86238800  0.44097100  0.23799700  1
  C  108  1  0.83010000  0.49734000  0.25365400  1
  C  109  1  0.86368400  0.55305400  0.26843000  1
  C  110  1  0.93003200  0.55170800  0.26708000  1
  C  117  1  0.83197000  0.61364000  0.28355500  1
  C  120  1  0.17069700  0.61390400  0.22855300  1
  C  123  1  0.82510400  0.38192000  0.22858600  1
  C  126  1  0.16384500  0.38218000  0.28350000  1
  C  129  1  0.96407200  0.49816400  0.74731400  1
  C  130  1  0.93003600  0.44411500  0.72875400  1
  C  131  1  0.86369200  0.44276500  0.72744600  1
  C  132  1  0.83010800  0.49848400  0.74221400  1
  C  133  1  0.86240200  0.55485500  0.75785200  1
  C  134  1  0.92882600  0.55284200  0.76252200  1
  C  137  1  0.03176100  0.49765600  0.74730800  1
  C  138  1  0.06701300  0.44297800  0.76250400  1
  C  139  1  0.13343200  0.44096900  0.75782400  1
  C  140  1  0.16572000  0.49733600  0.74216200  1
  C  141  1  0.13213300  0.55305000  0.72738500  1
  C  142  1  0.06578800  0.55170800  0.72873600  1
  C  149  1  0.16384700  0.61364000  0.71226000  1
  C  152  1  0.82512400  0.61390400  0.76727200  1
  C  155  1  0.17071600  0.38192000  0.76723400  1
  C  158  1  0.83197300  0.38218000  0.71232000  1
  C  161  1  0.24857900  0.03175700  0.49816400  1
  C  162  1  0.26718300  0.06576400  0.44411700  1
  C  163  1  0.26851100  0.13210800  0.44275600  1
  C  164  1  0.25373800  0.16571100  0.49846000  1
  C  165  1  0.23804700  0.13343100  0.55483000  1
  C  166  1  0.23334400  0.06701700  0.55282400  1
  C  169  1  0.24857800  0.96407600  0.49767400  1
  C  170  1  0.23336400  0.92881200  0.44301500  1
  C  171  1  0.23805700  0.86239400  0.44102000  1
  C  172  1  0.25374300  0.83012200  0.49738800  1
  C  173  1  0.26852100  0.86372600  0.55309200  1
  C  174  1  0.26716800  0.93007000  0.55173200  1
  C  181  1  0.28358900  0.83204400  0.61370200  1
  C  184  1  0.22859600  0.17071700  0.61386600  1
  C  187  1  0.22862300  0.82510000  0.38198200  1
  C  190  1  0.28359900  0.16379600  0.38215200  1
  C  193  1  0.74723600  0.96406800  0.49814600  1
  C  194  1  0.72864200  0.93006400  0.44409400  1
  C  195  1  0.72731400  0.86372000  0.44272800  1
  C  196  1  0.74207800  0.83011400  0.49843200  1
  C  197  1  0.75775800  0.86238800  0.55480600  1
  C  198  1  0.76245600  0.92880200  0.55280700  1
  C  201  1  0.74724600  0.03174800  0.49765600  1
  C  202  1  0.76248000  0.06700800  0.44299700  1
  C  203  1  0.75778200  0.13342300  0.44099600  1
  C  204  1  0.74207800  0.16570200  0.49736000  1
  C  205  1  0.72729000  0.13210000  0.55306000  1
  C  206  1  0.72864200  0.06575600  0.55170400  1
  C  213  1  0.71220800  0.16378700  0.61366400  1
  C  216  1  0.76720200  0.82509600  0.61384400  1
  C  219  1  0.76722600  0.17071100  0.38195500  1
  C  222  1  0.71223600  0.83203400  0.38211800  1
  C  225  1  0.49818300  0.24797200  0.03175700  1
  C  226  1  0.44415000  0.26658100  0.06578800  1
  C  227  1  0.44282200  0.26796300  0.13213200  1
  C  228  1  0.49855400  0.25323000  0.16570700  1
  C  229  1  0.55491800  0.23758200  0.13340700  1
  C  230  1  0.55288000  0.23281800  0.06699700  1
  C  233  1  0.49764200  0.24796200  0.96407200  1
  C  234  1  0.44294100  0.23281800  0.92883200  1
  C  235  1  0.44090600  0.23757200  0.86242200  1
  C  236  1  0.49727000  0.25322900  0.83011800  1
  C  237  1  0.55299800  0.26797300  0.86369800  1
  C  238  1  0.55167600  0.26656600  0.93003600  1
  C  245  1  0.61356000  0.28320800  0.83198800  1
  C  248  1  0.61399000  0.22827000  0.17067300  1
  C  251  1  0.38183100  0.22826900  0.82515200  1
  C  254  1  0.38226300  0.28320200  0.16383900  1
  C  257  1  0.49817800  0.74784000  0.96406200  1
  C  258  1  0.44414400  0.72924000  0.93003200  1
  C  259  1  0.44281300  0.72786600  0.86368800  1
  C  260  1  0.49854600  0.74259000  0.83010800  1
  C  261  1  0.55491400  0.75822800  0.86241200  1
  C  262  1  0.55288000  0.76298800  0.92882200  1
  C  265  1  0.49764200  0.74784800  0.03174900  1
  C  266  1  0.44293900  0.76298800  0.06699300  1
  C  267  1  0.44090600  0.75823400  0.13340400  1
  C  268  1  0.49727400  0.74258600  0.16570200  1
  C  269  1  0.55300200  0.72784600  0.13212300  1
  C  270  1  0.55167600  0.72925000  0.06577900  1
  C  277  1  0.61356600  0.71262200  0.16382800  1
  C  280  1  0.61399000  0.76753600  0.82514200  1
  C  283  1  0.38183500  0.76753200  0.17067400  1
  C  286  1  0.38225000  0.71263600  0.83198200  1
  H  8  1  0.22798300  0.10974800  0.32190300  1
  H  10  1  0.32176700  0.22790300  0.10972500  1
  H  12  1  0.10980100  0.32185500  0.22796900  1
  H  20  1  0.76787400  0.88608600  0.32189400  1
  H  22  1  0.67405800  0.76790800  0.10969700  1
  H  24  1  0.88599200  0.67396800  0.22800600  1
  H  32  1  0.76783800  0.10974900  0.67391200  1
  H  34  1  0.67404800  0.22789400  0.88609200  1
  H  36  1  0.88601600  0.32185100  0.76784600  1
  H  44  1  0.22793200  0.88608600  0.67392200  1
  H  46  1  0.32175300  0.76790800  0.88612000  1
  H  48  1  0.10982200  0.67396800  0.76780400  1
  H  56  1  0.74382000  0.89197600  0.68015800  1
  H  58  1  0.68027200  0.74393200  0.89198500  1
  H  60  1  0.89198500  0.68019200  0.74374800  1
  H  68  1  0.25194300  0.10381500  0.68017800  1
  H  70  1  0.31555300  0.25186400  0.89200400  1
  H  72  1  0.10386300  0.31562500  0.74372400  1
  H  80  1  0.25200100  0.89198000  0.31566500  1
  H  82  1  0.31554800  0.74393600  0.10383100  1
  H  84  1  0.10383900  0.68019200  0.25207600  1
  H  92  1  0.74388500  0.10381100  0.31564700  1
  H  94  1  0.68026600  0.25186500  0.10382500  1
  H  96  1  0.89196200  0.31562800  0.25210400  1
  H  103  1  0.04198300  0.40452100  0.28072600  1
  H  112  1  0.95383300  0.59129800  0.28075400  1
  H  113  1  0.24452700  0.48573600  0.21415300  1
  H  114  1  0.75127200  0.51008800  0.21422100  1
  H  115  1  0.04373800  0.59219800  0.21849800  1
  H  116  1  0.95205800  0.40362600  0.21850600  1
  H  118  1  0.85174400  0.63322800  0.32695100  1
  H  119  1  0.78176600  0.60613600  0.29220400  1
  H  121  1  0.20001100  0.61981200  0.27064200  1
  H  122  1  0.20200100  0.60561400  0.18850600  1
  H  124  1  0.79580000  0.37601200  0.27068100  1
  H  125  1  0.79379400  0.39021500  0.18854700  1
  H  127  1  0.21405400  0.38968700  0.29213200  1
  H  128  1  0.14408500  0.36260100  0.32690800  1
  H  135  1  0.95383300  0.40451700  0.71509400  1
  H  144  1  0.04198700  0.59129400  0.71506000  1
  H  145  1  0.75129000  0.48573600  0.78166800  1
  H  146  1  0.24454800  0.51008800  0.78159200  1
  H  147  1  0.95208200  0.59219800  0.77732200  1
  H  148  1  0.04376100  0.40362600  0.77731800  1
  H  150  1  0.14407500  0.63322400  0.66886000  1
  H  151  1  0.21405300  0.60613200  0.70360800  1
  H  153  1  0.79581000  0.61981200  0.72518200  1
  H  154  1  0.79382200  0.60561400  0.80731400  1
  H  156  1  0.20002000  0.37601100  0.72514000  1
  H  157  1  0.20202700  0.39021600  0.80727500  1
  H  159  1  0.78176200  0.38968800  0.70368800  1
  H  160  1  0.85173000  0.36260500  0.66891000  1
  H  167  1  0.28084400  0.04195100  0.40453000  1
  H  176  1  0.28084000  0.95388400  0.59131200  1
  H  177  1  0.21433600  0.24454500  0.48566600  1
  H  178  1  0.21433700  0.75129000  0.51018800  1
  H  179  1  0.21850200  0.04376300  0.59216400  1
  H  180  1  0.21853400  0.95205800  0.40366400  1
  H  182  1  0.32695500  0.85183800  0.63333800  1
  H  183  1  0.29226400  0.78184200  0.60622200  1
  H  185  1  0.27071500  0.19997800  0.61983200  1
  H  186  1  0.18860000  0.20206900  0.60552400  1
  H  188  1  0.27073700  0.79583800  0.37603200  1
  H  189  1  0.18861900  0.79375200  0.39031900  1
  H  191  1  0.29226100  0.21400200  0.38964000  1
  H  192  1  0.32697800  0.14401300  0.36253500  1
  H  199  1  0.71499000  0.95387600  0.40450700  1
  H  208  1  0.71496200  0.04194300  0.59128400  1
  H  209  1  0.78148900  0.75128000  0.48563800  1
  H  210  1  0.78148000  0.24453900  0.51015400  1
  H  211  1  0.77729000  0.95205400  0.59215600  1
  H  212  1  0.77731800  0.04375600  0.40365500  1
  H  214  1  0.66883200  0.14399600  0.63328600  1
  H  215  1  0.70353600  0.21399200  0.60618000  1
  H  217  1  0.72508800  0.79582800  0.61979400  1
  H  218  1  0.80720600  0.79375200  0.60550200  1
  H  220  1  0.72510200  0.19996700  0.37599300  1
  H  221  1  0.80721600  0.20206900  0.39029700  1
  H  223  1  0.70357400  0.78182800  0.38959900  1
  H  224  1  0.66886600  0.85182000  0.36249600  1
  H  231  1  0.40455500  0.28024600  0.04199200  1
  H  240  1  0.59126600  0.28025100  0.95383300  1
  H  241  1  0.48590600  0.21386400  0.24458500  1
  H  242  1  0.50991400  0.21386400  0.75124200  1
  H  243  1  0.59224000  0.21801600  0.04374200  1
  H  244  1  0.40358100  0.21801800  0.95208600  1
  H  246  1  0.63302600  0.32667700  0.85171600  1
  H  247  1  0.60604800  0.29177600  0.78177200  1
  H  249  1  0.61984000  0.27038500  0.19996300  1
  H  250  1  0.60575000  0.18823200  0.20200200  1
  H  252  1  0.37598300  0.27038900  0.79587000  1
  H  253  1  0.39007300  0.18823600  0.79381800  1
  H  255  1  0.38977300  0.29176200  0.21405900  1
  H  256  1  0.36280200  0.32667800  0.14411400  1
  H  263  1  0.40454900  0.71557800  0.95382800  1
  H  272  1  0.59126600  0.71556400  0.04198200  1
  H  273  1  0.48590600  0.78196000  0.75123400  1
  H  274  1  0.50991800  0.78195000  0.24457800  1
  H  275  1  0.59224000  0.77778400  0.95207200  1
  H  276  1  0.40357600  0.77778200  0.04373900  1
  H  278  1  0.63302600  0.66914300  0.14410900  1
  H  279  1  0.60606200  0.70407100  0.21404900  1
  H  281  1  0.61983600  0.72541800  0.79585600  1
  H  282  1  0.60574600  0.80756800  0.79381400  1
  H  284  1  0.37598500  0.72541200  0.19995400  1
  H  285  1  0.39007400  0.80756400  0.20201100  1
  H  287  1  0.38975500  0.70409200  0.78175800  1
  H  288  1  0.36279700  0.66914800  0.85169300  1
  N  2  1  0.19094500  0.24264200  0.28077900  1
  N  4  1  0.28070200  0.19083700  0.24264300  1
  N  6  1  0.24265100  0.28067000  0.19092100  1
  N  7  1  0.23012000  0.15536400  0.33775000  1
  N  9  1  0.33765500  0.22990800  0.15533100  1
  N  11  1  0.15541700  0.33770300  0.23008200  1
  N  14  1  0.80485800  0.75317800  0.28076900  1
  N  16  1  0.71513200  0.80500800  0.24260000  1
  N  18  1  0.75315400  0.71513600  0.19091100  1
  N  19  1  0.76572400  0.84046600  0.33772600  1
  N  21  1  0.65817400  0.76591600  0.15530700  1
  N  23  1  0.84038000  0.65810800  0.23012400  1
  N  26  1  0.80486600  0.24264200  0.71503200  1
  N  28  1  0.71511200  0.19083700  0.75316800  1
  N  30  1  0.75316400  0.28066600  0.80489600  1
  N  31  1  0.76569000  0.15536400  0.65806200  1
  N  33  1  0.65816000  0.22990700  0.84048400  1
  N  35  1  0.84040000  0.33770100  0.76573500  1
  N  38  1  0.19096100  0.75317800  0.71504200  1
  N  40  1  0.28068000  0.80501200  0.75321600  1
  N  42  1  0.24266100  0.71513600  0.80490000  1
  N  43  1  0.23009200  0.84047000  0.65808400  1
  N  45  1  0.33763700  0.76592200  0.84050800  1
  N  47  1  0.15543400  0.65810400  0.76568600  1
  N  50  1  0.82095200  0.77072800  0.73130200  1
  N  52  1  0.73147200  0.82099400  0.77071400  1
  N  54  1  0.77080800  0.73144800  0.82091400  1
  N  55  1  0.77888100  0.85920600  0.67421800  1
  N  57  1  0.67440600  0.77903200  0.85924400  1
  N  59  1  0.85923700  0.67430200  0.77883800  1
  N  62  1  0.17487700  0.22509200  0.73131600  1
  N  64  1  0.26434100  0.17480300  0.77073600  1
  N  66  1  0.22503600  0.26438200  0.82092900  1
  N  67  1  0.21689700  0.13660400  0.67423600  1
  N  69  1  0.32141500  0.21676900  0.85925400  1
  N  71  1  0.13660500  0.32152600  0.77881600  1
  N  74  1  0.17487300  0.77072800  0.26452300  1
  N  76  1  0.26435300  0.82099400  0.22511100  1
  N  78  1  0.22501700  0.73144800  0.17490900  1
  N  79  1  0.21694300  0.85920600  0.32160600  1
  N  81  1  0.32141500  0.77903600  0.13657600  1
  N  83  1  0.13658600  0.67430200  0.21698500  1
  N  86  1  0.82094800  0.22509200  0.26450500  1
  N  88  1  0.73148300  0.17480200  0.22508300  1
  N  90  1  0.77078800  0.26438200  0.17489900  1
  N  91  1  0.77892800  0.13660000  0.32158500  1
  N  93  1  0.67440600  0.21676900  0.13657200  1
  N  95  1  0.85921600  0.32152700  0.21700900  1
  O  104  1  0.22989400  0.49862600  0.25615800  1
  O  111  1  0.76591600  0.49720000  0.25621900  1
  O  136  1  0.76592600  0.49862600  0.73966700  1
  O  143  1  0.22990400  0.49720000  0.73959600  1
  O  168  1  0.25632100  0.22989100  0.49859200  1
  O  175  1  0.25632300  0.76594000  0.49727000  1
  O  200  1  0.73949800  0.76593000  0.49856000  1
  O  207  1  0.73949200  0.22988400  0.49722800  1
  O  232  1  0.49872400  0.25586700  0.22988900  1
  O  239  1  0.49710000  0.25586700  0.76594000  1
  O  264  1  0.49871400  0.73995400  0.76593000  1
  O  271  1  0.49710400  0.73995000  0.22988100  1
