# generated using pymatgen
data_Zn3P4H22(C5O6)2
_symmetry_space_group_name_H-M   'P 1'
_cell_length_a   4.68946000
_cell_length_b   24.55056000
_cell_length_c   29.35552000
_cell_angle_alpha   89.99636000
_cell_angle_beta   89.99636000
_cell_angle_gamma   89.99533000
_symmetry_Int_Tables_number   1
_chemical_formula_structural   Zn3P4H22(C5O6)2
_chemical_formula_sum   'Zn12 P16 H88 C40 O48'
_cell_volume   3379.66779451
_cell_formula_units_Z   4
loop_
 _symmetry_equiv_pos_site_id
 _symmetry_equiv_pos_as_xyz
  1  'x, y, z'
loop_
 _atom_site_type_symbol
 _atom_site_label
 _atom_site_symmetry_multiplicity
 _atom_site_fract_x
 _atom_site_fract_y
 _atom_site_fract_z
 _atom_site_occupancy
  Zn  Zn0  1  0.72422000  0.47018000  0.54892000  1
  Zn  Zn1  1  0.72418000  0.02983000  0.95108000  1
  Zn  Zn2  1  0.27584000  0.52983000  0.04894000  1
  Zn  Zn3  1  0.27562000  0.97017000  0.45108000  1
  Zn  Zn4  1  0.27579000  0.52985000  0.45102000  1
  Zn  Zn5  1  0.27578000  0.97016000  0.04898000  1
  Zn  Zn6  1  0.72418000  0.47017000  0.95103000  1
  Zn  Zn7  1  0.72423000  0.02984000  0.54898000  1
  Zn  Zn8  1  0.89306000  0.42453000  0.74986000  1
  Zn  Zn9  1  0.89278000  0.07551000  0.75013000  1
  Zn  Zn10  1  0.10702000  0.57548000  0.24987000  1
  Zn  Zn11  1  0.10701000  0.92452000  0.25017000  1
  P  P12  1  0.78992000  0.58223000  0.49256000  1
  P  P13  1  0.89535000  0.41482000  0.63922000  1
  P  P14  1  0.78996000  0.91779000  0.00744000  1
  P  P15  1  0.89541000  0.08518000  0.86078000  1
  P  P16  1  0.21016000  0.41783000  0.99254000  1
  P  P17  1  0.10450000  0.58515000  0.13922000  1
  P  P18  1  0.21018000  0.08219000  0.50746000  1
  P  P19  1  0.10438000  0.91489000  0.36081000  1
  P  P20  1  0.21008000  0.41777000  0.50740000  1
  P  P21  1  0.10469000  0.58513000  0.36060000  1
  P  P22  1  0.21004000  0.08224000  0.99262000  1
  P  P23  1  0.10469000  0.91489000  0.13942000  1
  P  P24  1  0.78992000  0.58223000  0.00738000  1
  P  P25  1  0.89525000  0.41491000  0.86058000  1
  P  P26  1  0.78976000  0.91777000  0.49266000  1
  P  P27  1  0.89535000  0.08509000  0.63940000  1
  H  H28  1  0.28112000  0.42253000  0.60054000  1
  H  H29  1  0.43148000  0.65590000  0.49655000  1
  H  H30  1  0.65515000  0.65014000  0.54439000  1
  H  H31  1  0.16733000  0.30541000  0.62403000  1
  H  H32  1  0.94790000  0.30180000  0.67300000  1
  H  H33  1  0.53451000  0.34223000  0.62829000  1
  H  H34  1  0.76718000  0.35226000  0.58129000  1
  H  H35  1  0.06400000  0.69362000  0.50073000  1
  H  H36  1  0.84169000  0.69679000  0.45198000  1
  H  H37  1  0.28113000  0.07747000  0.89947000  1
  H  H38  1  0.43150000  0.84413000  0.00346000  1
  H  H39  1  0.65513000  0.84989000  0.95561000  1
  H  H40  1  0.16732000  0.19460000  0.87597000  1
  H  H41  1  0.94796000  0.19820000  0.82700000  1
  H  H42  1  0.53452000  0.15778000  0.87171000  1
  H  H43  1  0.76714000  0.14776000  0.91871000  1
  H  H44  1  0.06403000  0.80641000  0.99927000  1
  H  H45  1  0.84168000  0.80323000  0.04801000  1
  H  H46  1  0.71888000  0.57743000  0.10050000  1
  H  H47  1  0.56865000  0.34416000  0.99639000  1
  H  H48  1  0.34543000  0.34988000  0.04429000  1
  H  H49  1  0.83268000  0.69459000  0.12401000  1
  H  H50  1  0.05209000  0.69817000  0.17298000  1
  H  H51  1  0.46546000  0.65773000  0.12827000  1
  H  H52  1  0.23286000  0.64774000  0.08128000  1
  H  H53  1  0.93608000  0.30650000  0.00067000  1
  H  H54  1  0.15841000  0.30324000  0.95192000  1
  H  H55  1  0.71885000  0.92267000  0.39959000  1
  H  H56  1  0.56869000  0.15585000  0.50357000  1
  H  H57  1  0.34546000  0.15014000  0.45567000  1
  H  H58  1  0.83262000  0.80544000  0.37598000  1
  H  H59  1  0.05213000  0.80186000  0.32702000  1
  H  H60  1  0.46539000  0.84230000  0.37173000  1
  H  H61  1  0.23277000  0.85225000  0.41874000  1
  H  H62  1  0.93611000  0.19353000  0.49932000  1
  H  H63  1  0.15842000  0.19674000  0.54806000  1
  H  H64  1  0.71907000  0.57744000  0.39935000  1
  H  H65  1  0.56851000  0.34409000  0.50344000  1
  H  H66  1  0.34495000  0.34981000  0.45558000  1
  H  H67  1  0.83273000  0.69454000  0.37589000  1
  H  H68  1  0.05209000  0.69827000  0.32692000  1
  H  H69  1  0.46556000  0.65774000  0.37154000  1
  H  H70  1  0.23310000  0.64765000  0.41853000  1
  H  H71  1  0.93601000  0.30636000  0.49926000  1
  H  H72  1  0.15837000  0.30322000  0.54801000  1
  H  H73  1  0.71911000  0.92257000  0.10066000  1
  H  H74  1  0.56844000  0.15591000  0.99661000  1
  H  H75  1  0.34478000  0.15020000  0.04445000  1
  H  H76  1  0.83277000  0.80548000  0.12410000  1
  H  H77  1  0.05205000  0.80173000  0.17308000  1
  H  H78  1  0.46558000  0.84227000  0.12846000  1
  H  H79  1  0.23312000  0.85238000  0.08148000  1
  H  H80  1  0.93596000  0.19367000  0.00076000  1
  H  H81  1  0.15834000  0.19678000  0.95202000  1
  H  H82  1  0.28088000  0.42263000  0.89931000  1
  H  H83  1  0.43148000  0.65589000  0.00339000  1
  H  H84  1  0.65506000  0.65020000  0.95554000  1
  H  H85  1  0.16728000  0.30550000  0.87588000  1
  H  H86  1  0.94793000  0.30177000  0.82690000  1
  H  H87  1  0.53448000  0.34232000  0.87152000  1
  H  H88  1  0.76697000  0.35240000  0.91851000  1
  H  H89  1  0.06400000  0.69360000  0.99923000  1
  H  H90  1  0.84158000  0.69673000  0.04797000  1
  H  H91  1  0.28098000  0.07736000  0.60065000  1
  H  H92  1  0.43133000  0.84415000  0.49660000  1
  H  H93  1  0.65458000  0.84974000  0.54449000  1
  H  H94  1  0.16735000  0.19450000  0.62411000  1
  H  H95  1  0.94798000  0.19823000  0.67309000  1
  H  H96  1  0.53456000  0.15769000  0.62846000  1
  H  H97  1  0.76705000  0.14764000  0.58147000  1
  H  H98  1  0.06389000  0.80644000  0.50075000  1
  H  H99  1  0.84146000  0.80333000  0.45203000  1
  H  H100  1  0.69677000  0.75001000  0.54352000  1
  H  H101  1  0.47205000  0.75002000  0.49579000  1
  H  H102  1  0.69684000  0.75004000  0.95646000  1
  H  H103  1  0.47207000  0.75002000  0.00420000  1
  H  H104  1  0.30311000  0.25012000  0.04350000  1
  H  H105  1  0.52795000  0.25003000  0.99578000  1
  H  H106  1  0.30316000  0.24992000  0.45649000  1
  H  H107  1  0.52796000  0.24996000  0.50422000  1
  H  H108  1  0.80019000  0.24991000  0.58096000  1
  H  H109  1  0.57340000  0.24997000  0.62842000  1
  H  H110  1  0.80012000  0.25009000  0.91904000  1
  H  H111  1  0.57336000  0.25003000  0.87158000  1
  H  H112  1  0.19989000  0.75008000  0.08094000  1
  H  H113  1  0.42666000  0.75000000  0.12840000  1
  H  H114  1  0.19984000  0.74993000  0.41905000  1
  H  H115  1  0.42661000  0.75001000  0.37158000  1
  C  C116  1  0.65851000  0.65022000  0.50690000  1
  C  C117  1  0.93895000  0.30211000  0.63552000  1
  C  C118  1  0.76115000  0.34959000  0.61872000  1
  C  C119  1  0.83543000  0.69727000  0.48936000  1
  C  C120  1  0.65851000  0.84981000  0.99310000  1
  C  C121  1  0.93895000  0.19790000  0.86447000  1
  C  C122  1  0.76115000  0.15042000  0.88128000  1
  C  C123  1  0.83545000  0.80275000  0.01063000  1
  C  C124  1  0.34173000  0.34984000  0.00681000  1
  C  C125  1  0.06106000  0.69787000  0.13551000  1
  C  C126  1  0.23881000  0.65039000  0.11870000  1
  C  C127  1  0.16465000  0.30280000  0.98930000  1
  C  C128  1  0.34177000  0.15017000  0.49315000  1
  C  C129  1  0.06103000  0.80215000  0.36449000  1
  C  C130  1  0.23871000  0.84963000  0.38131000  1
  C  C131  1  0.16468000  0.19721000  0.51068000  1
  C  C132  1  0.34151000  0.34976000  0.49307000  1
  C  C133  1  0.06109000  0.69788000  0.36439000  1
  C  C134  1  0.23894000  0.65037000  0.38111000  1
  C  C135  1  0.16460000  0.30271000  0.51063000  1
  C  C136  1  0.34142000  0.15024000  0.00696000  1
  C  C137  1  0.06111000  0.80214000  0.13561000  1
  C  C138  1  0.23895000  0.84965000  0.11890000  1
  C  C139  1  0.16455000  0.19730000  0.98940000  1
  C  C140  1  0.65849000  0.65022000  0.99303000  1
  C  C141  1  0.93892000  0.30217000  0.86437000  1
  C  C142  1  0.76111000  0.34968000  0.88109000  1
  C  C143  1  0.83540000  0.69726000  0.01059000  1
  C  C144  1  0.65828000  0.84978000  0.50700000  1
  C  C145  1  0.93899000  0.19784000  0.63562000  1
  C  C146  1  0.76121000  0.15033000  0.61889000  1
  C  C147  1  0.83529000  0.80278000  0.48940000  1
  C  C148  1  0.70192000  0.75001000  0.50602000  1
  C  C149  1  0.70196000  0.75002000  0.99397000  1
  C  C150  1  0.29805000  0.25006000  0.00600000  1
  C  C151  1  0.29807000  0.24995000  0.49400000  1
  C  C152  1  0.80356000  0.24995000  0.61840000  1
  C  C153  1  0.80351000  0.25006000  0.88159000  1
  C  C154  1  0.19652000  0.75002000  0.11839000  1
  C  C155  1  0.19647000  0.74999000  0.38160000  1
  O  O156  1  0.11479000  0.59020000  0.48654000  1
  O  O157  1  0.70062000  0.54526000  0.53189000  1
  O  O158  1  0.67424000  0.55819000  0.44592000  1
  O  O159  1  0.78560000  0.46556000  0.61605000  1
  O  O160  1  0.22809000  0.40816000  0.63383000  1
  O  O161  1  0.82661000  0.41477000  0.69147000  1
  O  O162  1  0.11481000  0.90980000  0.01345000  1
  O  O163  1  0.70067000  0.95477000  0.96811000  1
  O  O164  1  0.67425000  0.94183000  0.05408000  1
  O  O165  1  0.78559000  0.03443000  0.88393000  1
  O  O166  1  0.22813000  0.09186000  0.86618000  1
  O  O167  1  0.82659000  0.08522000  0.80854000  1
  O  O168  1  0.88529000  0.40984000  0.98654000  1
  O  O169  1  0.29976000  0.45478000  0.03186000  1
  O  O170  1  0.32569000  0.44183000  0.94589000  1
  O  O171  1  0.21446000  0.53441000  0.11608000  1
  O  O172  1  0.77180000  0.59181000  0.13381000  1
  O  O173  1  0.17331000  0.58520000  0.19146000  1
  O  O174  1  0.88531000  0.09017000  0.51347000  1
  O  O175  1  0.29966000  0.04522000  0.46814000  1
  O  O176  1  0.32575000  0.05818000  0.55410000  1
  O  O177  1  0.21454000  0.96563000  0.38393000  1
  O  O178  1  0.77170000  0.90832000  0.36625000  1
  O  O179  1  0.17322000  0.91480000  0.30857000  1
  O  O180  1  0.88521000  0.40978000  0.51344000  1
  O  O181  1  0.29929000  0.45475000  0.46808000  1
  O  O182  1  0.32580000  0.44181000  0.55403000  1
  O  O183  1  0.21443000  0.53445000  0.38386000  1
  O  O184  1  0.77195000  0.59181000  0.36608000  1
  O  O185  1  0.17300000  0.58516000  0.30832000  1
  O  O186  1  0.88517000  0.09024000  0.98655000  1
  O  O187  1  0.29910000  0.04527000  0.03193000  1
  O  O188  1  0.32583000  0.05818000  0.94598000  1
  O  O189  1  0.21441000  0.96555000  0.11615000  1
  O  O190  1  0.77194000  0.90820000  0.13393000  1
  O  O191  1  0.17292000  0.91485000  0.19171000  1
  O  O192  1  0.11476000  0.59021000  0.01346000  1
  O  O193  1  0.70084000  0.54527000  0.96806000  1
  O  O194  1  0.67419000  0.55818000  0.05403000  1
  O  O195  1  0.78553000  0.46554000  0.88387000  1
  O  O196  1  0.22804000  0.40831000  0.86603000  1
  O  O197  1  0.82691000  0.41481000  0.80830000  1
  O  O198  1  0.11457000  0.90979000  0.48654000  1
  O  O199  1  0.70074000  0.95472000  0.53199000  1
  O  O200  1  0.67407000  0.94185000  0.44602000  1
  O  O201  1  0.78555000  0.03444000  0.61612000  1
  O  O202  1  0.22810000  0.09167000  0.63395000  1
  O  O203  1  0.82678000  0.08517000  0.69167000  1
