# generated using pymatgen
data_H6C9N
_symmetry_space_group_name_H-M   'P 1'
_cell_length_a   9.91166667
_cell_length_b   34.11920000
_cell_length_c   34.12970000
_cell_angle_alpha   119.99300000
_cell_angle_beta   90.00000000
_cell_angle_gamma   90.00000000
_symmetry_Int_Tables_number   1
_chemical_formula_structural   H6C9N
_chemical_formula_sum   'H72 C108 N12'
_cell_volume   9996.29950114
_cell_formula_units_Z   12
loop_
 _symmetry_equiv_pos_site_id
 _symmetry_equiv_pos_as_xyz
  1  'x, y, z'
loop_
 _atom_site_type_symbol
 _atom_site_label
 _atom_site_symmetry_multiplicity
 _atom_site_fract_x
 _atom_site_fract_y
 _atom_site_fract_z
 _atom_site_occupancy
  C  1  1  0.01438900  0.41117600  0.24271500  1
  C  2  1  0.01525900  0.38708900  0.19475400  1
  C  3  1  0.01390500  0.41146600  0.17116000  1
  C  6  1  0.01423800  0.76328500  0.17066600  1
  C  7  1  0.01509600  0.81126000  0.19456000  1
  C  8  1  0.01382500  0.83483800  0.24252200  1
  C  11  1  0.01439900  0.83527500  0.59469600  1
  C  12  1  0.01518800  0.81138500  0.61878000  1
  C  13  1  0.01377600  0.76340900  0.59440800  1
  C  16  1  0.01710300  0.33893300  0.17056100  1
  C  17  1  0.01263700  0.24318000  0.12261800  1
  C  19  1  0.01695700  0.83546800  0.17061400  1
  C  20  1  0.01253800  0.88330400  0.12270200  1
  C  22  1  0.01704200  0.83533500  0.66692000  1
  C  23  1  0.01260700  0.88317800  0.76265000  1
  C  25  1  0.01577400  0.56212600  0.16194100  1
  C  26  1  0.01597400  0.84397900  0.40230300  1
  C  27  1  0.01567000  0.60362200  0.44378600  1
  C  28  1  0.01201000  0.19521800  0.09861400  1
  C  29  1  0.01194100  0.90724900  0.09868600  1
  C  30  1  0.01199100  0.90715400  0.81059700  1
  C  31  1  0.01573100  0.60346000  0.16170400  1
  C  32  1  0.01587300  0.84418900  0.44384700  1
  C  33  1  0.01559900  0.56208300  0.40244200  1
  C  34  1  0.01216900  0.05128700  0.02662400  1
  C  35  1  0.01215500  0.97912600  0.02664000  1
  C  46  1  0.01196000  0.02699100  0.05019000  1
  C  47  1  0.01195000  0.95555600  0.97878800  1
  C  48  1  0.01215500  0.97911700  0.95448800  1
  C  49  1  0.01193700  0.02698500  0.97877100  1
  C  53  1  0.01156600  0.45927200  0.19501600  1
  C  54  1  0.01070900  0.48244800  0.24270600  1
  C  55  1  0.01180900  0.45898000  0.26694000  1
  C  57  1  0.01154700  0.81095300  0.26643900  1
  C  58  1  0.01077000  0.76324900  0.24190200  1
  C  59  1  0.01173400  0.73903000  0.19421400  1
  C  61  1  0.01147600  0.73947300  0.54661600  1
  C  62  1  0.01070900  0.76400900  0.52344900  1
  C  63  1  0.01181200  0.81171300  0.54690700  1
  C  65  1  0.13819500  0.31311300  0.15763900  1
  C  67  1  0.88900400  0.26747300  0.13477700  1
  C  68  1  0.89300500  0.31529600  0.15872200  1
  C  71  1  0.01378900  0.09948000  0.05071200  1
  C  72  1  0.13544100  0.12492400  0.06344500  1
  C  73  1  0.89031600  0.12344900  0.06270400  1
  C  74  1  0.88768400  0.17129400  0.08664300  1
  C  75  1  0.76533400  0.19577200  0.09889600  1
  C  76  1  0.76598900  0.24337700  0.12272000  1
  C  80  1  0.27623300  0.33228300  0.16725100  1
  C  84  1  0.27065300  0.10366600  0.05281500  1
  C  87  1  0.13806300  0.84836500  0.15769900  1
  C  89  1  0.88889400  0.87116600  0.13484900  1
  C  90  1  0.89287400  0.84727100  0.15877700  1
  C  93  1  0.01375500  0.95504200  0.05074400  1
  C  94  1  0.13539900  0.94234600  0.06350000  1
  C  95  1  0.89027600  0.94306700  0.06273300  1
  C  96  1  0.88761700  0.91918200  0.08669100  1
  C  97  1  0.76526200  0.90695300  0.09893300  1
  C  98  1  0.76588900  0.88318500  0.12276700  1
  C  102  1  0.27609300  0.83876600  0.16727700  1
  C  106  1  0.27061400  0.95297000  0.05287400  1
  C  109  1  0.13814300  0.84824200  0.69273300  1
  C  111  1  0.88896500  0.87104100  0.73836600  1
  C  112  1  0.89295100  0.84714600  0.69055700  1
  C  115  1  0.01377500  0.95502100  0.90631000  1
  C  116  1  0.13542100  0.94229600  0.88087000  1
  C  117  1  0.89029800  0.94304100  0.88234800  1
  C  118  1  0.88766300  0.91911700  0.83451500  1
  C  119  1  0.76531200  0.90688700  0.81004600  1
  C  120  1  0.76595800  0.88309000  0.76245700  1
  C  124  1  0.27617300  0.83867500  0.67356400  1
  C  128  1  0.27063300  0.95292300  0.90212200  1
  C  132  1  0.01083100  0.69105000  0.17256500  1
  C  133  1  0.88978200  0.66707700  0.16895300  1
  C  136  1  0.13940300  0.62545300  0.16390200  1
  C  137  1  0.13521900  0.66915100  0.16900900  1
  C  139  1  0.01121400  0.48592000  0.17371500  1
  C  141  1  0.89027500  0.50599100  0.16964900  1
  C  142  1  0.13548900  0.50441100  0.17029300  1
  C  143  1  0.13955700  0.54263200  0.16457100  1
  C  144  1  0.26233100  0.56383400  0.16499800  1
  C  145  1  0.26225500  0.60486800  0.16462600  1
  C  149  1  0.75183800  0.68563500  0.17373400  1
  C  153  1  0.75426500  0.49071700  0.17415900  1
  C  157  1  0.01091500  0.83335600  0.52057000  1
  C  158  1  0.88987300  0.83693300  0.50018800  1
  C  161  1  0.13952700  0.84203400  0.46366800  1
  C  162  1  0.13530800  0.83689700  0.50222400  1
  C  164  1  0.01156600  0.83220900  0.31437900  1
  C  166  1  0.89049800  0.83626800  0.33845800  1
  C  167  1  0.13580200  0.83568800  0.33629600  1
  C  168  1  0.13978800  0.84142700  0.38023200  1
  C  169  1  0.26253300  0.84104200  0.40103800  1
  C  170  1  0.26241000  0.84138800  0.44241900  1
  C  174  1  0.75192600  0.83215400  0.51395600  1
  C  178  1  0.75447600  0.83177000  0.31868400  1
  C  182  1  0.01063900  0.48531100  0.31490900  1
  C  183  1  0.88964100  0.50571600  0.33886400  1
  C  186  1  0.13926300  0.54231500  0.38043800  1
  C  187  1  0.13504600  0.50374300  0.33675300  1
  C  189  1  0.01113400  0.69150700  0.51996100  1
  C  191  1  0.89011300  0.66744200  0.49993400  1
  C  192  1  0.13549000  0.66964100  0.50155400  1
  C  193  1  0.13947400  0.62573800  0.46328900  1
  C  194  1  0.26222000  0.60498000  0.44205700  1
  C  195  1  0.26212700  0.56360600  0.40101400  1
  C  199  1  0.75172200  0.49185200  0.32033400  1
  C  203  1  0.75413300  0.68723200  0.51523900  1
  H  4  1  0.01521700  0.39391200  0.26011500  1
  H  5  1  0.01469300  0.39441700  0.13650800  1
  H  9  1  0.01507500  0.74589400  0.13601100  1
  H  10  1  0.01467300  0.86950100  0.26013900  1
  H  14  1  0.01531300  0.86994300  0.61195300  1
  H  15  1  0.01452300  0.74579300  0.61145500  1
  H  36  1  0.28264400  0.08264200  0.01625400  1
  H  37  1  0.28263800  0.93741700  0.01631200  1
  H  50  1  0.01263700  0.92086900  0.96145700  1
  H  51  1  0.01265600  0.04432800  0.96143000  1
  H  52  1  0.01264600  0.04433700  0.08486700  1
  H  56  1  0.00915600  0.51720700  0.26018600  1
  H  60  1  0.00937700  0.74574200  0.25915600  1
  H  64  1  0.00922300  0.74674000  0.48869900  1
  H  69  1  0.80426700  0.33314200  0.16767200  1
  H  77  1  0.67469300  0.17913000  0.09057100  1
  H  78  1  0.67581200  0.26029900  0.13119400  1
  H  79  1  0.80118100  0.10583700  0.05389700  1
  H  81  1  0.27730100  0.36916400  0.18570400  1
  H  82  1  0.33025900  0.32068200  0.13546100  1
  H  83  1  0.33016900  0.32063900  0.18742600  1
  H  85  1  0.35064900  0.12909000  0.06553500  1
  H  86  1  0.28262900  0.08260900  0.06832700  1
  H  91  1  0.80412600  0.83832400  0.16767000  1
  H  99  1  0.67462700  0.91525300  0.09058600  1
  H  100  1  0.67570300  0.87472600  0.13122400  1
  H  101  1  0.80114900  0.95185800  0.05390900  1
  H  103  1  0.27714600  0.82035900  0.18574800  1
  H  104  1  0.33013400  0.87057100  0.18742400  1
  H  105  1  0.33002700  0.81854600  0.13547300  1
  H  107  1  0.35060000  0.94028000  0.06561000  1
  H  108  1  0.28258800  0.98954000  0.06837300  1
  H  113  1  0.80421100  0.83825200  0.67271900  1
  H  121  1  0.67467300  0.91521400  0.82668700  1
  H  122  1  0.67577200  0.87464100  0.74554200  1
  H  123  1  0.80117000  0.95184800  0.89995300  1
  H  125  1  0.27723300  0.82023100  0.63669300  1
  H  126  1  0.33020900  0.81849900  0.68518800  1
  H  127  1  0.33010700  0.87049500  0.68517500  1
  H  129  1  0.35062900  0.94020600  0.87670200  1
  H  130  1  0.28261900  0.93738900  0.92315700  1
  H  131  1  0.28262800  0.98949200  0.92315100  1
  H  138  1  0.22356700  0.68682500  0.17452700  1
  H  146  1  0.35248600  0.55065600  0.16762800  1
  H  147  1  0.35235500  0.62061300  0.16701200  1
  H  148  1  0.22387100  0.49235100  0.17590800  1
  H  150  1  0.75075900  0.71882200  0.17636000  1
  H  151  1  0.70439200  0.68862900  0.20397100  1
  H  152  1  0.69177200  0.66272800  0.14425500  1
  H  154  1  0.67516700  0.51014100  0.16924300  1
  H  155  1  0.74175400  0.49481200  0.20776900  1
  H  156  1  0.74111400  0.45510400  0.14880500  1
  H  163  1  0.22363600  0.83150000  0.51448400  1
  H  171  1  0.35272800  0.83850200  0.38529000  1
  H  172  1  0.35251900  0.83907800  0.45581600  1
  H  173  1  0.22416400  0.83016900  0.31864100  1
  H  175  1  0.75082900  0.82954400  0.54451500  1
  H  176  1  0.70449700  0.80189900  0.48672600  1
  H  177  1  0.69185300  0.86163600  0.52050900  1
  H  179  1  0.67538300  0.83669800  0.34302200  1
  H  180  1  0.74193100  0.79815000  0.28917900  1
  H  181  1  0.74136000  0.85713100  0.30843200  1
  H  188  1  0.22338500  0.49150000  0.31909800  1
  H  196  1  0.35240500  0.62074600  0.45525800  1
  H  197  1  0.35223500  0.55023700  0.38528600  1
  H  198  1  0.22380400  0.68736400  0.51358800  1
  H  200  1  0.75072800  0.46129100  0.28716500  1
  H  201  1  0.70405200  0.51906400  0.31732600  1
  H  202  1  0.69181900  0.48524900  0.34325200  1
  H  204  1  0.67501000  0.66290500  0.49582000  1
  H  205  1  0.74161400  0.71677400  0.51117600  1
  H  206  1  0.74103900  0.69744600  0.55083500  1
  N  18  1  0.12866800  0.17099400  0.08649500  1
  N  21  1  0.12860000  0.91934900  0.08656800  1
  N  24  1  0.12864000  0.91926300  0.83481300  1
  N  66  1  0.12985000  0.26707900  0.13458800  1
  N  88  1  0.12974000  0.87136600  0.13466800  1
  N  110  1  0.12981000  0.87123700  0.73875200  1
  N  134  1  0.89831700  0.62504800  0.16401800  1
  N  140  1  0.89839000  0.54280000  0.16420800  1
  N  159  1  0.89844000  0.84186100  0.46309900  1
  N  165  1  0.89860000  0.84169200  0.38069200  1
  N  184  1  0.89817500  0.54280300  0.38088200  1
  N  190  1  0.89826500  0.62520500  0.46312000  1
