# generated using pymatgen
data_CoHC4N2O3
_symmetry_space_group_name_H-M   'P 1'
_cell_length_a   6.97329000
_cell_length_b   15.11471000
_cell_length_c   15.11960302
_cell_angle_alpha   117.63162442
_cell_angle_beta   98.84081381
_cell_angle_gamma   98.85615000
_symmetry_Int_Tables_number   1
_chemical_formula_structural   CoHC4N2O3
_chemical_formula_sum   'Co6 H6 C24 N12 O18'
_cell_volume   1348.10361066
_cell_formula_units_Z   6
loop_
 _symmetry_equiv_pos_site_id
 _symmetry_equiv_pos_as_xyz
  1  'x, y, z'
loop_
 _atom_site_type_symbol
 _atom_site_label
 _atom_site_symmetry_multiplicity
 _atom_site_fract_x
 _atom_site_fract_y
 _atom_site_fract_z
 _atom_site_occupancy
  Co  Co0  1  0.38546000  0.41695000  0.67779000  1
  Co  Co1  1  0.70594000  0.32157000  0.73924000  1
  Co  Co2  1  0.96767000  0.26075000  0.58280000  1
  Co  Co3  1  0.61432000  0.58305000  0.32208000  1
  Co  Co4  1  0.29395000  0.67853000  0.26084000  1
  Co  Co5  1  0.03241000  0.73933000  0.41733000  1
  H  H6  1  0.15594000  0.47345000  0.02294000  1
  H  H7  1  0.13359000  0.97770000  0.45037000  1
  H  H8  1  0.68267000  0.54937000  0.52725000  1
  H  H9  1  0.84420000  0.52671000  0.97703000  1
  H  H10  1  0.86649000  0.02233000  0.54978000  1
  H  H11  1  0.31743000  0.45069000  0.47282000  1
  C  C12  1  0.53043000  0.46507000  0.89957000  1
  C  C13  1  0.33175000  0.44995000  0.91276000  1
  C  C14  1  0.30675000  0.48543000  0.01261000  1
  C  C15  1  0.14891000  0.39160000  0.82439000  1
  C  C16  1  0.63145000  0.10040000  0.56610000  1
  C  C17  1  0.41977000  0.08743000  0.53753000  1
  C  C18  1  0.29454000  0.98773000  0.47263000  1
  C  C19  1  0.32555000  0.17577000  0.56744000  1
  C  C20  1  0.06566000  0.43395000  0.53439000  1
  C  C21  1  0.88229000  0.46233000  0.54978000  1
  C  C22  1  0.82154000  0.52724000  0.51493000  1
  C  C23  1  0.75843000  0.43229000  0.60825000  1
  C  C24  1  0.46961000  0.53510000  0.10040000  1
  C  C25  1  0.66831000  0.55021000  0.08722000  1
  C  C26  1  0.69335000  0.51472000  0.98736000  1
  C  C27  1  0.85115000  0.60847000  0.17561000  1
  C  C28  1  0.36864000  0.89966000  0.43398000  1
  C  C29  1  0.58032000  0.91263000  0.46254000  1
  C  C30  1  0.70555000  0.01232000  0.52747000  1
  C  C31  1  0.67449000  0.82428000  0.43259000  1
  C  C32  1  0.93434000  0.56607000  0.46557000  1
  C  C33  1  0.11771000  0.53767000  0.45017000  1
  C  C34  1  0.17851000  0.47280000  0.48506000  1
  C  C35  1  0.24164000  0.56773000  0.39176000  1
  N  N36  1  0.36623000  0.56251000  0.74881000  1
  N  N37  1  0.36365000  0.64632000  0.78542000  1
  N  N38  1  0.61715000  0.25072000  0.81386000  1
  N  N39  1  0.57776000  0.21453000  0.86144000  1
  N  N40  1  0.80303000  0.18584000  0.43708000  1
  N  N41  1  0.71633000  0.13894000  0.35335000  1
  N  N42  1  0.63360000  0.43752000  0.25114000  1
  N  N43  1  0.63640000  0.35374000  0.21464000  1
  N  N44  1  0.38269000  0.74949000  0.18617000  1
  N  N45  1  0.42216000  0.78551000  0.13847000  1
  N  N46  1  0.19705000  0.81410000  0.56288000  1
  N  N47  1  0.28347000  0.86101000  0.64666000  1
  O  O48  1  0.57020000  0.43397000  0.80668000  1
  O  O49  1  0.17079000  0.35266000  0.73171000  1
  O  O50  1  0.97861000  0.38003000  0.84385000  1
  O  O51  1  0.76465000  0.19305000  0.62841000  1
  O  O52  1  0.44021000  0.26847000  0.62102000  1
  O  O53  1  0.13594000  0.15633000  0.53635000  1
  O  O54  1  0.13680000  0.37173000  0.56493000  1
  O  O55  1  0.81890000  0.37849000  0.64727000  1
  O  O56  1  0.60029000  0.46375000  0.62008000  1
  O  O57  1  0.42978000  0.56626000  0.19328000  1
  O  O58  1  0.82926000  0.64735000  0.26828000  1
  O  O59  1  0.02146000  0.62003000  0.15615000  1
  O  O60  1  0.23530000  0.80705000  0.37164000  1
  O  O61  1  0.55980000  0.73159000  0.37898000  1
  O  O62  1  0.86412000  0.84372000  0.46368000  1
  O  O63  1  0.86312000  0.62824000  0.43498000  1
  O  O64  1  0.18112000  0.62151000  0.35273000  1
  O  O65  1  0.39975000  0.53624000  0.37990000  1
