# generated using pymatgen
data_CdH11(C7O2)3
_symmetry_space_group_name_H-M   'P 1'
_cell_length_a   14.24573000
_cell_length_b   20.13188000
_cell_length_c   20.50013000
_cell_angle_alpha   89.97419000
_cell_angle_beta   89.96447000
_cell_angle_gamma   101.84452000
_symmetry_Int_Tables_number   1
_chemical_formula_structural   CdH11(C7O2)3
_chemical_formula_sum   'Cd4 H44 C84 O24'
_cell_volume   5754.11745936
_cell_formula_units_Z   4
loop_
 _symmetry_equiv_pos_site_id
 _symmetry_equiv_pos_as_xyz
  1  'x, y, z'
loop_
 _atom_site_type_symbol
 _atom_site_label
 _atom_site_symmetry_multiplicity
 _atom_site_fract_x
 _atom_site_fract_y
 _atom_site_fract_z
 _atom_site_occupancy
  Cd  Cd0  1  0.10625000  0.03598000  0.95816000  1
  Cd  Cd1  1  0.10647000  0.53603000  0.54196000  1
  Cd  Cd2  1  0.89354000  0.46397000  0.45804000  1
  Cd  Cd3  1  0.89376000  0.96402000  0.04184000  1
  H  H4  1  0.05878000  0.88434000  0.79361000  1
  H  H5  1  0.75216000  0.56774000  0.56707000  1
  H  H6  1  0.54506000  0.94753000  0.99197000  1
  H  H7  1  0.79648000  0.31228000  0.60322000  1
  H  H8  1  0.00656000  0.79941000  0.70540000  1
  H  H9  1  0.44826000  0.85174000  0.21114000  1
  H  H10  1  0.45482000  0.55226000  0.49262000  1
  H  H11  1  0.99345000  0.20059000  0.29461000  1
  H  H12  1  0.45495000  0.05247000  0.00803000  1
  H  H13  1  0.75189000  0.06761000  0.93292000  1
  H  H14  1  0.44763000  0.35153000  0.28877000  1
  H  H15  1  0.05895000  0.38468000  0.70632000  1
  H  H16  1  0.37939000  0.11567000  0.81877000  1
  H  H17  1  0.55175000  0.14826000  0.78887000  1
  H  H18  1  0.25807000  0.77316000  0.30938000  1
  H  H19  1  0.02141000  0.81349000  0.17864000  1
  H  H20  1  0.94106000  0.61533000  0.29368000  1
  H  H21  1  0.79585000  0.81170000  0.89662000  1
  H  H22  1  0.54519000  0.44774000  0.50738000  1
  H  H23  1  0.37261000  0.41653000  0.47944000  1
  H  H24  1  0.62062000  0.88433000  0.18124000  1
  H  H25  1  0.68899000  0.21533000  0.79457000  1
  H  H26  1  0.97867000  0.68607000  0.67879000  1
  H  H27  1  0.62007000  0.38396000  0.31798000  1
  H  H28  1  0.55238000  0.64847000  0.71123000  1
  H  H29  1  0.24784000  0.43226000  0.43293000  1
  H  H30  1  0.97860000  0.18651000  0.82137000  1
  H  H31  1  0.62740000  0.58347000  0.52056000  1
  H  H32  1  0.20353000  0.68772000  0.39679000  1
  H  H33  1  0.94122000  0.11566000  0.20640000  1
  H  H34  1  0.24812000  0.93239000  0.06709000  1
  H  H35  1  0.00663000  0.29952000  0.79440000  1
  H  H36  1  0.74169000  0.72658000  0.80897000  1
  H  H37  1  0.74194000  0.22684000  0.69062000  1
  H  H38  1  0.20416000  0.18830000  0.10338000  1
  H  H39  1  0.62746000  0.08331000  0.97952000  1
  H  H40  1  0.68920000  0.71551000  0.70529000  1
  H  H41  1  0.31081000  0.28449000  0.29471000  1
  H  H42  1  0.02134000  0.31393000  0.32122000  1
  H  H43  1  0.37994000  0.61604000  0.68203000  1
  H  H44  1  0.25832000  0.27342000  0.19103000  1
  H  H45  1  0.37255000  0.91669000  0.02048000  1
  H  H46  1  0.99338000  0.70048000  0.20561000  1
  H  H47  1  0.31102000  0.78467000  0.20543000  1
  C  C48  1  0.43493000  0.10955000  0.85325000  1
  C  C49  1  0.46818000  0.37166000  0.33703000  1
  C  C50  1  0.83677000  0.20710000  0.80114000  1
  C  C51  1  0.69677000  0.93715000  0.06768000  1
  C  C52  1  0.03951000  0.69830000  0.24749000  1
  C  C53  1  0.57408000  0.59109000  0.55624000  1
  C  C54  1  0.81068000  0.26194000  0.69499000  1
  C  C55  1  0.22639000  0.89232000  0.10301000  1
  C  C56  1  0.86960000  0.75731000  0.75035000  1
  C  C57  1  0.52258000  0.92654000  0.03970000  1
  C  C58  1  0.01007000  0.15090000  0.20372000  1
  C  C59  1  0.09714000  0.32518000  0.33379000  1
  C  C60  1  0.53183000  0.62834000  0.66297000  1
  C  C61  1  0.59304000  0.91776000  0.08487000  1
  C  C62  1  0.26076000  0.31129000  0.31781000  1
  C  C63  1  0.60355000  0.61945000  0.61794000  1
  C  C64  1  0.09721000  0.82503000  0.16603000  1
  C  C65  1  0.93026000  0.85279000  0.85015000  1
  C  C66  1  0.98994000  0.84910000  0.79629000  1
  C  C67  1  0.59300000  0.41776000  0.41445000  1
  C  C68  1  0.06956000  0.64663000  0.35014000  1
  C  C69  1  0.30323000  0.06285000  0.93232000  1
  C  C70  1  0.94067000  0.59063000  0.58403000  1
  C  C71  1  0.39646000  0.38055000  0.38206000  1
  C  C72  1  0.13033000  0.74259000  0.25050000  1
  C  C73  1  0.18956000  0.23830000  0.19518000  1
  C  C74  1  0.90280000  0.17497000  0.83398000  1
  C  C75  1  0.47743000  0.07346000  0.96030000  1
  C  C76  1  0.57407000  0.09103000  0.94398000  1
  C  C77  1  0.18933000  0.73806000  0.30501000  1
  C  C78  1  0.12890000  0.37440000  0.38110000  1
  C  C79  1  0.29406000  0.36082000  0.36539000  1
  C  C80  1  0.70595000  0.63918000  0.63461000  1
  C  C81  1  0.60337000  0.11939000  0.88216000  1
  C  C82  1  0.56508000  0.89045000  0.14675000  1
  C  C83  1  0.40701000  0.58224000  0.58555000  1
  C  C84  1  0.30331000  0.56284000  0.56837000  1
  C  C85  1  0.53150000  0.12816000  0.83724000  1
  C  C86  1  0.96079000  0.40537000  0.59664000  1
  C  C87  1  0.96078000  0.90450000  0.90355000  1
  C  C88  1  0.39664000  0.88061000  0.11784000  1
  C  C89  1  0.05934000  0.40937000  0.41597000  1
  C  C90  1  0.42594000  0.90897000  0.05603000  1
  C  C91  1  0.03923000  0.09550000  0.09646000  1
  C  C92  1  0.99005000  0.34949000  0.70367000  1
  C  C93  1  0.16320000  0.29290000  0.30122000  1
  C  C94  1  0.06975000  0.14721000  0.14985000  1
  C  C95  1  0.47739000  0.57341000  0.54023000  1
  C  C96  1  0.86968000  0.25741000  0.74950000  1
  C  C97  1  0.56483000  0.39022000  0.35272000  1
  C  C98  1  0.84069000  0.30895000  0.64581000  1
  C  C99  1  0.52262000  0.42659000  0.45977000  1
  C  C100  1  0.87111000  0.62560000  0.61890000  1
  C  C101  1  0.26086000  0.81133000  0.18229000  1
  C  C102  1  0.15965000  0.19153000  0.14588000  1
  C  C103  1  0.40696000  0.08224000  0.91513000  1
  C  C104  1  0.81045000  0.76170000  0.80482000  1
  C  C105  1  0.15932000  0.69105000  0.35420000  1
  C  C106  1  0.87101000  0.12572000  0.88144000  1
  C  C107  1  0.05970000  0.90921000  0.08320000  1
  C  C108  1  0.43518000  0.60978000  0.64729000  1
  C  C109  1  0.22619000  0.39234000  0.39691000  1
  C  C110  1  0.42592000  0.40891000  0.44377000  1
  C  C111  1  0.73925000  0.68871000  0.68219000  1
  C  C112  1  0.69669000  0.43716000  0.43163000  1
  C  C113  1  0.03922000  0.59463000  0.40337000  1
  C  C114  1  0.46851000  0.87184000  0.16277000  1
  C  C115  1  0.03955000  0.19848000  0.25267000  1
  C  C116  1  0.13041000  0.24269000  0.24966000  1
  C  C117  1  0.96046000  0.80152000  0.74734000  1
  C  C118  1  0.77382000  0.60766000  0.60309000  1
  C  C119  1  0.83681000  0.70710000  0.69878000  1
  C  C120  1  0.00996000  0.65051000  0.29634000  1
  C  C121  1  0.12900000  0.87428000  0.11856000  1
  C  C122  1  0.94031000  0.09079000  0.91680000  1
  C  C123  1  0.73915000  0.18868000  0.81772000  1
  C  C124  1  0.77362000  0.10768000  0.89700000  1
  C  C125  1  0.29422000  0.86084000  0.13461000  1
  C  C126  1  0.16324000  0.79290000  0.19887000  1
  C  C127  1  0.90287000  0.67483000  0.66622000  1
  C  C128  1  0.96050000  0.30170000  0.75252000  1
  C  C129  1  0.84036000  0.80847000  0.85413000  1
  C  C130  1  0.93045000  0.35337000  0.64986000  1
  C  C131  1  0.70579000  0.13916000  0.86539000  1
  O  O132  1  0.72318000  0.47550000  0.48044000  1
  O  O133  1  0.09588000  0.59953000  0.45178000  1
  O  O134  1  0.72328000  0.97422000  0.01806000  1
  O  O135  1  0.03835000  0.44816000  0.60688000  1
  O  O136  1  0.97220000  0.89514000  0.10085000  1
  O  O137  1  0.24251000  0.08436000  0.89622000  1
  O  O138  1  0.90453000  0.04990000  0.96133000  1
  O  O139  1  0.75728000  0.41423000  0.39660000  1
  O  O140  1  0.02727000  0.60287000  0.60359000  1
  O  O141  1  0.24273000  0.58577000  0.60340000  1
  O  O142  1  0.90413000  0.40047000  0.54823000  1
  O  O143  1  0.27673000  0.02578000  0.98194000  1
  O  O144  1  0.02781000  0.10486000  0.89916000  1
  O  O145  1  0.09432000  0.44828000  0.46218000  1
  O  O146  1  0.09568000  0.10091000  0.04786000  1
  O  O147  1  0.27683000  0.52450000  0.51957000  1
  O  O148  1  0.09548000  0.95010000  0.03868000  1
  O  O149  1  0.75750000  0.91564000  0.10379000  1
  O  O150  1  0.90433000  0.89909000  0.95214000  1
  O  O151  1  0.97274000  0.39713000  0.39641000  1
  O  O152  1  0.03831000  0.94740000  0.89327000  1
  O  O153  1  0.96165000  0.55184000  0.39312000  1
  O  O154  1  0.96170000  0.05260000  0.10673000  1
  O  O155  1  0.90569000  0.55172000  0.53782000  1
