# generated using pymatgen
data_H7C12(NO)4
_symmetry_space_group_name_H-M   'P 1'
_cell_length_a   9.94986667
_cell_length_b   23.02160000
_cell_length_c   23.02160000
_cell_angle_alpha   120.00000000
_cell_angle_beta   90.00000000
_cell_angle_gamma   90.00000000
_symmetry_Int_Tables_number   1
_chemical_formula_structural   H7C12(NO)4
_chemical_formula_sum   'H42 C72 N24 O24'
_cell_volume   4566.87264024
_cell_formula_units_Z   6
loop_
 _symmetry_equiv_pos_site_id
 _symmetry_equiv_pos_as_xyz
  1  'x, y, z'
loop_
 _atom_site_type_symbol
 _atom_site_label
 _atom_site_symmetry_multiplicity
 _atom_site_fract_x
 _atom_site_fract_y
 _atom_site_fract_z
 _atom_site_occupancy
  C  1  1  0.01304300  0.95868600  0.47851200  1
  C  2  1  0.02580600  0.91658450  0.50808550  1
  C  3  1  0.97601600  0.92469600  0.40944200  1
  C  43  1  0.96656700  0.85094800  0.47639500  1
  C  44  1  0.93624700  0.85700000  0.37308900  1
  C  79  1  0.91724100  0.82239800  0.40917400  1
  C  81  1  0.09727000  0.79350550  0.28559350  1
  C  82  1  0.96547800  0.81983350  0.30315650  1
  C  83  1  0.86303700  0.78990500  0.25354500  1
  C  87  1  0.98219500  0.80647450  0.50233250  1
  C  89  1  0.87591300  0.79434800  0.53672700  1
  C  145  1  0.02992100  0.03094100  0.51420700  1
  C  146  1  0.00208800  0.06874000  0.58440300  1
  C  147  1  0.00553500  0.13950550  0.62215350  1
  C  148  1  0.01065400  0.17543800  0.58662800  1
  C  149  1  0.03666500  0.14024750  0.51613550  1
  C  150  1  0.06207600  0.06968350  0.48257350  1
  C  161  1  0.00790700  0.47726200  0.96453600  1
  C  162  1  0.96438600  0.50760200  0.92700800  1
  C  163  1  0.92268800  0.47062800  0.85973300  1
  C  164  1  0.90261600  0.40045400  0.83126100  1
  C  165  1  0.96033700  0.36624700  0.86280900  1
  C  166  1  0.02681700  0.40557200  0.92611500  1
  C  169  1  0.02413300  0.51728700  0.03659100  1
  C  170  1  0.05045600  0.58840500  0.07369300  1
  C  171  1  0.02899200  0.62628950  0.14472650  1
  C  172  1  0.01048500  0.59176450  0.18135450  1
  C  173  1  0.00564900  0.52033600  0.14631500  1
  C  174  1  0.99989233  0.48620750  0.07578750  1
  C  187  1  0.00411200  0.47446500  0.51703800  1
  C  188  1  0.97658700  0.40427050  0.48204050  1
  C  189  1  0.93902400  0.36794550  0.51362750  1
  C  190  1  0.91609500  0.40410550  0.58391450  1
  C  191  1  0.96085500  0.47210150  0.62246950  1
  C  192  1  0.01539000  0.50497000  0.58874900  1
  C  195  1  0.00722300  0.51006400  0.48007700  1
  C  196  1  0.03118400  0.47799950  0.40901050  1
  C  197  1  0.96911000  0.50369750  0.37034650  1
  C  198  1  0.91480300  0.57005000  0.40486900  1
  C  199  1  0.93821500  0.61119850  0.47478750  1
  C  200  1  0.97366400  0.57952750  0.51149050  1
  C  213  1  0.01845900  0.69772850  0.18016150  1
  C  214  1  0.12405500  0.73454300  0.22462600  1
  C  216  1  0.88833600  0.72821200  0.19333200  1
  C  220  1  0.99384900  0.47534600  0.30046500  1
  C  221  1  0.11477800  0.49500200  0.28310900  1
  C  222  1  0.12464600  0.49734600  0.22359500  1
  C  223  1  0.01166000  0.48388200  0.18127000  1
  C  224  1  0.89524500  0.45516600  0.19341700  1
  C  227  1  0.88828400  0.44921000  0.25207900  1
  C  234  1  0.08352200  0.75721400  0.47233700  1
  C  235  1  0.07469600  0.69601550  0.47149850  1
  C  236  1  0.96501900  0.68075800  0.50082100  1
  C  237  1  0.86755100  0.73211750  0.53623050  1
  C  242  1  0.98573200  0.29628050  0.82048050  1
  C  243  1  0.10769700  0.27899650  0.78429150  1
  C  244  1  0.12058550  0.21861300  0.72333600  1
  C  245  1  0.00976500  0.17477750  0.69375550  1
  C  246  1  0.89189300  0.18730050  0.73387050  1
  C  249  1  0.88206900  0.24677450  0.79791350  1
  C  256  1  0.97458700  0.49875800  0.69296600  1
  C  257  1  0.07558500  0.46970900  0.71346300  1
  C  258  1  0.06349500  0.46819800  0.77331600  1
  C  259  1  0.95072700  0.49611300  0.81593200  1
  C  260  1  0.85408300  0.53128900  0.79933100  1
  C  263  1  0.86559000  0.53222200  0.73795900  1
  C  270  1  0.02740900  0.17595950  0.48045150  1
  C  271  1  0.13148700  0.22218700  0.49121300  1
  C  272  1  0.10318500  0.28302200  0.49326700  1
  C  273  1  0.97190400  0.29853650  0.48148050  1
  C  274  1  0.87194400  0.24753350  0.45924850  1
  C  277  1  0.89858100  0.18731350  0.46041550  1
  H  4  1  0.96726500  0.95028100  0.38406100  1
  H  6  1  0.12003400  0.90840950  0.58328650  1
  H  37  1  0.16719900  0.97370250  0.57771750  1
  H  84  1  0.17217600  0.81184150  0.32089350  1
  H  88  1  0.15663200  0.76201450  0.44363750  1
  H  151  1  0.97966700  0.04458000  0.61007400  1
  H  154  1  0.17869700  0.99948400  0.40775100  1
  H  155  1  0.16487900  0.06907900  0.40505000  1
  H  157  1  0.82581300  0.73999800  0.40316300  1
  H  158  1  0.81074000  0.74386350  0.33503550  1
  H  159  1  0.99373200  0.27068200  0.60050800  1
  H  160  1  0.95485400  0.26642400  0.66628300  1
  H  167  1  0.95488900  0.55832400  0.94903600  1
  H  176  1  0.97930700  0.43620250  0.05276750  1
  H  179  1  0.17650600  0.40134700  0.98475200  1
  H  180  1  0.12890700  0.32700250  0.92467250  1
  H  181  1  0.14026400  0.66643400  0.06952300  1
  H  182  1  0.15781300  0.59358800  0.00109700  1
  H  183  1  0.99804300  0.67384250  0.27644750  1
  H  184  1  0.96731600  0.60398900  0.27409100  1
  H  185  1  0.80358500  0.32269600  0.75283200  1
  H  186  1  0.78029400  0.39476300  0.75751200  1
  H  193  1  0.97107000  0.37792200  0.43098000  1
  H  202  1  0.96612000  0.60816000  0.56226800  1
  H  205  1  0.14983800  0.57699050  0.60102550  1
  H  206  1  0.10470800  0.58230100  0.67211400  1
  H  207  1  0.13832500  0.40243800  0.33162800  1
  H  208  1  0.17663700  0.41418450  0.40629650  1
  H  209  1  0.81400200  0.57128350  0.32777650  1
  H  210  1  0.79482700  0.63915250  0.39974850  1
  H  211  1  0.82322000  0.39721850  0.65957250  1
  H  212  1  0.81174000  0.32900550  0.58728150  1
  H  215  1  0.21593400  0.71226250  0.21915750  1
  H  225  1  0.20762300  0.52049800  0.21797600  1
  H  226  1  0.19028000  0.51678350  0.31771650  1
  H  238  1  0.14323400  0.65955250  0.44283950  1
  H  247  1  0.20484300  0.21276800  0.69526700  1
  H  248  1  0.18287300  0.31381200  0.79743000  1
  H  261  1  0.13221400  0.44032000  0.78214900  1
  H  262  1  0.15085900  0.44198800  0.68093800  1
  H  275  1  0.17574300  0.31951700  0.51245800  1
  H  276  1  0.22180300  0.21824700  0.51036300  1
  N  5  1  0.10527900  0.93632500  0.56327700  1
  N  46  1  0.76885600  0.84049950  0.56776050  1
  N  80  1  0.85253100  0.76183250  0.37854750  1
  N  85  1  0.73272600  0.81848700  0.26268000  1
  N  152  1  0.98633100  0.24307150  0.62066550  1
  N  153  1  0.13266200  0.04202100  0.42375900  1
  N  168  1  0.83086200  0.36887950  0.77275150  1
  N  175  1  0.99198800  0.62596000  0.24946100  1
  N  177  1  0.11397800  0.37511400  0.94847000  1
  N  178  1  0.11263700  0.61973850  0.04392350  1
  N  194  1  0.85179300  0.37293450  0.61336950  1
  N  201  1  0.84324500  0.59739800  0.37370900  1
  N  203  1  0.08958100  0.56206700  0.62420300  1
  N  204  1  0.11799400  0.42499850  0.37921150  1
  N  217  1  0.77621200  0.69701800  0.15080800  1
  N  228  1  0.77566000  0.43970250  0.15494150  1
  N  229  1  0.77032400  0.42046400  0.26209400  1
  N  239  1  0.75274500  0.72198250  0.56664250  1
  N  250  1  0.77419800  0.14737650  0.71051350  1
  N  251  1  0.76375500  0.25593150  0.83619250  1
  N  264  1  0.73769000  0.56108800  0.83874500  1
  N  265  1  0.75905700  0.56253650  0.72161550  1
  N  278  1  0.74262400  0.25528450  0.43780250  1
  N  279  1  0.78856500  0.14289700  0.44612400  1
  O  45  1  0.73877000  0.87652700  0.27062400  1
  O  47  1  0.81048500  0.89706550  0.61199350  1
  O  48  1  0.69698550  0.84715750  0.52659450  1
  O  86  1  0.66742200  0.82105650  0.31054250  1
  O  218  1  0.79773200  0.68428050  0.09182350  1
  O  219  1  0.73836000  0.64467150  0.15024250  1
  O  230  1  0.72375100  0.48933200  0.15467900  1
  O  231  1  0.79842000  0.37125800  0.26934000  1
  O  232  1  0.79137550  0.39230500  0.09607300  1
  O  233  1  0.69902100  0.46071700  0.31063800  1
  O  240  1  0.67652300  0.67649300  0.52544600  1
  O  241  1  0.78433400  0.70991550  0.61235650  1
  O  252  1  0.72288100  0.14577200  0.65985500  1
  O  253  1  0.79167200  0.26358900  0.89282300  1
  O  254  1  0.79309700  0.08891600  0.69969200  1
  O  255  1  0.69072500  0.30381900  0.84415400  1
  O  266  1  0.66112100  0.51941600  0.84198400  1
  O  267  1  0.80085700  0.60733100  0.71015900  1
  O  268  1  0.76718700  0.60658550  0.89697750  1
  O  269  1  0.68983100  0.52095250  0.67278950  1
  O  280  1  0.67359900  0.30179350  0.48249650  1
  O  281  1  0.81517800  0.08453250  0.39991750  1
  O  282  1  0.75117300  0.26436650  0.38847250  1
  O  283  1  0.74686200  0.14095700  0.49663700  1
