# generated using pymatgen
data_V2H13C30N2O14F
_symmetry_space_group_name_H-M   'P 1'
_cell_length_a   7.07074000
_cell_length_b   14.86430000
_cell_length_c   21.64757000
_cell_angle_alpha   106.19578000
_cell_angle_beta   89.94502000
_cell_angle_gamma   89.92926000
_symmetry_Int_Tables_number   1
_chemical_formula_structural   V2H13C30N2O14F
_chemical_formula_sum   'V4 H26 C60 N4 O28 F2'
_cell_volume   2184.89774390
_cell_formula_units_Z   2
loop_
 _symmetry_equiv_pos_site_id
 _symmetry_equiv_pos_as_xyz
  1  'x, y, z'
loop_
 _atom_site_type_symbol
 _atom_site_label
 _atom_site_symmetry_multiplicity
 _atom_site_fract_x
 _atom_site_fract_y
 _atom_site_fract_z
 _atom_site_occupancy
  V  V0  1  0.06420000  0.99170000  0.50322000  1
  V  V1  1  0.56420000  0.00830000  0.49678000  1
  V  V2  1  0.67049000  0.00830000  0.99678000  1
  V  V3  1  0.17049000  0.99170000  0.00322000  1
  H  H4  1  0.59019000  0.07432000  0.31556000  1
  H  H5  1  0.09183000  0.92505000  0.68459000  1
  H  H6  1  0.61542000  0.07634000  0.20282000  1
  H  H7  1  0.11760000  0.92322000  0.79731000  1
  H  H8  1  0.25170000  0.02771000  0.31879000  1
  H  H9  1  0.75372000  0.97806000  0.68232000  1
  H  H10  1  0.27067000  0.89682000  0.29463000  1
  H  H11  1  0.76347000  0.10914000  0.70546000  1
  H  H12  1  0.96874000  0.38884000  0.87287000  1
  H  H13  1  0.26273000  0.60736000  0.12681000  1
  H  H14  1  0.86611000  0.26357000  0.66614000  1
  H  H15  1  0.34861000  0.73541000  0.33399000  1
  H  H16  1  0.84239000  0.30507000  0.48037000  1
  H  H17  1  0.35499000  0.69544000  0.52038000  1
  H  H18  1  0.77976000  0.61366000  0.62569000  1
  H  H19  1  0.45091000  0.38755000  0.37661000  1
  H  H20  1  0.96807000  0.52232000  0.96709000  1
  H  H21  1  0.28668000  0.47508000  0.03265000  1
  H  H22  1  0.94942000  0.69174000  0.01620000  1
  H  H23  1  0.32814000  0.30668000  0.98352000  1
  H  H24  1  0.83414000  0.73752000  0.83426000  1
  H  H25  1  0.42523000  0.26262000  0.16710000  1
  H  H26  1  0.94871000  0.32143000  0.76015000  1
  H  H27  1  0.26860000  0.67507000  0.23999000  1
  H  H28  1  0.79073000  0.67925000  0.73726000  1
  H  H29  1  0.45240000  0.32138000  0.26491000  1
  C  C30  1  0.34464000  0.82524000  0.45588000  1
  C  C31  1  0.84437000  0.17472000  0.54430000  1
  C  C32  1  0.34457000  0.99798000  0.61509000  1
  C  C33  1  0.84474000  0.00227000  0.38496000  1
  C  C34  1  0.99924000  0.95243000  0.27578000  1
  C  C35  1  0.49643000  0.04985000  0.72451000  1
  C  C36  1  0.85276000  0.99902000  0.31589000  1
  C  C37  1  0.35214000  0.00179000  0.68426000  1
  C  C38  1  0.70837000  0.03898000  0.28709000  1
  C  C39  1  0.20898000  0.96115000  0.71308000  1
  C  C40  1  0.72166000  0.03947000  0.22214000  1
  C  C41  1  0.22255000  0.96085000  0.77806000  1
  C  C42  1  0.87649000  0.99783000  0.18351000  1
  C  C43  1  0.37635000  0.00337000  0.81671000  1
  C  C44  1  0.00969000  0.95133000  0.21121000  1
  C  C45  1  0.50682000  0.05162000  0.78919000  1
  C  C46  1  0.21962000  0.96021000  0.21434000  1
  C  C47  1  0.71749000  0.04662000  0.78651000  1
  C  C48  1  0.20880000  0.96011000  0.28460000  1
  C  C49  1  0.70625000  0.04533000  0.71598000  1
  C  C50  1  0.88711000  0.72353000  0.92704000  1
  C  C51  1  0.38138000  0.27596000  0.07361000  1
  C  C52  1  0.85208000  0.27629000  0.57185000  1
  C  C53  1  0.35337000  0.72359000  0.42861000  1
  C  C54  1  0.93687000  0.56756000  0.93684000  1
  C  C55  1  0.31853000  0.43045000  0.06327000  1
  C  C56  1  0.92570000  0.66375000  0.96497000  1
  C  C57  1  0.34243000  0.33490000  0.03515000  1
  C  C58  1  0.85949000  0.68720000  0.86076000  1
  C  C59  1  0.39763000  0.31239000  0.14033000  1
  C  C60  1  0.87396000  0.58972000  0.83054000  1
  C  C61  1  0.37226000  0.40927000  0.17041000  1
  C  C62  1  0.91368000  0.53028000  0.87016000  1
  C  C63  1  0.33123000  0.46782000  0.13029000  1
  C  C64  1  0.85652000  0.54976000  0.76246000  1
  C  C65  1  0.38132000  0.44949000  0.23869000  1
  C  C66  1  0.87935000  0.45105000  0.73530000  1
  C  C67  1  0.34969000  0.54762000  0.26543000  1
  C  C68  1  0.92085000  0.39546000  0.77701000  1
  C  C69  1  0.30512000  0.60202000  0.22328000  1
  C  C70  1  0.93560000  0.43433000  0.84295000  1
  C  C71  1  0.29817000  0.56293000  0.15722000  1
  C  C72  1  0.81806000  0.60517000  0.72059000  1
  C  C73  1  0.41996000  0.39499000  0.28114000  1
  C  C74  1  0.81379000  0.56691000  0.65439000  1
  C  C75  1  0.41703000  0.43357000  0.34736000  1
  C  C76  1  0.84377000  0.47109000  0.62630000  1
  C  C77  1  0.37979000  0.52892000  0.37489000  1
  C  C78  1  0.86428000  0.41125000  0.66712000  1
  C  C79  1  0.35854000  0.58803000  0.33364000  1
  C  C80  1  0.84495000  0.43290000  0.55820000  1
  C  C81  1  0.37113000  0.56749000  0.44290000  1
  C  C82  1  0.84530000  0.33538000  0.53207000  1
  C  C83  1  0.36013000  0.66495000  0.46871000  1
  C  C84  1  0.86441000  0.31341000  0.63831000  1
  C  C85  1  0.35089000  0.68589000  0.36209000  1
  C  C86  1  0.39002000  0.00153000  0.88479000  1
  C  C87  1  0.88994000  0.99904000  0.11531000  1
  C  C88  1  0.39224000  0.17489000  0.04499000  1
  C  C89  1  0.89280000  0.82496000  0.95525000  1
  N  N90  1  0.85113000  0.49115000  0.51492000  1
  N  N91  1  0.36751000  0.50953000  0.48636000  1
  N  N92  1  0.31589000  0.87847000  0.17258000  1
  N  N93  1  0.80778000  0.13055000  0.82778000  1
  O  O94  1  0.50577000  0.00213000  0.58585000  1
  O  O95  1  0.00577000  0.99787000  0.41415000  1
  O  O96  1  0.17356000  0.86197000  0.46753000  1
  O  O97  1  0.67356000  0.13803000  0.53247000  1
  O  O98  1  0.17590000  0.99325000  0.58869000  1
  O  O99  1  0.67590000  0.00675000  0.41131000  1
  O  O100  1  0.00795000  0.13009000  0.53617000  1
  O  O101  1  0.50795000  0.86991000  0.46383000  1
  O  O102  1  0.33997000  0.04474000  0.48263000  1
  O  O103  1  0.83997000  0.95526000  0.51737000  1
  O  O104  1  0.23127000  0.13012000  0.03608000  1
  O  O105  1  0.73127000  0.86988000  0.96392000  1
  O  O106  1  0.55897000  0.00675000  0.91130000  1
  O  O107  1  0.05897000  0.99325000  0.08870000  1
  O  O108  1  0.56114000  0.13804000  0.03245000  1
  O  O109  1  0.06114000  0.86196000  0.96755000  1
  O  O110  1  0.72891000  0.00213000  0.08587000  1
  O  O111  1  0.22891000  0.99787000  0.91413000  1
  O  O112  1  0.39465000  0.95527000  0.01732000  1
  O  O113  1  0.89465000  0.04473000  0.98268000  1
  O  O114  1  0.78447000  0.45992000  0.45685000  1
  O  O115  1  0.95464000  0.56643000  0.52838000  1
  O  O116  1  0.43196000  0.54198000  0.54464000  1
  O  O117  1  0.26833000  0.43283000  0.47265000  1
  O  O118  1  0.25957000  0.79419000  0.16987000  1
  O  O119  1  0.45197000  0.88943000  0.13495000  1
  O  O120  1  0.74691000  0.21369000  0.82889000  1
  O  O121  1  0.94713000  0.12262000  0.86507000  1
  F  F122  1  0.28118000  0.04449000  0.20605000  1
  F  F123  1  0.78616000  0.96402000  0.79566000  1
