# generated using pymatgen
data_H9C12(N3O)2
_symmetry_space_group_name_H-M   'P 1'
_cell_length_a   24.25305000
_cell_length_b   24.25305000
_cell_length_c   26.80850000
_cell_angle_alpha   90.00000000
_cell_angle_beta   90.00000000
_cell_angle_gamma   120.00000000
_symmetry_Int_Tables_number   1
_chemical_formula_structural   H9C12(N3O)2
_chemical_formula_sum   'H108 C144 N72 O24'
_cell_volume   13656.38873793
_cell_formula_units_Z   12
loop_
 _symmetry_equiv_pos_site_id
 _symmetry_equiv_pos_as_xyz
  1  'x, y, z'
loop_
 _atom_site_type_symbol
 _atom_site_label
 _atom_site_symmetry_multiplicity
 _atom_site_fract_x
 _atom_site_fract_y
 _atom_site_fract_z
 _atom_site_occupancy
  C  1  1  0.52883200  0.56854100  0.99717600  1
  C  2  1  0.47721100  0.54762900  0.03032400  1
  C  3  1  0.43930200  0.57668300  0.03308800  1
  C  4  1  0.45464300  0.62946000  0.00073700  1
  C  5  1  0.50637800  0.65029200  0.96607300  1
  C  6  1  0.54459500  0.62070700  0.96478400  1
  C  9  1  0.56222450  0.53462250  0.99724700  1
  C  10  1  0.61420100  0.54991500  0.02973100  1
  C  11  1  0.64305150  0.51102450  0.02868700  1
  C  12  1  0.62169600  0.45908500  0.99417200  1
  C  13  1  0.56907550  0.44418650  0.96177050  1
  C  14  1  0.54077000  0.48279500  0.96423300  1
  C  35  1  0.01008950  0.42979050  0.33018700  1
  C  36  1  0.04079550  0.48200450  0.36280000  1
  C  37  1  0.10775450  0.52007150  0.36540000  1
  C  38  1  0.14519800  0.50444500  0.33333333  1
  C  39  1  0.11426900  0.45219000  0.29909700  1
  C  40  1  0.04648750  0.41373650  0.29804500  1
  C  43  1  0.94277950  0.39635750  0.33029600  1
  C  44  1  0.90609400  0.34364200  0.36213600  1
  C  45  1  0.83835750  0.31488650  0.36124500  1
  C  46  1  0.80773550  0.33698150  0.32740900  1
  C  47  1  0.84546850  0.39011650  0.29545200  1
  C  48  1  0.91238250  0.41849050  0.29794800  1
  C  69  1  0.39060650  0.94870750  0.66358300  1
  C  70  1  0.41103750  0.91821850  0.69738800  1
  C  71  1  0.38239150  0.85128150  0.70002600  1
  C  72  1  0.33009500  0.81366900  0.66731800  1
  C  73  1  0.30975400  0.84435500  0.63203900  1
  C  74  1  0.33921050  0.91213450  0.63058000  1
  C  77  1  0.42433300  0.01602800  0.66355100  1
  C  78  1  0.40932650  0.05266450  0.69633250  1
  C  79  1  0.44795650  0.12042950  0.69508900  1
  C  80  1  0.49949250  0.15104750  0.66022200  1
  C  81  1  0.51409450  0.11336950  0.62752300  1
  C  82  1  0.47555950  0.04645250  0.63000600  1
  C  103  1  0.47364550  0.21658850  0.85755600  1
  C  105  1  0.48658500  0.32149800  0.86170600  1
  C  106  1  0.46266750  0.31294450  0.81251100  1
  C  108  1  0.45403550  0.20994650  0.80722200  1
  C  111  1  0.50953700  0.37919400  0.88851800  1
  C  112  1  0.44516100  0.15835300  0.77698400  1
  C  115  1  0.71386700  0.48641500  0.19145600  1
  C  117  1  0.80561900  0.47312000  0.19567100  1
  C  118  1  0.82107350  0.49700750  0.14647000  1
  C  120  1  0.72676000  0.50570200  0.14105000  1
  C  123  1  0.84019450  0.44994050  0.22244200  1
  C  124  1  0.68404150  0.51441650  0.11068700  1
  C  127  1  0.74162600  0.24455500  0.52307700  1
  C  129  1  0.63628700  0.15323800  0.52708000  1
  C  130  1  0.64475350  0.13773750  0.47790500  1
  C  132  1  0.74827750  0.23142450  0.47278800  1
  C  135  1  0.57851850  0.11879150  0.55386200  1
  C  136  1  0.80023350  0.27378750  0.44268900  1
  C  139  1  0.48989150  0.82717050  0.84908500  1
  C  141  1  0.49878500  0.73294400  0.85432200  1
  C  142  1  0.47829550  0.71948250  0.80420600  1
  C  144  1  0.46509000  0.81130500  0.80016300  1
  C  147  1  0.50830000  0.69054900  0.88444400  1
  C  148  1  0.44179350  0.84583650  0.77347500  1
  C  151  1  0.30769000  0.46923500  0.18202900  1
  C  153  1  0.20452350  0.46017050  0.18736700  1
  C  154  1  0.21157300  0.48090800  0.13732000  1
  C  156  1  0.31655050  0.49404850  0.13311200  1
  C  159  1  0.15249450  0.45026950  0.21751100  1
  C  160  1  0.37432900  0.51726200  0.10636700  1
  C  163  1  0.13240300  0.65206300  0.51408800  1
  C  165  1  0.22702400  0.75483100  0.51955600  1
  C  166  1  0.24031550  0.74800850  0.46934500  1
  C  168  1  0.14815750  0.64323650  0.46510000  1
  C  171  1  0.26964850  0.80635350  0.54989700  1
  C  172  1  0.11342900  0.58547000  0.43838400  1
  C  697  1  0.52883200  0.56854100  0.62416000  1
  C  698  1  0.47721100  0.54762900  0.65730800  1
  C  699  1  0.43930200  0.57668300  0.66007200  1
  C  700  1  0.45464300  0.62946000  0.62772100  1
  C  701  1  0.50637800  0.65029200  0.59305700  1
  C  702  1  0.54459500  0.62070700  0.59176800  1
  C  705  1  0.56222450  0.53462250  0.62423100  1
  C  706  1  0.61420100  0.54991500  0.65671500  1
  C  707  1  0.64305150  0.51102450  0.65567100  1
  C  708  1  0.62169600  0.45908500  0.62115600  1
  C  709  1  0.56907550  0.44418650  0.58875450  1
  C  710  1  0.54077000  0.48279500  0.59121700  1
  C  731  1  0.01008950  0.42979050  0.95717100  1
  C  732  1  0.04079550  0.48200450  0.98978400  1
  C  733  1  0.10775450  0.52007150  0.99238398  1
  C  734  1  0.14519800  0.50444500  0.96029000  1
  C  735  1  0.11426900  0.45219000  0.92608100  1
  C  736  1  0.04648750  0.41373650  0.92502900  1
  C  739  1  0.94277950  0.39635750  0.95728000  1
  C  740  1  0.90609400  0.34364200  0.98912000  1
  C  741  1  0.83835750  0.31488650  0.98822900  1
  C  742  1  0.80773550  0.33698150  0.95439300  1
  C  743  1  0.84546850  0.39011650  0.92243600  1
  C  744  1  0.91238250  0.41849050  0.92493200  1
  C  765  1  0.39060650  0.94870750  0.29056700  1
  C  766  1  0.41103750  0.91821850  0.32437200  1
  C  767  1  0.38239150  0.85128150  0.32701000  1
  C  768  1  0.33009500  0.81366900  0.29430200  1
  C  769  1  0.30975400  0.84435500  0.25902300  1
  C  770  1  0.33921050  0.91213450  0.25756400  1
  C  773  1  0.42433300  0.01602800  0.29053500  1
  C  774  1  0.40932650  0.05266450  0.32331650  1
  C  775  1  0.44795650  0.12042950  0.32207300  1
  C  776  1  0.49949250  0.15104750  0.28720600  1
  C  777  1  0.51409450  0.11336950  0.25450700  1
  C  778  1  0.47555950  0.04645250  0.25699000  1
  C  799  1  0.47364550  0.21658850  0.48454000  1
  C  801  1  0.48658500  0.32149800  0.48869000  1
  C  802  1  0.46266750  0.31294450  0.43949500  1
  C  804  1  0.45403550  0.20994650  0.43420600  1
  C  807  1  0.50953700  0.37919400  0.51550200  1
  C  808  1  0.44516100  0.15835300  0.40396800  1
  C  811  1  0.71386700  0.48641500  0.81844000  1
  C  813  1  0.80561900  0.47312000  0.82265500  1
  C  814  1  0.82107350  0.49700750  0.77345400  1
  C  816  1  0.72676000  0.50570200  0.76803400  1
  C  819  1  0.84019450  0.44994050  0.84942600  1
  C  820  1  0.68404150  0.51441650  0.73767100  1
  C  823  1  0.74162600  0.24455500  0.15006100  1
  C  825  1  0.63628700  0.15323800  0.15406400  1
  C  826  1  0.64475350  0.13773750  0.10488900  1
  C  828  1  0.74827750  0.23142450  0.09977200  1
  C  831  1  0.57851850  0.11879150  0.18084600  1
  C  832  1  0.80023350  0.27378750  0.06967300  1
  C  835  1  0.48989150  0.82717050  0.47606900  1
  C  837  1  0.49878500  0.73294400  0.48130600  1
  C  838  1  0.47829550  0.71948250  0.43119000  1
  C  840  1  0.46509000  0.81130500  0.42714700  1
  C  843  1  0.50830000  0.69054900  0.51142800  1
  C  844  1  0.44179350  0.84583650  0.40045900  1
  C  847  1  0.30769000  0.46923500  0.80901300  1
  C  849  1  0.20452350  0.46017050  0.81435100  1
  C  850  1  0.21157300  0.48090800  0.76430400  1
  C  852  1  0.31655050  0.49404850  0.76009600  1
  C  855  1  0.15249450  0.45026950  0.84449500  1
  C  856  1  0.37432900  0.51726200  0.73335100  1
  C  859  1  0.13240300  0.65206300  0.14107200  1
  C  861  1  0.22702400  0.75483100  0.14654000  1
  C  862  1  0.24031550  0.74800850  0.09632900  1
  C  864  1  0.14815750  0.64323650  0.09208400  1
  C  867  1  0.26964850  0.80635350  0.17688100  1
  C  868  1  0.11342900  0.58547000  0.06536800  1
  H  7  1  0.46420100  0.50692300  0.05018000  1
  H  16  1  0.50008850  0.47004350  0.94442600  1
  H  19  1  0.62506150  0.62563350  0.93495450  1
  H  20  1  0.61241700  0.68266800  0.91576600  1
  H  21  1  0.67683400  0.61781300  0.07840600  1
  H  22  1  0.62026400  0.63109100  0.05915100  1
  H  23  1  0.68368100  0.42854800  0.01587000  1
  H  24  1  0.64420200  0.39408300  0.96531600  1
  H  25  1  0.42510350  0.69232250  0.97931500  1
  H  26  1  0.39055700  0.65299300  0.02991000  1
  H  28  1  0.54615350  0.35511450  0.94506900  1
  H  30  1  0.72933750  0.52481950  0.04580100  1
  H  32  1  0.52119950  0.73692450  0.94921100  1
  H  34  1  0.35064250  0.55484150  0.05025100  1
  H  41  1  0.01310200  0.49529300  0.38234600  1
  H  50  1  0.94029050  0.45953150  0.27852900  1
  H  53  1  0.97097950  0.33306950  0.26839400  1
  H  54  1  0.04067100  0.34572600  0.24922100  1
  H  55  1  0.91133600  0.28040500  0.41014300  1
  H  56  1  0.98121700  0.33725400  0.39113100  1
  H  57  1  0.71528600  0.27469100  0.34905800  1
  H  58  1  0.72015600  0.31521000  0.29917900  1
  H  59  1  0.23756200  0.53381000  0.31189100  1
  H  60  1  0.23287200  0.56916000  0.36202400  1
  H  62  1  0.77931250  0.41316150  0.27892000  1
  H  64  1  0.76595900  0.22841900  0.37765700  1
  H  66  1  0.18611600  0.43744700  0.28224400  1
  H  68  1  0.17448550  0.60895750  0.38213000  1
  H  75  1  0.45146200  0.94605800  0.71749300  1
  H  84  1  0.48809250  0.01853550  0.60994500  1
  H  87  1  0.33427600  0.98746500  0.60031400  1
  H  88  1  0.27770250  0.91771250  0.58089100  1
  H  89  1  0.34174850  0.04727250  0.74538900  1
  H  90  1  0.32841500  0.97747100  0.72595600  1
  H  91  1  0.53027200  0.24354500  0.68214700  1
  H  92  1  0.56411350  0.23859350  0.63119100  1
  H  93  1  0.26775150  0.72110050  0.64590200  1
  H  94  1  0.30627350  0.72623650  0.69705400  1
  H  96  1  0.60296900  0.17958000  0.61038900  1
  H  98  1  0.43392000  0.19270200  0.71199300  1
  H  100  1  0.22340750  0.77223150  0.61455600  1
  H  102  1  0.40450950  0.78473350  0.71727400  1
  H  109  1  0.47952950  0.18268750  0.87542300  1
  H  110  1  0.45882850  0.34774550  0.79410800  1
  H  121  1  0.67402200  0.48047900  0.20926000  1
  H  122  1  0.85949800  0.50043700  0.12800200  1
  H  133  1  0.77572850  0.28416750  0.54099700  1
  H  134  1  0.60977400  0.09926300  0.45946700  1
  H  145  1  0.49393450  0.86592550  0.86744200  1
  H  146  1  0.47187850  0.67941750  0.78648000  1
  H  157  1  0.34235650  0.46499350  0.20027000  1
  H  158  1  0.17777200  0.48708500  0.11959000  1
  H  169  1  0.09359300  0.61739300  0.53242100  1
  H  170  1  0.28047650  0.78160150  0.45168600  1
  H  703  1  0.46420100  0.50692300  0.67716400  1
  H  712  1  0.50008850  0.47004350  0.57141000  1
  H  715  1  0.62506150  0.62563350  0.56193850  1
  H  716  1  0.61241700  0.68266800  0.54275000  1
  H  717  1  0.67683400  0.61781300  0.70539000  1
  H  718  1  0.62026400  0.63109100  0.68613500  1
  H  719  1  0.68368100  0.42854800  0.64285400  1
  H  720  1  0.64420200  0.39408300  0.59230000  1
  H  721  1  0.42510350  0.69232250  0.60629900  1
  H  722  1  0.39055700  0.65299300  0.65689400  1
  H  724  1  0.54615350  0.35511450  0.57205300  1
  H  726  1  0.72933750  0.52481950  0.67278500  1
  H  728  1  0.52119950  0.73692450  0.57619500  1
  H  730  1  0.35064250  0.55484150  0.67723500  1
  H  737  1  0.01310200  0.49529300  0.00933000  1
  H  746  1  0.94029050  0.45953150  0.90551300  1
  H  749  1  0.97097950  0.33306950  0.89537800  1
  H  750  1  0.04067100  0.34572600  0.87620500  1
  H  751  1  0.91133600  0.28040500  0.03712700  1
  H  752  1  0.98121700  0.33725400  0.01811500  1
  H  753  1  0.71528600  0.27469100  0.97604200  1
  H  754  1  0.72015600  0.31521000  0.92616300  1
  H  755  1  0.23756200  0.53381000  0.93887500  1
  H  756  1  0.23287200  0.56916000  0.98900800  1
  H  758  1  0.77931250  0.41316150  0.90590400  1
  H  760  1  0.76595900  0.22841900  0.00464100  1
  H  762  1  0.18611600  0.43744700  0.90922800  1
  H  764  1  0.17448550  0.60895750  0.00911400  1
  H  771  1  0.45146200  0.94605800  0.34447700  1
  H  780  1  0.48809250  0.01853550  0.23692900  1
  H  783  1  0.33427600  0.98746500  0.22729800  1
  H  784  1  0.27770250  0.91771250  0.20787500  1
  H  785  1  0.34174850  0.04727250  0.37237300  1
  H  786  1  0.32841500  0.97747100  0.35294000  1
  H  787  1  0.53027200  0.24354500  0.30913100  1
  H  788  1  0.56411350  0.23859350  0.25817500  1
  H  789  1  0.26775150  0.72110050  0.27288600  1
  H  790  1  0.30627350  0.72623650  0.32403800  1
  H  792  1  0.60296900  0.17958000  0.23737300  1
  H  794  1  0.43392000  0.19270200  0.33897700  1
  H  796  1  0.22340750  0.77223150  0.24154000  1
  H  798  1  0.40450950  0.78473350  0.34425800  1
  H  805  1  0.47952950  0.18268750  0.50240700  1
  H  806  1  0.45882850  0.34774550  0.42109200  1
  H  817  1  0.67402200  0.48047900  0.83624400  1
  H  818  1  0.85949800  0.50043700  0.75498600  1
  H  829  1  0.77572850  0.28416750  0.16798100  1
  H  830  1  0.60977400  0.09926300  0.08645100  1
  H  841  1  0.49393450  0.86592550  0.49442600  1
  H  842  1  0.47187850  0.67941750  0.41346400  1
  H  853  1  0.34235650  0.46499350  0.82725400  1
  H  854  1  0.17777200  0.48708500  0.74657400  1
  H  865  1  0.09359300  0.61739300  0.15940500  1
  H  866  1  0.28047650  0.78160150  0.07867000  1
  N  8  1  0.41977100  0.65973800  0.00286300  1
  N  15  1  0.65130200  0.42355900  0.99223900  1
  N  17  1  0.59741700  0.64390900  0.93507300  1
  N  18  1  0.63810400  0.60306500  0.05911700  1
  N  27  1  0.54142700  0.39014200  0.93286500  1
  N  29  1  0.69235400  0.52433200  0.06034100  1
  N  31  1  0.52036600  0.69989100  0.93451000  1
  N  33  1  0.38543850  0.54956750  0.06220900  1
  N  42  1  0.21034800  0.53948900  0.33524900  1
  N  49  1  0.74261000  0.30751500  0.32569300  1
  N  51  1  0.01691350  0.36062550  0.26864700  1
  N  52  1  0.93534700  0.31935500  0.39109700  1
  N  61  1  0.81912500  0.41799400  0.26676000  1
  N  63  1  0.80253750  0.26497150  0.39248100  1
  N  65  1  0.14981350  0.43809750  0.26755800  1
  N  67  1  0.13447250  0.57419950  0.39421600  1
  N  76  1  0.29989950  0.74852950  0.66966600  1
  N  83  1  0.53490850  0.21618050  0.65825800  1
  N  85  1  0.31621350  0.94156850  0.60044800  1
  N  86  1  0.35651500  0.02332000  0.72608400  1
  N  95  1  0.56785850  0.13980950  0.59829200  1
  N  97  1  0.43454650  0.15638950  0.72673900  1
  N  99  1  0.26077450  0.80840550  0.60010900  1
  N  101  1  0.40952500  0.82468000  0.72929900  1
  N  104  1  0.48993100  0.27169200  0.88181700  1
  N  107  1  0.44897050  0.25896150  0.78748300  1
  N  116  1  0.75253500  0.46995700  0.21575400  1
  N  119  1  0.78076950  0.51057750  0.12134400  1
  N  128  1  0.68633900  0.20612800  0.54724900  1
  N  131  1  0.69897750  0.17762650  0.45296900  1
  N  140  1  0.50410000  0.78716600  0.87398900  1
  N  143  1  0.46142800  0.75797200  0.78013700  1
  N  152  1  0.25344550  0.45482950  0.20695400  1
  N  155  1  0.26686700  0.49774600  0.11316000  1
  N  164  1  0.17267000  0.70602300  0.53913600  1
  N  167  1  0.20160750  0.69282450  0.44513200  1
  N  704  1  0.41977100  0.65973800  0.62984700  1
  N  711  1  0.65130200  0.42355900  0.61922300  1
  N  713  1  0.59741700  0.64390900  0.56205700  1
  N  714  1  0.63810400  0.60306500  0.68610100  1
  N  723  1  0.54142700  0.39014200  0.55984900  1
  N  725  1  0.69235400  0.52433200  0.68732500  1
  N  727  1  0.52036600  0.69989100  0.56149400  1
  N  729  1  0.38543850  0.54956750  0.68919300  1
  N  738  1  0.21034800  0.53948900  0.96223300  1
  N  745  1  0.74261000  0.30751500  0.95267700  1
  N  747  1  0.01691350  0.36062550  0.89563100  1
  N  748  1  0.93534700  0.31935500  0.01808100  1
  N  757  1  0.81912500  0.41799400  0.89374400  1
  N  759  1  0.80253750  0.26497150  0.01946500  1
  N  761  1  0.14981350  0.43809750  0.89454200  1
  N  763  1  0.13447250  0.57419950  0.02120000  1
  N  772  1  0.29989950  0.74852950  0.29665000  1
  N  779  1  0.53490850  0.21618050  0.28524200  1
  N  781  1  0.31621350  0.94156850  0.22743200  1
  N  782  1  0.35651500  0.02332000  0.35306800  1
  N  791  1  0.56785850  0.13980950  0.22527600  1
  N  793  1  0.43454650  0.15638950  0.35372300  1
  N  795  1  0.26077450  0.80840550  0.22709300  1
  N  797  1  0.40952500  0.82468000  0.35628300  1
  N  800  1  0.48993100  0.27169200  0.50880100  1
  N  803  1  0.44897050  0.25896150  0.41446700  1
  N  812  1  0.75253500  0.46995700  0.84273800  1
  N  815  1  0.78076950  0.51057750  0.74832800  1
  N  824  1  0.68633900  0.20612800  0.17423300  1
  N  827  1  0.69897750  0.17762650  0.07995300  1
  N  836  1  0.50410000  0.78716600  0.50097300  1
  N  839  1  0.46142800  0.75797200  0.40712100  1
  N  848  1  0.25344550  0.45482950  0.83393800  1
  N  851  1  0.26686700  0.49774600  0.74014400  1
  N  860  1  0.17267000  0.70602300  0.16612000  1
  N  863  1  0.20160750  0.69282450  0.07211600  1
  O  113  1  0.50978400  0.42850100  0.86442600  1
  O  114  1  0.45659400  0.11396300  0.79779200  1
  O  125  1  0.88926100  0.44970900  0.19835300  1
  O  126  1  0.62830750  0.50328950  0.13147100  1
  O  137  1  0.52910000  0.06973300  0.52987800  1
  O  138  1  0.84512500  0.32922400  0.46368200  1
  O  149  1  0.49671350  0.63462950  0.86371000  1
  O  150  1  0.44198050  0.89517650  0.79745200  1
  O  161  1  0.10807600  0.46177100  0.19683100  1
  O  162  1  0.42343050  0.51695750  0.13033700  1
  O  173  1  0.32579000  0.85045600  0.52933700  1
  O  174  1  0.06407150  0.53639750  0.46242900  1
  O  809  1  0.50978400  0.42850100  0.49141000  1
  O  810  1  0.45659400  0.11396300  0.42477600  1
  O  821  1  0.88926100  0.44970900  0.82533700  1
  O  822  1  0.62830750  0.50328950  0.75845500  1
  O  833  1  0.52910000  0.06973300  0.15686200  1
  O  834  1  0.84512500  0.32922400  0.09066600  1
  O  845  1  0.49671350  0.63462950  0.49069400  1
  O  846  1  0.44198050  0.89517650  0.42443600  1
  O  857  1  0.10807600  0.46177100  0.82381500  1
  O  858  1  0.42343050  0.51695750  0.75732100  1
  O  869  1  0.32579000  0.85045600  0.15632100  1
  O  870  1  0.06407150  0.53639750  0.08941300  1
