# generated using pymatgen
data_H39C53N4
_symmetry_space_group_name_H-M   'P 1'
_cell_length_a   18.53879833
_cell_length_b   19.13955000
_cell_length_c   48.80530000
_cell_angle_alpha   89.99400000
_cell_angle_beta   89.99167974
_cell_angle_gamma   71.03459988
_symmetry_Int_Tables_number   1
_chemical_formula_structural   H39C53N4
_chemical_formula_sum   'H156 C212 N16'
_cell_volume   16377.23440537
_cell_formula_units_Z   4
loop_
 _symmetry_equiv_pos_site_id
 _symmetry_equiv_pos_as_xyz
  1  'x, y, z'
loop_
 _atom_site_type_symbol
 _atom_site_label
 _atom_site_symmetry_multiplicity
 _atom_site_fract_x
 _atom_site_fract_y
 _atom_site_fract_z
 _atom_site_occupancy
  C  1  1  0.04025950  0.00260250  0.83536400  1
  C  2  1  0.99522200  0.95754200  0.83488100  1
  C  3  1  0.96528000  0.95966800  0.80851100  1
  C  5  1  0.03868500  0.03334300  0.80931600  1
  C  6  1  0.07591700  0.08487700  0.80180300  1
  C  7  1  0.08195300  0.10639000  0.77423300  1
  C  9  1  0.08282600  0.10715000  0.72831000  1
  C  10  1  0.11059450  0.16272950  0.73743400  1
  C  11  1  0.11000400  0.16229400  0.76570800  1
  C  12  1  0.07800250  0.08653350  0.70055500  1
  C  13  1  0.04160400  0.03511100  0.69213800  1
  C  15  1  0.96802200  0.96165000  0.69137100  1
  C  16  1  0.99981600  0.96047600  0.66535600  1
  C  17  1  0.04478100  0.00560300  0.66581100  1
  C  18  1  0.91578400  0.92446500  0.69885600  1
  C  19  1  0.89341900  0.91862300  0.72639800  1
  C  21  1  0.89249800  0.91787700  0.77230300  1
  C  22  1  0.83605650  0.88971050  0.76316900  1
  C  23  1  0.83655600  0.89026100  0.73490400  1
  C  24  1  0.91370550  0.92273550  0.80004800  1
  C  25  1  0.88319800  0.88592000  0.82027700  1
  C  26  1  0.82742900  0.92654900  0.83916500  1
  C  27  1  0.79218800  0.89017800  0.85725600  1
  C  28  1  0.81152300  0.81254800  0.85682500  1
  C  29  1  0.86807300  0.77178400  0.83824800  1
  C  30  1  0.90394600  0.80794400  0.82038200  1
  C  31  1  0.88634000  0.88840100  0.67795900  1
  C  32  1  0.83441000  0.92958800  0.65803100  1
  C  33  1  0.80092350  0.89407150  0.63895900  1
  C  34  1  0.81810650  0.81640350  0.63923600  1
  C  35  1  0.87033700  0.77542000  0.65905900  1
  C  36  1  0.90481200  0.81060900  0.67784800  1
  C  37  1  0.11487500  0.11709100  0.68025200  1
  C  38  1  0.19526700  0.09823500  0.67990500  1
  C  39  1  0.23141350  0.13316450  0.66164500  1
  C  40  1  0.18826300  0.18679600  0.64288500  1
  C  41  1  0.10822250  0.20441450  0.64276400  1
  C  42  1  0.07185000  0.17007400  0.66122700  1
  C  43  1  0.11183250  0.11461350  0.82276600  1
  C  44  1  0.19200100  0.09788600  0.82322100  1
  C  45  1  0.06810000  0.16428800  0.84264400  1
  C  46  1  0.10343650  0.19715850  0.86203300  1
  C  47  1  0.18348000  0.18157500  0.86213000  1
  C  48  1  0.22702400  0.13162500  0.84235700  1
  C  83  1  0.98352150  0.97275450  0.16540600  1
  C  84  1  0.02855500  0.01781400  0.16588900  1
  C  85  1  0.05874500  0.01543100  0.19222900  1
  C  87  1  0.98534050  0.94181250  0.19142900  1
  C  88  1  0.94860150  0.88984750  0.19889400  1
  C  89  1  0.94278200  0.86813200  0.22645000  1
  C  91  1  0.94175650  0.86744550  0.27237600  1
  C  92  1  0.91410300  0.81179800  0.26324300  1
  C  93  1  0.91476800  0.81219700  0.23497000  1
  C  94  1  0.94650650  0.88809850  0.30012900  1
  C  95  1  0.98308550  0.93936150  0.30856800  1
  C  97  1  0.05670700  0.01281200  0.30935100  1
  C  98  1  0.02503900  0.01382800  0.33538100  1
  C  99  1  0.97998400  0.96878400  0.33490800  1
  C  100  1  0.10880150  0.05014050  0.30185000  1
  C  101  1  0.13100000  0.05614400  0.27429800  1
  C  103  1  0.13185450  0.05691750  0.22839700  1
  C  104  1  0.18843800  0.08490900  0.23751900  1
  C  105  1  0.18794600  0.08438200  0.26578400  1
  C  106  1  0.11065700  0.05201800  0.20065400  1
  C  107  1  0.14121100  0.08876300  0.18041400  1
  C  108  1  0.19684700  0.04804500  0.16150000  1
  C  109  1  0.23213550  0.08433050  0.14339200  1
  C  110  1  0.21298600  0.16194600  0.14382800  1
  C  111  1  0.15659300  0.20277600  0.16244500  1
  C  112  1  0.12056450  0.16672950  0.18029700  1
  C  113  1  0.13821950  0.08625650  0.32273900  1
  C  114  1  0.19017600  0.04511900  0.34267100  1
  C  115  1  0.22361400  0.08068400  0.36174300  1
  C  116  1  0.20639100  0.15835600  0.36144800  1
  C  117  1  0.15409250  0.19930750  0.34163900  1
  C  118  1  0.11972450  0.16405350  0.32283500  1
  C  119  1  0.90965650  0.85748950  0.32042200  1
  C  120  1  0.82926800  0.87631000  0.32076800  1
  C  121  1  0.79314300  0.84134700  0.33902200  1
  C  122  1  0.83631500  0.78771300  0.35777600  1
  C  123  1  0.91635650  0.77011150  0.35789700  1
  C  124  1  0.95270450  0.80447550  0.33943400  1
  C  125  1  0.91275500  0.86008800  0.17792100  1
  C  126  1  0.83261150  0.87661850  0.17748400  1
  C  127  1  0.95654600  0.81053000  0.15802300  1
  C  128  1  0.92128300  0.77763400  0.13861500  1
  C  129  1  0.84125600  0.79309100  0.13851100  1
  C  130  1  0.79766850  0.84283550  0.15833700  1
  C  165  1  0.22756100  0.30119000  0.00023300  1
  C  166  1  0.27510550  0.34628250  0.00009400  1
  C  167  1  0.39071500  0.23495200  0.00715800  1
  C  168  1  0.34465050  0.18831950  0.00697600  1
  C  169  1  0.38122500  0.11150600  0.01065800  1
  C  170  1  0.46062800  0.08155800  0.01481900  1
  C  171  1  0.50499150  0.12893350  0.01499100  1
  C  172  1  0.47028400  0.20494500  0.01121300  1
  C  173  1  0.24282100  0.42371600  0.99786900  1
  C  174  1  0.16362350  0.45725750  0.99702700  1
  C  175  1  0.11474050  0.41401850  0.99781800  1
  C  176  1  0.14772500  0.33645800  0.99840900  1
  C  177  1  0.23864400  0.18487200  0.97753600  1
  C  178  1  0.19085900  0.13999400  0.97833400  1
  C  179  1  0.17593250  0.15613550  0.02956400  1
  C  180  1  0.22468550  0.20002050  0.02982000  1
  C  181  1  0.14169300  0.14330100  0.05408800  1
  C  182  1  0.15464350  0.17388350  0.07893500  1
  C  183  1  0.20370550  0.21666350  0.08012200  1
  C  184  1  0.23806450  0.22900950  0.05546900  1
  C  185  1  0.26608200  0.19821400  0.95145800  1
  C  186  1  0.24748750  0.16840250  0.92687500  1
  C  187  1  0.20116200  0.12305200  0.92860700  1
  C  188  1  0.17288400  0.10940800  0.95394800  1
  C  201  1  0.25901150  0.21824650  0.00352600  1
  C  202  1  0.15749250  0.12361750  0.00410500  1
  C  205  1  0.35868850  0.31559850  0.00315300  1
  C  208  1  0.03029400  0.44480300  0.99919600  1
  C  211  1  0.49854500  0.00074900  0.01503700  1
  C  214  1  0.21473000  0.25099800  0.10650400  1
  C  217  1  0.27801150  0.18085650  0.89967500  1
  C  220  1  0.79705200  0.67340700  0.00043000  1
  C  221  1  0.74952400  0.62830200  0.00056100  1
  C  222  1  0.63388900  0.73962200  0.99352200  1
  C  223  1  0.67994550  0.78626650  0.99369400  1
  C  224  1  0.64335500  0.86307900  0.99001600  1
  C  225  1  0.56393500  0.89302600  0.98589100  1
  C  226  1  0.51957700  0.84564400  0.98575300  1
  C  227  1  0.55431050  0.76962150  0.98949300  1
  C  228  1  0.78181500  0.55086800  0.00278600  1
  C  229  1  0.86101750  0.51733850  0.00357900  1
  C  230  1  0.90989350  0.56059050  0.00282700  1
  C  231  1  0.87689150  0.63815050  0.00224300  1
  C  232  1  0.79988800  0.77457600  0.97083200  1
  C  233  1  0.84859250  0.81850950  0.97107500  1
  C  234  1  0.83371000  0.83466000  0.02230600  1
  C  235  1  0.78596700  0.78974100  0.02311800  1
  C  236  1  0.85168200  0.86527500  0.04668700  1
  C  237  1  0.82345200  0.85161100  0.07203200  1
  C  238  1  0.77717450  0.80621450  0.07377800  1
  C  239  1  0.75858050  0.77637950  0.04920100  1
  C  240  1  0.78654150  0.74552350  0.94519100  1
  C  241  1  0.82086600  0.75787900  0.92053100  1
  C  242  1  0.86990450  0.80068550  0.92170700  1
  C  243  1  0.88281000  0.83133700  0.94654500  1
  C  256  1  0.76558600  0.75634900  0.99713400  1
  C  257  1  0.86702100  0.85106200  0.99652800  1
  C  260  1  0.66593400  0.65897300  0.99751300  1
  C  263  1  0.99433900  0.52982000  0.00142900  1
  C  266  1  0.52601050  0.97383050  0.98567500  1
  C  269  1  0.74672400  0.79371600  0.10098600  1
  C  272  1  0.80989000  0.72347300  0.89415800  1
  C  275  1  0.32822700  0.20044400  0.49843700  1
  C  276  1  0.37749800  0.24379700  0.49820800  1
  C  277  1  0.26615950  0.35866450  0.50569900  1
  C  278  1  0.21542900  0.31665900  0.50561300  1
  C  279  1  0.13677600  0.35464500  0.50963500  1
  C  280  1  0.10895650  0.43161450  0.51402800  1
  C  281  1  0.16039400  0.47193600  0.51418800  1
  C  282  1  0.23827800  0.43575800  0.51004100  1
  C  283  1  0.45706600  0.20957333  0.49587600  1
  C  284  1  0.48858600  0.13248900  0.49527400  1
  C  285  1  0.44103450  0.08791750  0.49620000  1
  C  286  1  0.36143300  0.12280600  0.49653400  1
  C  287  1  0.22334400  0.20115300  0.52834800  1
  C  288  1  0.17659100  0.15529300  0.52811000  1
  C  289  1  0.15929450  0.17069350  0.47692300  1
  C  290  1  0.20693500  0.21570700  0.47610200  1
  C  291  1  0.12726250  0.15386750  0.45253900  1
  C  292  1  0.14240300  0.18036900  0.42716800  1
  C  293  1  0.19057450  0.22390450  0.42542300  1
  C  294  1  0.22157800  0.24157400  0.45001000  1
  C  295  1  0.25465300  0.21255500  0.55393700  1
  C  296  1  0.24177050  0.17911650  0.57853900  1
  C  297  1  0.19611750  0.13298750  0.57736100  1
  C  298  1  0.16322200  0.12198300  0.55258300  1
  C  311  1  0.24297100  0.23374800  0.50202100  1
  C  312  1  0.14193300  0.13865900  0.50268700  1
  C  315  1  0.34904750  0.32482250  0.50138600  1
  C  318  1  0.46884250  0.00622750  0.49841100  1
  C  321  1  0.02610300  0.47120200  0.51484700  1
  C  324  1  0.20492900  0.25224700  0.39818600  1
  C  327  1  0.27836400  0.18824200  0.60487000  1
  C  330  1  0.69625500  0.77424000  0.50220700  1
  C  331  1  0.64696550  0.73090950  0.50246100  1
  C  332  1  0.75829700  0.61596600  0.49509500  1
  C  333  1  0.80904300  0.65795200  0.49513400  1
  C  334  1  0.88770650  0.61991750  0.49115900  1
  C  335  1  0.91552850  0.54290250  0.48688300  1
  C  336  1  0.86407300  0.50259500  0.48676600  1
  C  337  1  0.78617900  0.53882700  0.49085800  1
  C  338  1  0.56738700  0.76519900  0.50472600  1
  C  339  1  0.53589050  0.84225750  0.50525600  1
  C  340  1  0.58346450  0.88680650  0.50431600  1
  C  341  1  0.66306450  0.85189450  0.50404300  1
  C  342  1  0.81749050  0.75901450  0.52458200  1
  C  343  1  0.86516600  0.80399500  0.52375200  1
  C  344  1  0.84800550  0.81920750  0.47255300  1
  C  345  1  0.80124700  0.77335200  0.47232300  1
  C  346  1  0.86139600  0.85247500  0.44807400  1
  C  347  1  0.82851650  0.84142550  0.42329800  1
  C  348  1  0.78288900  0.79527200  0.42212400  1
  C  349  1  0.76998150  0.76188450  0.44673600  1
  C  350  1  0.80280500  0.73321400  0.55068000  1
  C  351  1  0.83381650  0.75089150  0.57526300  1
  C  352  1  0.88200850  0.79440650  0.57350900  1
  C  353  1  0.89718000  0.82086000  0.54813500  1
  C  366  1  0.78151950  0.74088750  0.49866500  1
  C  367  1  0.88259300  0.83593800  0.49797800  1
  C  370  1  0.67539900  0.64986200  0.49935700  1
  C  373  1  0.55568150  0.96849150  0.50207600  1
  C  376  1  0.99837650  0.50329550  0.48608000  1
  C  379  1  0.74628550  0.78613450  0.39579900  1
  C  382  1  0.81946800  0.72255300  0.60250200  1
  H  49  1  0.28467300  0.12110500  0.84124900  1
  H  50  1  0.22531950  0.06291950  0.80891800  1
  H  51  1  0.07006600  0.23463200  0.87557800  1
  H  52  1  0.00988450  0.17860450  0.84261100  1
  H  53  1  0.06893400  0.01123400  0.85222700  1
  H  54  1  0.98606650  0.92848250  0.85134000  1
  H  55  1  0.97757600  0.02138000  0.77551000  1
  H  56  1  0.97791650  0.02248450  0.72501500  1
  H  57  1  0.12763850  0.19723850  0.77779200  1
  H  58  1  0.12877600  0.19801700  0.72572000  1
  H  59  1  0.22790300  0.06090700  0.69368900  1
  H  60  1  0.28928950  0.12098050  0.66266100  1
  H  61  1  0.01354750  0.18569850  0.66127000  1
  H  62  1  0.07579300  0.24421100  0.62976500  1
  H  63  1  0.07425850  0.01524050  0.64933500  1
  H  64  1  0.99149800  0.93239100  0.64848900  1
  H  65  1  0.80021150  0.87126950  0.77486900  1
  H  66  1  0.80114200  0.87229300  0.72281500  1
  H  67  1  0.81866800  0.98603800  0.65785700  1
  H  68  1  0.76173800  0.92555800  0.62537900  1
  H  69  1  0.94128000  0.77917700  0.69224000  1
  H  70  1  0.88198850  0.71952250  0.66046900  1
  H  71  1  0.94321700  0.77707700  0.80665700  1
  H  72  1  0.88145450  0.71567850  0.83698200  1
  H  73  1  0.75012050  0.92083450  0.87007600  1
  H  74  1  0.81012900  0.98307200  0.83919900  1
  H  76  1  0.73012400  0.81630800  0.61363600  1
  H  78  1  0.74037350  0.75485150  0.86003800  1
  H  80  1  0.18159950  0.26716050  0.88788300  1
  H  82  1  0.24674350  0.25649550  0.63882600  1
  H  131  1  0.74003600  0.85325200  0.15944700  1
  H  132  1  0.79925350  0.91147350  0.19180800  1
  H  133  1  0.95469500  0.74030800  0.12503700  1
  H  134  1  0.01474800  0.79638900  0.15803100  1
  H  135  1  0.95512800  0.96385100  0.14851200  1
  H  136  1  0.03798150  0.04661650  0.14939700  1
  H  137  1  0.04730850  0.95293350  0.22509200  1
  H  138  1  0.04632000  0.95238100  0.27562300  1
  H  139  1  0.89718200  0.77723300  0.22287900  1
  H  140  1  0.89594150  0.77648650  0.27495300  1
  H  141  1  0.79661900  0.91372200  0.30701300  1
  H  142  1  0.73526050  0.85356850  0.33803000  1
  H  143  1  0.01101350  0.78880150  0.33936600  1
  H  144  1  0.94880800  0.73020900  0.37085500  1
  H  145  1  0.95050300  0.95913800  0.35138100  1
  H  146  1  0.03327700  0.04197600  0.35224400  1
  H  147  1  0.22438050  0.10319550  0.22581100  1
  H  148  1  0.22351300  0.10215100  0.27787100  1
  H  149  1  0.20592050  0.98866750  0.34286800  1
  H  150  1  0.26280150  0.04923050  0.37533000  1
  H  151  1  0.08321800  0.19546400  0.30845000  1
  H  152  1  0.14246250  0.25519750  0.34020200  1
  H  153  1  0.08148200  0.19764200  0.19406800  1
  H  154  1  0.14332000  0.25887100  0.16370500  1
  H  155  1  0.27411300  0.05361300  0.13055300  1
  H  156  1  0.21403000  0.99153000  0.16146300  1
  H  158  1  0.29432800  0.15852700  0.38706000  1
  H  160  1  0.28433400  0.21943100  0.14059700  1
  H  162  1  0.84324800  0.70749700  0.11275100  1
  H  164  1  0.77789050  0.71795750  0.36182100  1
  H  189  1  0.18788200  0.09913600  0.91143900  1
  H  190  1  0.13890900  0.07659700  0.95446100  1
  H  191  1  0.10552950  0.11266950  0.05394000  1
  H  192  1  0.12683450  0.16551050  0.09607900  1
  H  193  1  0.27244700  0.26134200  0.05603600  1
  H  194  1  0.30049700  0.23045100  0.95040400  1
  H  195  1  0.34949650  0.07661550  0.00991000  1
  H  196  1  0.56299800  0.10822000  0.01711600  1
  H  197  1  0.50380600  0.23821400  0.01114400  1
  H  198  1  0.11250600  0.30486000  0.99897000  1
  H  199  1  0.27675400  0.45660000  0.99789000  1
  H  200  1  0.14278950  0.51357550  0.99644500  1
  H  203  1  0.09541750  0.14324250  0.00172400  1
  H  204  1  0.17629150  0.06358850  0.00672800  1
  H  206  1  0.37488200  0.34224500  0.02088200  1
  H  207  1  0.38486800  0.33013200  0.98486000  1
  H  209  1  0.01231200  0.42072000  0.01722900  1
  H  210  1  0.00751600  0.42630200  0.98091200  1
  H  212  1  0.45903850  0.97299950  0.02243500  1
  H  213  1  0.54678200  0.98652200  0.02922800  1
  H  215  1  0.15928150  0.28604750  0.11409800  1
  H  216  1  0.24818200  0.28785300  0.10283400  1
  H  218  1  0.31606200  0.21363100  0.90222000  1
  H  219  1  0.31324650  0.12751250  0.89151500  1
  H  244  1  0.89766600  0.80909300  0.90455600  1
  H  245  1  0.91893750  0.86200650  0.94668400  1
  H  246  1  0.88562550  0.89811650  0.04616400  1
  H  247  1  0.83673700  0.87554200  0.08919700  1
  H  248  1  0.72419700  0.74411200  0.05026400  1
  H  249  1  0.75214500  0.71320600  0.94463000  1
  H  250  1  0.67507700  0.89797600  0.99075600  1
  H  251  1  0.46157200  0.86634700  0.98361400  1
  H  252  1  0.52079800  0.73634400  0.98956300  1
  H  253  1  0.91210250  0.66975950  0.00168800  1
  H  254  1  0.74790150  0.51796750  0.00272800  1
  H  255  1  0.88185950  0.46101950  0.00416400  1
  H  258  1  0.92909850  0.83148950  0.99889900  1
  H  259  1  0.84816450  0.91109450  0.99390000  1
  H  261  1  0.63978000  0.64441100  0.01580500  1
  H  262  1  0.64973350  0.63234550  0.97978000  1
  H  264  1  0.01713900  0.54832000  0.01970800  1
  H  265  1  0.01229650  0.55390850  0.98339200  1
  H  267  1  0.47777650  0.98805150  0.97148400  1
  H  268  1  0.56551250  0.00158850  0.97827700  1
  H  270  1  0.70871350  0.76089650  0.09845200  1
  H  271  1  0.71146050  0.84703850  0.10915300  1
  H  273  1  0.86535700  0.68844700  0.88657300  1
  H  274  1  0.77648500  0.68657800  0.89784200  1
  H  299  1  0.18725300  0.10601700  0.59446400  1
  H  300  1  0.13060650  0.08786350  0.55243400  1
  H  301  1  0.09257100  0.12175900  0.45305700  1
  H  302  1  0.11757500  0.16776600  0.40998600  1
  H  303  1  0.25608200  0.27372200  0.44892800  1
  H  304  1  0.28921400  0.24471300  0.55448200  1
  H  305  1  0.09899300  0.32578700  0.50897900  1
  H  306  1  0.14127200  0.52809900  0.51664700  1
  H  307  1  0.27448200  0.46635100  0.50997900  1
  H  308  1  0.32678650  0.09063950  0.49719800  1
  H  309  1  0.49300400  0.24042300  0.49586800  1
  H  310  1  0.54659450  0.11002450  0.49481500  1
  H  313  1  0.16093350  0.07857950  0.50019900  1
  H  314  1  0.07998200  0.15801300  0.50543700  1
  H  316  1  0.36485450  0.34941350  0.48305600  1
  H  317  1  0.37806700  0.33894300  0.51902900  1
  H  319  1  0.45045000  0.98395900  0.48003400  1
  H  320  1  0.44083400  0.99160000  0.51623000  1
  H  322  1  0.01384900  0.51551900  0.53007900  1
  H  323  1  0.99546450  0.43376550  0.52124800  1
  H  325  1  0.23918950  0.28871350  0.40074100  1
  H  326  1  0.15041200  0.28655500  0.38966800  1
  H  328  1  0.31385000  0.13396900  0.61220600  1
  H  329  1  0.31722450  0.21980750  0.60121500  1
  H  354  1  0.90684800  0.80701100  0.59068800  1
  H  355  1  0.93189600  0.85294100  0.54760800  1
  H  356  1  0.89399600  0.88660600  0.44821700  1
  H  357  1  0.83738500  0.86837600  0.40619100  1
  H  358  1  0.73543200  0.72971400  0.44619500  1
  H  359  1  0.76827700  0.70109100  0.55177000  1
  H  360  1  0.92549400  0.64877000  0.49179000  1
  H  361  1  0.88319800  0.44640900  0.48438800  1
  H  362  1  0.74996400  0.50824600  0.49095900  1
  H  363  1  0.69772600  0.88404700  0.50336900  1
  H  364  1  0.53143400  0.73433700  0.50474400  1
  H  365  1  0.47787950  0.86473450  0.50567200  1
  H  368  1  0.86358450  0.89602750  0.50043700  1
  H  369  1  0.94455200  0.81657600  0.49524700  1
  H  371  1  0.64644600  0.63562900  0.48171800  1
  H  372  1  0.65949850  0.62541050  0.51770600  1
  H  374  1  0.58370000  0.98308200  0.48425000  1
  H  375  1  0.57407400  0.99079800  0.52044500  1
  H  377  1  0.02904100  0.54071300  0.47968100  1
  H  378  1  0.01062350  0.45898050  0.47084600  1
  H  380  1  0.71074800  0.84040100  0.38847400  1
  H  381  1  0.70747100  0.75452000  0.39945600  1
  H  383  1  0.78517900  0.68611000  0.59995100  1
  H  384  1  0.87398300  0.68822300  0.61101100  1
  N  4  1  0.99350200  0.00535300  0.79394400  1
  N  8  1  0.06593500  0.07524400  0.75109700  1
  N  14  1  0.99570850  0.00632450  0.70675700  1
  N  20  1  0.92507600  0.93478400  0.74953300  1
  N  75  1  0.77777350  0.78009250  0.62264500  1
  N  77  1  0.76877700  0.77880200  0.87318700  1
  N  79  1  0.21964700  0.22095000  0.87914500  1
  N  81  1  0.22193400  0.22822000  0.62603400  1
  N  86  1  0.03033900  0.96995100  0.20683600  1
  N  90  1  0.95860600  0.89939200  0.24959100  1
  N  96  1  0.02908850  0.96807850  0.29397600  1
  N  102  1  0.09930350  0.03999350  0.25117100  1
  N  157  1  0.24666700  0.19471000  0.37804700  1
  N  159  1  0.25580450  0.19558750  0.12745700  1
  N  161  1  0.80515100  0.75365400  0.12150300  1
  N  163  1  0.80269650  0.74622450  0.37461900  1
