# generated using pymatgen
data_Co3H35C49(NO3)4
_symmetry_space_group_name_H-M   'P 1'
_cell_length_a   11.64252000
_cell_length_b   15.02850000
_cell_length_c   19.46922000
_cell_angle_alpha   70.87799000
_cell_angle_beta   76.21996000
_cell_angle_gamma   83.63480000
_symmetry_Int_Tables_number   1
_chemical_formula_structural   Co3H35C49(NO3)4
_chemical_formula_sum   'Co6 H70 C98 N8 O24'
_cell_volume   3123.91979355
_cell_formula_units_Z   2
loop_
 _symmetry_equiv_pos_site_id
 _symmetry_equiv_pos_as_xyz
  1  'x, y, z'
loop_
 _atom_site_type_symbol
 _atom_site_label
 _atom_site_symmetry_multiplicity
 _atom_site_fract_x
 _atom_site_fract_y
 _atom_site_fract_z
 _atom_site_occupancy
  Co  Co1  1  0.59859000  0.28483000  0.07633000  1.0
  Co  Co2  1  0.76677000  0.50593000  0.42291000  1.0
  Co  Co3  1  0.40141000  0.71509000  0.92377000  1.0
  Co  Co4  1  0.23317000  0.49409000  0.57711000  1.0
  Co  Co5  1  0.50007000  0.49995000  0.99999000  1.0
  Co  Co6  1  0.50000000  0.49987000  0.50000000  1.0
  H  H1  1  0.77859000  0.69963000  0.29861000  1.0
  H  H2  1  0.92558000  0.82422000  0.22990000  1.0
  H  H3  1  0.15562000  0.66678000  0.37722000  1.0
  H  H4  1  0.00090000  0.55148000  0.43813000  1.0
  H  H5  1  0.09624000  0.86767000  0.15066000  1.0
  H  H6  1  0.25222000  0.98415000  0.08592000  1.0
  H  H7  1  0.38506000  0.91260000  0.28598000  1.0
  H  H8  1  0.22566000  0.80043000  0.35292000  1.0
  H  H9  1  0.62276000  0.93230000  0.02857000  1.0
  H  H10  1  0.48580000  0.88496000  0.08269000  1.0
  H  H11  1  0.70607000  0.88240000  0.14584000  1.0
  H  H12  1  0.65225000  0.78370000  0.13248000  1.0
  H  H13  1  0.56677000  0.83515000  0.19890000  1.0
  H  H14  1  0.67930000  0.09214000  0.03558000  1.0
  H  H15  1  0.34010000  0.29272000  0.08425000  1.0
  H  H16  1  0.18638000  0.38254000  0.14648000  1.0
  H  H17  1  0.15174000  0.15034000  0.35073000  1.0
  H  H18  1  0.30957000  0.06170000  0.28887000  1.0
  H  H19  1  0.99290000  0.40823000  0.19743000  1.0
  H  H20  1  0.84561000  0.49577000  0.26977000  1.0
  H  H21  1  0.95930000  0.35469000  0.46428000  1.0
  H  H22  1  0.11886000  0.26766000  0.39922000  1.0
  H  H23  1  0.68513000  0.28073000  0.82012000  1.0
  H  H24  1  0.62271000  0.32871000  0.69760000  1.0
  H  H25  1  0.30030000  0.45280000  0.79318000  1.0
  H  H26  1  0.36742000  0.41336000  0.91304000  1.0
  H  H27  1  0.96746000  0.32850000  0.03715000  1.0
  H  H28  1  0.82822000  0.61327000  0.98540000  1.0
  H  H29  1  0.72920000  0.50875000  0.78884000  1.0
  H  H30  1  0.80968000  0.48900000  0.66322000  1.0
  H  H31  1  0.51766000  0.65813000  0.58340000  1.0
  H  H32  1  0.44437000  0.68596000  0.70667000  1.0
  H  H33  1  0.58358000  0.19794000  0.52859000  1.0
  H  H34  1  0.47778000  0.28709000  0.54871000  1.0
  H  H35  1  0.56285000  0.21901000  0.61506000  1.0
  H  H36  1  0.22139000  0.30037000  0.70141000  1.0
  H  H37  1  0.07441000  0.17577000  0.77012000  1.0
  H  H38  1  0.84438000  0.33320000  0.62279000  1.0
  H  H39  1  0.99909000  0.44850000  0.56188000  1.0
  H  H40  1  0.90376000  0.13231000  0.84936000  1.0
  H  H41  1  0.74777000  0.01583000  0.91408000  1.0
  H  H42  1  0.61495000  0.08737000  0.71403000  1.0
  H  H43  1  0.77434000  0.19955000  0.64708000  1.0
  H  H44  1  0.37722000  0.06770000  0.97143000  1.0
  H  H45  1  0.51418000  0.11505000  0.91733000  1.0
  H  H46  1  0.29395000  0.11761000  0.85416000  1.0
  H  H47  1  0.34774000  0.21630000  0.86752000  1.0
  H  H48  1  0.43324000  0.16486000  0.80110000  1.0
  H  H49  1  0.32069000  0.90788000  0.96446000  1.0
  H  H50  1  0.65987000  0.70724000  0.91577000  1.0
  H  H51  1  0.81359000  0.61744000  0.85355000  1.0
  H  H52  1  0.84822000  0.84962000  0.64931000  1.0
  H  H53  1  0.69039000  0.93826000  0.71116000  1.0
  H  H54  1  0.00711000  0.59176000  0.80260000  1.0
  H  H55  1  0.15442000  0.50424000  0.73026000  1.0
  H  H56  1  0.04070000  0.64529000  0.53574000  1.0
  H  H57  1  0.88111000  0.73231000  0.60081000  1.0
  H  H58  1  0.31480000  0.71927000  0.17993000  1.0
  H  H59  1  0.37732000  0.67131000  0.30240000  1.0
  H  H60  1  0.69968000  0.54723000  0.20677000  1.0
  H  H61  1  0.63245000  0.58664000  0.08694000  1.0
  H  H62  1  0.03231000  0.67151000  0.96284000  1.0
  H  H63  1  0.17155000  0.38673000  0.01461000  1.0
  H  H64  1  0.27048000  0.49130000  0.21127000  1.0
  H  H65  1  0.19025000  0.51097000  0.33690000  1.0
  H  H66  1  0.48228000  0.34185000  0.41663000  1.0
  H  H67  1  0.55551000  0.31407000  0.29330000  1.0
  H  H68  1  0.41643000  0.80198000  0.47141000  1.0
  H  H69  1  0.52223000  0.71285000  0.45128000  1.0
  H  H70  1  0.43718000  0.78094000  0.38494000  1.0
  C  C1  1  0.86341000  0.69597000  0.31378000  1.0
  C  C2  1  0.94679000  0.76440000  0.27526000  1.0
  C  C3  1  0.05605000  0.75653000  0.29603000  1.0
  C  C4  1  0.07434000  0.67834000  0.35667000  1.0
  C  C5  1  0.98673000  0.61298000  0.39203000  1.0
  C  C6  1  0.14858000  0.82616000  0.25653000  1.0
  C  C7  1  0.15777000  0.87874000  0.18103000  1.0
  C  C8  1  0.24690000  0.94316000  0.14410000  1.0
  C  C9  1  0.32971000  0.95637000  0.18148000  1.0
  C  C10  1  0.32092000  0.90317000  0.25663000  1.0
  C  C11  1  0.23138000  0.83956000  0.29408000  1.0
  C  C12  1  0.42317000  0.02536000  0.14423000  1.0
  C  C13  1  0.56514000  0.91681000  0.08428000  1.0
  C  C14  1  0.62674000  0.85087000  0.14394000  1.0
  C  C15  1  0.59387000  0.08541000  0.07350000  1.0
  C  C16  1  0.42940000  0.11642000  0.14558000  1.0
  C  C17  1  0.33665000  0.17053000  0.18219000  1.0
  C  C18  1  0.29875000  0.26081000  0.14258000  1.0
  C  C19  1  0.21064000  0.31146000  0.17792000  1.0
  C  C20  1  0.15749000  0.27342000  0.25369000  1.0
  C  C21  1  0.19371000  0.18214000  0.29258000  1.0
  C  C22  1  0.28185000  0.13156000  0.25751000  1.0
  C  C23  1  0.06804000  0.32768000  0.29265000  1.0
  C  C24  1  0.99032000  0.39484000  0.25623000  1.0
  C  C25  1  0.90725000  0.44343000  0.29605000  1.0
  C  C26  1  0.97105000  0.36514000  0.40510000  1.0
  C  C27  1  0.05755000  0.31501000  0.36869000  1.0
  C  C28  1  0.57098000  0.32031000  0.94369000  1.0
  C  C29  1  0.53024000  0.34467000  0.87325000  1.0
  C  C30  1  0.60159000  0.31895000  0.81320000  1.0
  C  C31  1  0.56647000  0.34476000  0.74565000  1.0
  C  C32  1  0.45779000  0.39332000  0.73843000  1.0
  C  C33  1  0.38450000  0.41556000  0.79956000  1.0
  C  C34  1  0.42118000  0.39292000  0.86633000  1.0
  C  C35  1  0.42144000  0.42371000  0.66541000  1.0
  C  C36  1  0.76344000  0.43222000  0.02506000  1.0
  C  C37  1  0.88537000  0.46731000  0.01249000  1.0
  C  C38  1  0.98262000  0.40341000  0.02085000  1.0
  C  C39  1  0.90391000  0.56423000  0.99163000  1.0
  C  C40  1  0.53179000  0.60941000  0.83045000  1.0
  C  C41  1  0.58194000  0.59857000  0.75533000  1.0
  C  C42  1  0.68516000  0.54314000  0.74303000  1.0
  C  C43  1  0.72961000  0.53170000  0.67327000  1.0
  C  C44  1  0.66890000  0.57260000  0.61556000  1.0
  C  C45  1  0.56563000  0.62842000  0.62781000  1.0
  C  C46  1  0.52391000  0.64277000  0.69660000  1.0
  C  C47  1  0.70831000  0.55285000  0.54356000  1.0
  C  C48  1  0.66414000  0.32201000  0.52226000  1.0
  C  C49  1  0.56435000  0.25327000  0.55569000  1.0
  C  C50  1  0.13657000  0.30403000  0.68624000  1.0
  C  C51  1  0.05319000  0.23559000  0.72475000  1.0
  C  C52  1  0.94394000  0.24345000  0.70398000  1.0
  C  C53  1  0.92565000  0.32165000  0.64334000  1.0
  C  C54  1  0.01326000  0.38700000  0.60799000  1.0
  C  C55  1  0.85140000  0.17383000  0.74348000  1.0
  C  C56  1  0.84222000  0.12124000  0.81898000  1.0
  C  C57  1  0.75309000  0.05681000  0.85591000  1.0
  C  C58  1  0.67028000  0.04361000  0.81854000  1.0
  C  C59  1  0.67908000  0.09681000  0.74338000  1.0
  C  C60  1  0.76861000  0.16042000  0.70593000  1.0
  C  C61  1  0.57681000  0.97462000  0.85579000  1.0
  C  C62  1  0.43486000  0.08319000  0.91573000  1.0
  C  C63  1  0.37327000  0.14913000  0.85606000  1.0
  C  C64  1  0.40613000  0.91457000  0.92654000  1.0
  C  C65  1  0.57059000  0.88355000  0.85446000  1.0
  C  C66  1  0.66335000  0.82945000  0.81785000  1.0
  C  C67  1  0.70126000  0.73917000  0.85746000  1.0
  C  C68  1  0.78936000  0.68852000  0.82212000  1.0
  C  C69  1  0.84251000  0.72656000  0.74634000  1.0
  C  C70  1  0.80627000  0.81782000  0.70746000  1.0
  C  C71  1  0.71813000  0.86841000  0.74253000  1.0
  C  C72  1  0.93195000  0.67229000  0.70738000  1.0
  C  C73  1  0.00969000  0.60515000  0.74379000  1.0
  C  C74  1  0.09276000  0.55657000  0.70397000  1.0
  C  C75  1  0.02894000  0.63485000  0.59492000  1.0
  C  C76  1  0.94243000  0.68497000  0.63134000  1.0
  C  C77  1  0.42888000  0.67962000  0.05639000  1.0
  C  C78  1  0.46964000  0.65529000  0.12681000  1.0
  C  C79  1  0.39835000  0.68104000  0.18685000  1.0
  C  C80  1  0.43355000  0.65525000  0.25436000  1.0
  C  C81  1  0.54223000  0.60668000  0.26157000  1.0
  C  C82  1  0.61549000  0.58447000  0.20042000  1.0
  C  C83  1  0.57874000  0.60708000  0.13367000  1.0
  C  C84  1  0.57859000  0.57628000  0.33460000  1.0
  C  C85  1  0.23643000  0.56769000  0.97498000  1.0
  C  C86  1  0.11444000  0.53269000  0.98753000  1.0
  C  C87  1  0.01717000  0.59660000  0.97915000  1.0
  C  C88  1  0.09587000  0.43578000  0.00837000  1.0
  C  C89  1  0.46827000  0.39061000  0.16961000  1.0
  C  C90  1  0.41797000  0.40155000  0.24471000  1.0
  C  C91  1  0.31469000  0.45694000  0.25700000  1.0
  C  C92  1  0.27029000  0.46829000  0.32680000  1.0
  C  C93  1  0.33101000  0.42738000  0.38448000  1.0
  C  C94  1  0.43426000  0.37157000  0.37225000  1.0
  C  C95  1  0.47600000  0.35729000  0.30344000  1.0
  C  C96  1  0.29164000  0.44715000  0.45646000  1.0
  C  C97  1  0.33589000  0.67790000  0.47773000  1.0
  C  C98  1  0.43566000  0.74666000  0.44430000  1.0
  N  N1  1  0.52797000  0.00743000  0.09782000  1.0
  N  N2  1  0.53735000  0.15265000  0.10124000  1.0
  N  N3  1  0.89554000  0.42863000  0.36980000  1.0
  N  N4  1  0.88249000  0.62026000  0.37128000  1.0
  N  N5  1  0.47201000  0.99255000  0.90220000  1.0
  N  N6  1  0.46266000  0.84731000  0.89882000  1.0
  N  N7  1  0.10446000  0.57137000  0.63023000  1.0
  N  N8  1  0.11749000  0.37974000  0.62874000  1.0
  O  O1  1  0.51251000  0.35752000  0.99526000  1.0
  O  O2  1  0.65612000  0.26318000  0.95726000  1.0
  O  O3  1  0.31083000  0.44225000  0.66666667  1.0
  O  O4  1  0.50268000  0.42834000  0.60798000  1.0
  O  O5  1  0.56122000  0.54800000  0.88672000  1.0
  O  O6  1  0.46216000  0.68158000  0.83252000  1.0
  O  O7  1  0.64001000  0.58026000  0.49588000  1.0
  O  O8  1  0.80560000  0.50894000  0.52755000  1.0
  O  O9  1  0.68100000  0.49331000  0.00865000  1.0
  O  O10  1  0.75392000  0.34244000  0.05139000  1.0
  O  O11  1  0.63967000  0.40438000  0.47578000  1.0
  O  O12  1  0.76379000  0.29891000  0.53666000  1.0
  O  O13  1  0.48730000  0.64235000  0.00485000  1.0
  O  O14  1  0.34382000  0.73682000  0.04277000  1.0
  O  O15  1  0.68919000  0.55772000  0.33333333  1.0
  O  O16  1  0.49732000  0.57162000  0.39202000  1.0
  O  O17  1  0.43914000  0.45202000  0.11325000  1.0
  O  O18  1  0.53794000  0.31842000  0.16765000  1.0
  O  O19  1  0.35995000  0.41969000  0.50413000  1.0
  O  O20  1  0.19439000  0.49108000  0.47249000  1.0
  O  O21  1  0.31881000  0.50657000  0.99149000  1.0
  O  O22  1  0.24605000  0.65746000  0.94855000  1.0
  O  O23  1  0.36035000  0.59553000  0.52423000  1.0
  O  O24  1  0.23628000  0.70105000  0.46330000  1.0
