# generated using pymatgen
data_Cr3H22C30N2O13
_symmetry_space_group_name_H-M   'P 1'
_cell_length_a   10.03337000
_cell_length_b   11.41418000
_cell_length_c   18.65372000
_cell_angle_alpha   90.00089000
_cell_angle_beta   90.00003000
_cell_angle_gamma   71.06475000
_symmetry_Int_Tables_number   1
_chemical_formula_structural   Cr3H22C30N2O13
_chemical_formula_sum   'Cr6 H44 C60 N4 O26'
_cell_volume   2020.67165089
_cell_formula_units_Z   2
loop_
 _symmetry_equiv_pos_site_id
 _symmetry_equiv_pos_as_xyz
  1  'x, y, z'
loop_
 _atom_site_type_symbol
 _atom_site_label
 _atom_site_symmetry_multiplicity
 _atom_site_fract_x
 _atom_site_fract_y
 _atom_site_fract_z
 _atom_site_occupancy
  Cr  Cr0  1  0.02014000  0.18761000  0.25000000  1
  Cr  Cr1  1  0.97986000  0.81239000  0.75000000  1
  Cr  Cr2  1  0.65836000  0.24581000  0.25000000  1
  Cr  Cr3  1  0.34164000  0.75419000  0.75000000  1
  Cr  Cr4  1  0.78009000  0.48576000  0.25000000  1
  Cr  Cr5  1  0.21991000  0.51424000  0.75000000  1
  H  H6  1  0.49134000  0.09151000  0.46169000  1
  H  H7  1  0.50838000  0.90855000  0.53828000  1
  H  H8  1  0.50864000  0.90848000  0.96170000  1
  H  H9  1  0.49157000  0.09146000  0.03830000  1
  H  H10  1  0.24704000  0.39284000  0.58811000  1
  H  H11  1  0.75287000  0.60721000  0.41191000  1
  H  H12  1  0.75298000  0.60714000  0.08811000  1
  H  H13  1  0.24713000  0.39279000  0.91191000  1
  H  H14  1  0.63820000  0.21684000  0.42617000  1
  H  H15  1  0.36149000  0.78316000  0.57376000  1
  H  H16  1  0.36168000  0.78315000  0.92622000  1
  H  H17  1  0.63850000  0.21683000  0.07377000  1
  H  H18  1  0.10493000  0.56580000  0.97103000  1
  H  H19  1  0.89517000  0.43409000  0.02894000  1
  H  H20  1  0.89509000  0.43420000  0.47103000  1
  H  H21  1  0.10485000  0.56590000  0.52895000  1
  H  H22  1  0.81640000  0.55915000  0.91887000  1
  H  H23  1  0.18354000  0.44097000  0.08117000  1
  H  H24  1  0.18358000  0.44088000  0.41886000  1
  H  H25  1  0.81646000  0.55903000  0.58117000  1
  H  H26  1  0.21717000  0.97625000  0.95284000  1
  H  H27  1  0.78287000  0.02362000  0.04718000  1
  H  H28  1  0.78283000  0.02370000  0.45283000  1
  H  H29  1  0.21714000  0.97636000  0.54718000  1
  H  H30  1  0.29065000  0.18520000  0.54390000  1
  H  H31  1  0.70919000  0.81486000  0.45614000  1
  H  H32  1  0.70938000  0.81477000  0.04389000  1
  H  H33  1  0.29078000  0.18515000  0.95614000  1
  H  H34  1  0.86899000  0.11361000  0.87946000  1
  H  H35  1  0.76964000  0.96363000  0.85451000  1
  H  H36  1  0.67386000  0.02718000  0.93382000  1
  H  H37  1  0.82571000  0.88892000  0.94018000  1
  H  H38  1  0.13106000  0.88639000  0.12057000  1
  H  H39  1  0.23038000  0.03641000  0.14547000  1
  H  H40  1  0.17428000  0.11107000  0.05980000  1
  H  H41  1  0.32615000  0.97283000  0.06617000  1
  H  H42  1  0.13103000  0.88641000  0.37944000  1
  H  H43  1  0.23033000  0.03645000  0.35452000  1
  H  H44  1  0.32616000  0.97283000  0.43381000  1
  H  H45  1  0.17429000  0.11109000  0.44022000  1
  H  H46  1  0.86894000  0.11359000  0.62057000  1
  H  H47  1  0.76963000  0.96356000  0.64547000  1
  H  H48  1  0.82570000  0.88892000  0.55979000  1
  H  H49  1  0.67383000  0.02717000  0.56617000  1
  C  C50  1  0.85902000  0.07145000  0.35322000  1
  C  C51  1  0.14097000  0.92856000  0.64679000  1
  C  C52  1  0.14098000  0.92854000  0.85322000  1
  C  C53  1  0.85903000  0.07144000  0.14679000  1
  C  C54  1  0.41810000  0.42960000  0.52799000  1
  C  C55  1  0.58180000  0.57041000  0.47201000  1
  C  C56  1  0.58192000  0.57037000  0.02799000  1
  C  C57  1  0.41820000  0.42958000  0.97201000  1
  C  C58  1  0.08432000  0.42193000  0.08119000  1
  C  C59  1  0.91570000  0.57806000  0.91882000  1
  C  C60  1  0.91568000  0.57806000  0.58119000  1
  C  C61  1  0.08430000  0.42194000  0.41881000  1
  C  C62  1  0.99063000  0.45952000  0.02830000  1
  C  C63  1  0.00943000  0.54041000  0.97168000  1
  C  C64  1  0.00938000  0.54047000  0.52830000  1
  C  C65  1  0.99058000  0.45959000  0.47168000  1
  C  C66  1  0.87916000  0.01504000  0.07565000  1
  C  C67  1  0.12087000  0.98487000  0.92437000  1
  C  C68  1  0.12084000  0.98494000  0.57565000  1
  C  C69  1  0.87914000  0.01510000  0.42437000  1
  C  C70  1  0.00129000  0.99289000  0.03985000  1
  C  C71  1  0.99874000  0.00705000  0.96018000  1
  C  C72  1  0.99872000  0.00709000  0.53984000  1
  C  C73  1  0.00126000  0.99293000  0.46017000  1
  C  C74  1  0.62631000  0.43625000  0.36269000  1
  C  C75  1  0.37366000  0.56376000  0.63732000  1
  C  C76  1  0.37369000  0.56375000  0.86269000  1
  C  C77  1  0.62635000  0.43624000  0.13732000  1
  C  C78  1  0.03678000  0.37853000  0.35388000  1
  C  C79  1  0.96322000  0.62147000  0.64612000  1
  C  C80  1  0.96322000  0.62147000  0.85388000  1
  C  C81  1  0.03678000  0.37853000  0.14612000  1
  C  C82  1  0.41645000  0.54193000  0.56116000  1
  C  C83  1  0.58347000  0.45808000  0.43884000  1
  C  C84  1  0.58356000  0.45805000  0.06116000  1
  C  C85  1  0.41654000  0.54191000  0.93884000  1
  C  C86  1  0.33230000  0.35833000  0.55058000  1
  C  C87  1  0.66759000  0.64170000  0.44944000  1
  C  C88  1  0.66773000  0.64164000  0.05058000  1
  C  C89  1  0.33240000  0.35830000  0.94944000  1
  C  C90  1  0.35496000  0.23886000  0.52506000  1
  C  C91  1  0.64489000  0.76119000  0.47496000  1
  C  C92  1  0.64506000  0.76112000  0.02505000  1
  C  C93  1  0.35509000  0.23882000  0.97497000  1
  C  C94  1  0.46532000  0.18709000  0.47829000  1
  C  C95  1  0.53446000  0.81296000  0.52170000  1
  C  C96  1  0.53468000  0.81289000  0.97829000  1
  C  C97  1  0.46551000  0.18705000  0.02171000  1
  C  C98  1  0.54476000  0.25867000  0.45415000  1
  C  C99  1  0.45502000  0.74135000  0.54581000  1
  C  C100  1  0.45521000  0.74132000  0.95417000  1
  C  C101  1  0.54497000  0.25864000  0.04582000  1
  C  C102  1  0.51395000  0.38297000  0.47240000  1
  C  C103  1  0.48593000  0.61704000  0.52760000  1
  C  C104  1  0.48606000  0.61701000  0.97240000  1
  C  C105  1  0.51407000  0.38295000  0.02760000  1
  C  C106  1  0.78079000  0.97953000  0.91258000  1
  C  C107  1  0.21922000  0.02048000  0.08741000  1
  C  C108  1  0.21920000  0.02051000  0.41259000  1
  C  C109  1  0.78077000  0.97950000  0.58741000  1
  N  N110  1  0.86747000  0.05797000  0.92287000  1
  N  N111  1  0.13255000  0.94202000  0.07715000  1
  N  N112  1  0.13253000  0.94204000  0.42286000  1
  N  N113  1  0.86744000  0.05797000  0.57715000  1
  O  O114  1  0.09789000  0.26771000  0.33180000  1
  O  O115  1  0.90211000  0.73229000  0.66820000  1
  O  O116  1  0.90211000  0.73229000  0.83180000  1
  O  O117  1  0.09789000  0.26771000  0.16820000  1
  O  O118  1  0.96115000  0.09948000  0.32554000  1
  O  O119  1  0.03885000  0.90052000  0.67446000  1
  O  O120  1  0.03885000  0.90052000  0.82554000  1
  O  O121  1  0.96115000  0.09948000  0.17446000  1
  O  O122  1  0.73234000  0.11672000  0.33079000  1
  O  O123  1  0.26766000  0.88328000  0.66921000  1
  O  O124  1  0.26766000  0.88328000  0.83079000  1
  O  O125  1  0.73234000  0.11672000  0.16921000  1
  O  O126  1  0.57241000  0.36671000  0.32456000  1
  O  O127  1  0.42759000  0.63329000  0.67544000  1
  O  O128  1  0.42759000  0.63329000  0.82456000  1
  O  O129  1  0.57241000  0.36671000  0.17544000  1
  O  O130  1  0.62824000  0.53487000  0.33061000  1
  O  O131  1  0.37176000  0.46513000  0.66939000  1
  O  O132  1  0.37176000  0.46513000  0.83061000  1
  O  O133  1  0.62824000  0.53487000  0.16939000  1
  O  O134  1  0.92484000  0.45308000  0.32552000  1
  O  O135  1  0.07516000  0.54692000  0.67448000  1
  O  O136  1  0.07516000  0.54692000  0.82552000  1
  O  O137  1  0.92484000  0.45308000  0.17448000  1
  O  O138  1  0.81953000  0.30639000  0.25000000  1
  O  O139  1  0.18047000  0.69361000  0.75000000  1
