# generated using pymatgen
data_H20C37N8
_symmetry_space_group_name_H-M   'P 1'
_cell_length_a   24.89365000
_cell_length_b   51.32835000
_cell_length_c   51.32800000
_cell_angle_alpha   119.99932330
_cell_angle_beta   90.00000000
_cell_angle_gamma   89.72819815
_symmetry_Int_Tables_number   1
_chemical_formula_structural   H20C37N8
_chemical_formula_sum   'H120 C222 N48'
_cell_volume   56797.24921640
_cell_formula_units_Z   6
loop_
 _symmetry_equiv_pos_site_id
 _symmetry_equiv_pos_as_xyz
  1  'x, y, z'
loop_
 _atom_site_type_symbol
 _atom_site_label
 _atom_site_symmetry_multiplicity
 _atom_site_fract_x
 _atom_site_fract_y
 _atom_site_fract_z
 _atom_site_occupancy
  C  1  1  0.74362300  0.62351600  0.45727900  1
  C  2  1  0.78181400  0.63894650  0.47975850  1
  C  3  1  0.81567700  0.61804200  0.48104850  1
  C  4  1  0.79983000  0.58911500  0.45916550  1
  C  5  1  0.82631800  0.56365500  0.45682500  1
  C  6  1  0.86928200  0.56739700  0.47653350  1
  C  7  1  0.88486400  0.59705400  0.49832050  1
  C  8  1  0.85850000  0.62240350  0.50060200  1
  C  9  1  0.78225900  0.67053900  0.49642450  1
  C  10  1  0.74404100  0.68666450  0.48979800  1
  C  11  1  0.70516500  0.67155200  0.46684750  1
  C  12  1  0.70528200  0.63964700  0.45061600  1
  C  13  1  0.76115600  0.57666400  0.40936500  1
  C  14  1  0.72244100  0.55471100  0.39342650  1
  C  15  1  0.68907300  0.55246150  0.41388800  1
  C  16  1  0.70568000  0.57327550  0.44307450  1
  C  17  1  0.64623800  0.53278900  0.40886900  1
  C  18  1  0.62075700  0.53376300  0.43379200  1
  C  19  1  0.63737300  0.55434850  0.46361550  1
  C  20  1  0.68023900  0.57423350  0.46812150  1
  C  21  1  0.79951200  0.58386450  0.39375900  1
  C  22  1  0.79921600  0.56865000  0.36185600  1
  C  23  1  0.75962200  0.54631600  0.34623500  1
  C  24  1  0.72134700  0.53918050  0.36182950  1
  C  37  1  0.75263600  0.59055200  0.44226750  1
  C  38  1  0.61595700  0.55254150  0.48752050  1
  C  39  1  0.83608100  0.57632700  0.34655550  1
  C  40  1  0.66911100  0.68736000  0.45925800  1
  C  41  1  0.89187800  0.54266100  0.47658750  1
  C  46  1  0.41225400  0.86618500  0.40816000  1
  C  47  1  0.45057800  0.87286300  0.39246300  1
  C  48  1  0.48427400  0.89507000  0.41315600  1
  C  49  1  0.46823400  0.90244850  0.44220250  1
  C  50  1  0.49446200  0.92567350  0.46748650  1
  C  51  1  0.53736600  0.94141800  0.46345500  1
  C  52  1  0.55324500  0.93316050  0.43368600  1
  C  53  1  0.52711400  0.91000100  0.40851100  1
  C  54  1  0.45118200  0.85767300  0.36085850  1
  C  55  1  0.41295400  0.83507000  0.34500200  1
  C  56  1  0.37395200  0.82761450  0.36039350  1
  C  57  1  0.37397000  0.84350350  0.39229900  1
  C  58  1  0.42948400  0.86558850  0.45524950  1
  C  59  1  0.39061900  0.87197100  0.47735700  1
  C  60  1  0.35724400  0.89468850  0.47943450  1
  C  61  1  0.37398600  0.90270100  0.45835350  1
  C  62  1  0.31424100  0.90961700  0.49913600  1
  C  63  1  0.28873200  0.93347750  0.49791000  1
  C  64  1  0.30546400  0.94233700  0.47703450  1
  C  65  1  0.34849500  0.92668950  0.45713050  1
  C  66  1  0.46787600  0.84269050  0.44818750  1
  C  67  1  0.46746700  0.82629500  0.46370250  1
  C  68  1  0.42771800  0.83338750  0.48618900  1
  C  69  1  0.38939400  0.85619650  0.49317850  1
  C  82  1  0.42106800  0.88435950  0.44107950  1
  C  83  1  0.28390400  0.96794600  0.47858200  1
  C  84  1  0.50435600  0.80322300  0.45617250  1
  C  85  1  0.33769700  0.80446300  0.34486350  1
  C  86  1  0.55962400  0.96632000  0.48803300  1
  C  91  1  0.07724200  0.57674800  0.16768550  1
  C  92  1  0.11559300  0.55414700  0.16054200  1
  C  93  1  0.14937000  0.55287150  0.13839000  1
  C  94  1  0.13325600  0.57486000  0.13144800  1
  C  95  1  0.15955200  0.57722550  0.10836300  1
  C  96  1  0.20255000  0.55740300  0.09229800  1
  C  97  1  0.21842000  0.53551000  0.10006200  1
  C  98  1  0.19224400  0.53320500  0.12309750  1
  C  99  1  0.11619400  0.53734900  0.17533450  1
  C  100  1  0.07786800  0.54389750  0.19797650  1
  C  101  1  0.03877800  0.56693350  0.20586750  1
  C  102  1  0.03882200  0.58335200  0.19038500  1
  C  103  1  0.09428600  0.62470900  0.16889800  1
  C  104  1  0.05539600  0.64077300  0.16292300  1
  C  105  1  0.02205800  0.62041850  0.14022400  1
  C  106  1  0.03897400  0.59118200  0.13176100  1
  C  107  1  0.97906000  0.62555950  0.12561200  1
  C  108  1  0.95366200  0.60071150  0.10166350  1
  C  109  1  0.97054200  0.57084000  0.09236900  1
  C  110  1  0.01359400  0.56621100  0.10769350  1
  C  111  1  0.13285800  0.64019200  0.19156000  1
  C  112  1  0.13256600  0.67209650  0.20815300  1
  C  113  1  0.09272400  0.68784900  0.20153500  1
  C  114  1  0.05423600  0.67237550  0.17894950  1
  C  127  1  0.08600600  0.59183500  0.14982400  1
  C  128  1  0.94924000  0.54701600  0.06663850  1
  C  129  1  0.16976400  0.68729450  0.23091300  1
  C  130  1  0.00248400  0.57437100  0.22909300  1
  C  131  1  0.22494000  0.55739600  0.06754100  1
  C  136  1  0.24531400  0.41916100  0.56478900  1
  C  137  1  0.28367000  0.40357900  0.54226600  1
  C  138  1  0.31723000  0.42436300  0.54081600  1
  C  139  1  0.30102800  0.45335100  0.56264900  1
  C  140  1  0.32711200  0.47872000  0.56483300  1
  C  141  1  0.37005100  0.47482800  0.54502000  1
  C  142  1  0.38608000  0.44511400  0.52332050  1
  C  143  1  0.36009600  0.41985400  0.52118800  1
  C  144  1  0.28439800  0.37198100  0.52565200  1
  C  145  1  0.24623400  0.35600950  0.53232650  1
  C  146  1  0.20714800  0.37127900  0.55529100  1
  C  147  1  0.20704400  0.40318600  0.57150900  1
  C  148  1  0.26233200  0.46612800  0.61256900  1
  C  149  1  0.22339400  0.48822600  0.62848900  1
  C  150  1  0.18989400  0.49039200  0.60801200  1
  C  151  1  0.20671400  0.46942900  0.57883600  1
  C  152  1  0.14697100  0.51023050  0.61299950  1
  C  153  1  0.12151400  0.50920350  0.58804950  1
  C  154  1  0.13830200  0.48843300  0.55823600  1
  C  155  1  0.18130000  0.46841250  0.55376050  1
  C  156  1  0.30096400  0.45904900  0.62820700  1
  C  157  1  0.30074400  0.47455800  0.66011500  1
  C  158  1  0.26091400  0.49702500  0.67571700  1
  C  159  1  0.22233600  0.50402100  0.66009100  1
  C  172  1  0.25390000  0.45209600  0.57966800  1
  C  173  1  0.11686200  0.49017800  0.53430100  1
  C  174  1  0.33792800  0.46707150  0.67548050  1
  C  175  1  0.17087700  0.35563100  0.56280300  1
  C  176  1  0.39220200  0.49948400  0.54482400  1
  C  181  1  0.91004800  0.17798350  0.61255200  1
  C  182  1  0.94835300  0.17070000  0.62785050  1
  C  183  1  0.98202000  0.14845650  0.60684000  1
  C  184  1  0.96602800  0.14167800  0.57798150  1
  C  185  1  0.99230400  0.11857600  0.55242400  1
  C  186  1  0.03532200  0.10243900  0.55601500  1
  C  187  1  0.05117000  0.11009050  0.58560350  1
  C  188  1  0.02491000  0.13308200  0.61104500  1
  C  189  1  0.94913400  0.18551650  0.65943750  1
  C  190  1  0.91106500  0.20835500  0.67569550  1
  C  191  1  0.87210300  0.21644900  0.66072400  1
  C  192  1  0.87193900  0.20091450  0.62881950  1
  C  193  1  0.92733800  0.17930450  0.56583450  1
  C  194  1  0.88854900  0.17349100  0.54389350  1
  C  195  1  0.85511900  0.15082200  0.54152600  1
  C  196  1  0.87178000  0.14227400  0.56224450  1
  C  197  1  0.81229800  0.13627800  0.52175750  1
  C  198  1  0.78684700  0.11228750  0.52255850  1
  C  199  1  0.80357800  0.10284750  0.54301550  1
  C  200  1  0.84640500  0.11812850  0.56301050  1
  C  201  1  0.96591900  0.20193800  0.57305750  1
  C  202  1  0.96582300  0.21862100  0.55784050  1
  C  203  1  0.92615000  0.21212900  0.53552450  1
  C  204  1  0.88760800  0.18959600  0.52839650  1
  C  217  1  0.91883900  0.16018150  0.57957400  1
  C  218  1  0.78238600  0.07701900  0.54093850  1
  C  219  1  0.00301200  0.24135950  0.56545800  1
  C  220  1  0.83614100  0.23990600  0.67666900  1
  C  221  1  0.05785000  0.07774750  0.53117000  1
  C  226  1  0.57842400  0.46932450  0.85588050  1
  C  227  1  0.61664900  0.49171000  0.86272900  1
  C  228  1  0.65033600  0.49312450  0.88496750  1
  C  229  1  0.63433900  0.47140950  0.89223050  1
  C  230  1  0.66063200  0.46920400  0.91541900  1
  C  231  1  0.70345800  0.48894100  0.93129700  1
  C  232  1  0.71922300  0.51054700  0.92320150  1
  C  233  1  0.69308100  0.51267450  0.90004650  1
  C  234  1  0.61726300  0.50818600  0.84760650  1
  C  235  1  0.57918400  0.50146600  0.82486900  1
  C  236  1  0.54027400  0.47860800  0.81723300  1
  C  237  1  0.54022200  0.46257000  0.83310400  1
  C  238  1  0.59590700  0.42155950  0.85512850  1
  C  239  1  0.55715800  0.40573650  0.86131550  1
  C  240  1  0.52363000  0.42629900  0.88399050  1
  C  241  1  0.54021000  0.45543350  0.89219300  1
  C  242  1  0.48068800  0.42141600  0.89876000  1
  C  243  1  0.45500600  0.44642900  0.92262300  1
  C  244  1  0.47154000  0.47620600  0.93166250  1
  C  245  1  0.51453200  0.48057550  0.91617500  1
  C  246  1  0.63440800  0.40582750  0.83230950  1
  C  247  1  0.63421800  0.37392250  0.81578850  1
  C  248  1  0.59459000  0.35842150  0.82268150  1
  C  249  1  0.55616200  0.37414050  0.84541700  1
  C  262  1  0.58726600  0.45448200  0.87399100  1
  C  263  1  0.44993000  0.50020750  0.95731350  1
  C  264  1  0.67116100  0.35849100  0.79276300  1
  C  265  1  0.50426000  0.47094600  0.79389200  1
  C  266  1  0.72573700  0.48916000  0.95618700  1
  C  271  1  0.90213000  0.58496000  0.30139250  1
  C  273  1  0.95239700  0.55675800  0.25637300  1
  C  275  1  0.90303900  0.53091050  0.27589500  1
  C  276  1  0.88488900  0.55827500  0.30037700  1
  C  281  1  0.57006400  0.74928000  0.44799350  1
  C  283  1  0.61946400  0.73253450  0.47649550  1
  C  285  1  0.57024000  0.77822300  0.50202700  1
  C  286  1  0.55264400  0.77518650  0.47455750  1
  C  291  1  0.23671400  0.73241550  0.28410500  1
  C  293  1  0.28740600  0.77694000  0.30012550  1
  C  295  1  0.23772000  0.75713700  0.25481850  1
  C  296  1  0.21937200  0.73308450  0.25823100  1
  C  301  1  0.40437000  0.45927600  0.72110600  1
  C  303  1  0.45496400  0.48791700  0.76570000  1
  C  305  1  0.40598000  0.51324600  0.74530650  1
  C  306  1  0.38741800  0.48574400  0.72141800  1
  C  311  1  0.06968900  0.29468050  0.57374450  1
  C  313  1  0.12104000  0.31076550  0.54542150  1
  C  315  1  0.07195400  0.26534650  0.51974650  1
  C  316  1  0.05295400  0.26875500  0.54714550  1
  C  321  1  0.73679300  0.31289100  0.73875400  1
  C  323  1  0.78686300  0.26775700  0.72194000  1
  C  325  1  0.73815000  0.28781250  0.76770650  1
  C  326  1  0.71992500  0.31219750  0.76468650  1
  C  331  1  0.02706800  0.52780850  0.49001750  1
  C  333  1  0.03750000  0.49962400  0.51495100  1
  C  335  1  0.94982200  0.50829100  0.50257450  1
  C  336  1  0.97077600  0.52504350  0.48991450  1
  C  341  1  0.69408700  0.99499750  0.50221800  1
  C  343  1  0.70339800  0.04810150  0.53095900  1
  C  345  1  0.61623000  0.02685850  0.52246600  1
  C  346  1  0.63776700  0.99752100  0.50533000  1
  C  351  1  0.36000800  0.54394200  0.03921500  1
  C  353  1  0.37042600  0.51939450  0.98614550  1
  C  355  1  0.28275000  0.53165200  0.00716250  1
  C  356  1  0.30368400  0.54422700  0.03658100  1
  C  361  1  0.52700900  0.51433200  0.53127700  1
  C  363  1  0.53678200  0.54281500  0.50665250  1
  C  365  1  0.44930400  0.53393500  0.51888200  1
  C  366  1  0.47065400  0.51706100  0.53139400  1
  C  371  1  0.19332800  0.04971350  0.51606950  1
  C  373  1  0.20424400  0.99661450  0.48777450  1
  C  375  1  0.11634400  0.01753300  0.49648650  1
  C  376  1  0.13704000  0.04696850  0.51331750  1
  C  381  1  0.86043200  0.50307150  0.98471450  1
  C  383  1  0.87009500  0.52787350  0.03783250  1
  C  385  1  0.78277600  0.51523400  0.01667400  1
  C  386  1  0.80412100  0.50272350  0.98730100  1
  H  25  1  0.75771100  0.53524450  0.32324050  1
  H  26  1  0.69276900  0.52330150  0.35024750  1
  H  27  1  0.63483700  0.51727550  0.38752400  1
  H  28  1  0.59105800  0.51849000  0.42984800  1
  H  29  1  0.69404300  0.58873800  0.48930900  1
  H  30  1  0.82700600  0.60034300  0.40577800  1
  H  31  1  0.81316600  0.54263100  0.44138500  1
  H  32  1  0.91456800  0.60056150  0.51351250  1
  H  33  1  0.86933000  0.64353550  0.51691400  1
  H  34  1  0.67833100  0.62801950  0.43365950  1
  H  35  1  0.81051500  0.68176000  0.51265600  1
  H  36  1  0.74565500  0.70966700  0.50157600  1
  H  42  1  0.85142700  0.59693750  0.35672650  1
  H  43  1  0.64085500  0.55026400  0.50143350  1
  H  44  1  0.65609600  0.67805100  0.43814100  1
  H  45  1  0.86839100  0.52559400  0.47309950  1
  H  70  1  0.42572400  0.82169100  0.49748900  1
  H  71  1  0.36074000  0.86078550  0.50919200  1
  H  72  1  0.30278600  0.90407800  0.51487050  1
  H  73  1  0.25894900  0.94503500  0.51322400  1
  H  74  1  0.36240200  0.93312000  0.44243450  1
  H  75  1  0.49548600  0.83795650  0.43159600  1
  H  76  1  0.48111800  0.93151300  0.48858950  1
  H  77  1  0.58297600  0.94463400  0.42995450  1
  H  78  1  0.53818600  0.90488200  0.38728800  1
  H  79  1  0.34688000  0.83847600  0.40412500  1
  H  80  1  0.47951400  0.86242100  0.34944350  1
  H  81  1  0.41463400  0.82367600  0.32199100  1
  H  87  1  0.51988200  0.79254450  0.43553750  1
  H  88  1  0.30859600  0.98411100  0.48077650  1
  H  89  1  0.32456500  0.79282700  0.35432700  1
  H  90  1  0.53606600  0.97982850  0.50525600  1
  H  115  1  0.09086000  0.71085500  0.21338650  1
  H  116  1  0.02559200  0.68405250  0.17464750  1
  H  117  1  0.96741400  0.64693800  0.13150500  1
  H  118  1  0.92381900  0.60474400  0.09037600  1
  H  119  1  0.02759000  0.54498600  0.10097100  1
  H  120  1  0.16059700  0.62809000  0.19592550  1
  H  121  1  0.14616600  0.59273200  0.10284200  1
  H  122  1  0.24819500  0.52025850  0.08832050  1
  H  123  1  0.20329600  0.51683100  0.12785550  1
  H  124  1  0.01167600  0.60035300  0.19573850  1
  H  125  1  0.14452800  0.52100200  0.17023450  1
  H  126  1  0.07951500  0.53197450  0.20906000  1
  H  132  1  0.18496500  0.67726450  0.24159300  1
  H  133  1  0.97418600  0.53296450  0.05049050  1
  H  134  1  0.98934600  0.59550850  0.24105700  1
  H  135  1  0.20140400  0.56121850  0.05413050  1
  H  160  1  0.25905800  0.50829800  0.69872200  1
  H  161  1  0.19363000  0.52002300  0.67166100  1
  H  162  1  0.13547600  0.52589100  0.63433500  1
  H  163  1  0.09172800  0.52457600  0.59196000  1
  H  164  1  0.19528600  0.45380900  0.53257700  1
  H  165  1  0.32869400  0.44250700  0.61621400  1
  H  166  1  0.31366600  0.49978600  0.58022900  1
  H  167  1  0.41575800  0.44149700  0.50804500  1
  H  168  1  0.37120400  0.39867700  0.50491500  1
  H  169  1  0.17988000  0.41492900  0.58844100  1
  H  170  1  0.31272600  0.36064650  0.50936050  1
  H  171  1  0.24797000  0.33300050  0.52053350  1
  H  177  1  0.35304600  0.44632300  0.66561500  1
  H  178  1  0.14167600  0.49212950  0.52017250  1
  H  179  1  0.15738400  0.36503850  0.58386850  1
  H  180  1  0.36845200  0.51660950  0.54840450  1
  H  205  1  0.92443100  0.22404850  0.52443850  1
  H  206  1  0.85906600  0.18539950  0.51247250  1
  H  207  1  0.80086300  0.14222750  0.50630450  1
  H  208  1  0.75724400  0.10100300  0.50717400  1
  H  209  1  0.86037300  0.11125350  0.57737350  1
  H  210  1  0.99354400  0.20620750  0.58948050  1
  H  211  1  0.97902300  0.11316850  0.53144500  1
  H  212  1  0.08092500  0.09826750  0.58898650  1
  H  213  1  0.03593700  0.13776550  0.63212850  1
  H  214  1  0.84491900  0.20642600  0.61729100  1
  H  215  1  0.97746100  0.18032050  0.67055750  1
  H  216  1  0.91291200  0.21948400  0.69869450  1
  H  222  1  0.01796400  0.25200000  0.58618200  1
  H  223  1  0.80741500  0.06073750  0.53842400  1
  H  224  1  0.82286000  0.25177150  0.66743650  1
  H  225  1  0.03426200  0.06414250  0.51415450  1
  H  250  1  0.59275000  0.33542600  0.81087900  1
  H  251  1  0.52757600  0.36264400  0.84985000  1
  H  252  1  0.46928600  0.40011000  0.89304800  1
  H  253  1  0.42521000  0.44258750  0.93403250  1
  H  254  1  0.52827400  0.50173000  0.92271900  1
  H  255  1  0.66192000  0.41775700  0.82771300  1
  H  256  1  0.64731100  0.45391400  0.92118100  1
  H  257  1  0.74886700  0.52573800  0.93479800  1
  H  258  1  0.70405300  0.52884850  0.89504800  1
  H  259  1  0.51324200  0.44568500  0.82793450  1
  H  260  1  0.64553800  0.52435500  0.85247600  1
  H  261  1  0.58091600  0.51311800  0.81351650  1
  H  267  1  0.68645000  0.36852200  0.78214750  1
  H  268  1  0.47464400  0.51410350  0.97352850  1
  H  269  1  0.49083000  0.44991450  0.78241550  1
  H  270  1  0.70210100  0.48566050  0.96975300  1
  H  277  1  0.88980700  0.60559550  0.31816150  1
  H  279  1  0.89177100  0.51076000  0.27366150  1
  H  287  1  0.55811200  0.74529500  0.42729800  1
  H  289  1  0.55880200  0.79631600  0.52210050  1
  H  297  1  0.22422800  0.71599000  0.28836600  1
  H  299  1  0.22637800  0.75911600  0.23673350  1
  H  307  1  0.39169600  0.43857950  0.70481700  1
  H  309  1  0.39491400  0.53326100  0.74702600  1
  H  317  1  0.05671000  0.29894150  0.59438300  1
  H  319  1  0.06105600  0.24723350  0.49964600  1
  H  327  1  0.72434000  0.32955650  0.73477000  1
  H  329  1  0.72710700  0.28579950  0.78580650  1
  H  337  1  0.04467200  0.54093600  0.48266750  1
  H  339  1  0.90938100  0.50701250  0.50505450  1
  H  347  1  0.71208700  0.97459050  0.48885300  1
  H  349  1  0.57568800  0.03049850  0.52412600  1
  H  357  1  0.37764000  0.55121450  0.05968850  1
  H  359  1  0.24230600  0.52931150  0.00342350  1
  H  367  1  0.54491400  0.50121400  0.53862700  1
  H  369  1  0.40883200  0.53515600  0.51638750  1
  H  377  1  0.21077200  0.07020650  0.52925500  1
  H  379  1  0.07595200  0.01370700  0.49521300  1
  H  387  1  0.87829600  0.49582350  0.96426900  1
  H  389  1  0.74226400  0.51741750  0.02034300  1
  N  272  1  0.93513500  0.58350250  0.27965950  1
  N  274  1  0.93621600  0.53088200  0.25493700  1
  N  278  1  0.98561100  0.55446100  0.23528850  1
  N  280  1  0.85140600  0.55701150  0.31977900  1
  N  282  1  0.60273600  0.72892800  0.44965500  1
  N  284  1  0.60310700  0.75720800  0.50225900  1
  N  288  1  0.65237600  0.71368300  0.47898400  1
  N  290  1  0.51933600  0.79591300  0.47563400  1
  N  292  1  0.26996000  0.75407250  0.30408950  1
  N  294  1  0.27113700  0.77803300  0.27547400  1
  N  298  1  0.32072000  0.79797900  0.31866800  1
  N  300  1  0.18552400  0.71379600  0.23786450  1
  N  302  1  0.43735000  0.46105150  0.74297850  1
  N  304  1  0.43912600  0.51358850  0.76642950  1
  N  308  1  0.48791800  0.49050700  0.78698800  1
  N  310  1  0.35369000  0.48672600  0.70195400  1
  N  312  1  0.10296500  0.31472400  0.57218850  1
  N  314  1  0.10536600  0.28606650  0.51962450  1
  N  318  1  0.15431400  0.32940100  0.54303600  1
  N  320  1  0.01906100  0.24836100  0.54596100  1
  N  322  1  0.76952400  0.29094500  0.71834900  1
  N  324  1  0.77104300  0.26663500  0.74663900  1
  N  328  1  0.81972300  0.24643400  0.70299350  1
  N  330  1  0.68649300  0.33173450  0.78541400  1
  N  332  1  0.05843900  0.51568400  0.50287700  1
  N  334  1  0.98335300  0.49690000  0.51527700  1
  N  338  1  0.06593100  0.49333800  0.53281100  1
  N  340  1  0.94109600  0.54320550  0.48437350  1
  N  342  1  0.72493500  0.02005000  0.51450350  1
  N  344  1  0.64922700  0.05104100  0.53403600  1
  N  348  1  0.73152300  0.07239050  0.53772050  1
  N  350  1  0.60858300  0.97372900  0.48725650  1
  N  352  1  0.39143400  0.53125200  0.01424750  1
  N  354  1  0.31628200  0.51910500  0.98305650  1
  N  358  1  0.39900600  0.50168450  0.96194650  1
  N  360  1  0.27420200  0.54955300  0.06023800  1
  N  362  1  0.55810600  0.52665500  0.51860100  1
  N  364  1  0.48257200  0.54547400  0.50630400  1
  N  368  1  0.56508800  0.54934250  0.48896550  1
  N  370  1  0.44138800  0.49888400  0.53694600  1
  N  372  1  0.22494000  0.02477450  0.50389700  1
  N  374  1  0.15011600  0.99348800  0.48504450  1
  N  378  1  0.23292200  0.97250850  0.48153200  1
  N  380  1  0.10724600  0.07059000  0.53158000  1
  N  382  1  0.89144900  0.51595800  0.00974250  1
  N  384  1  0.81594300  0.52794850  0.04082550  1
  N  388  1  0.89834700  0.54559750  0.06201700  1
  N  390  1  0.77481400  0.49706550  0.96351550  1
