# generated using pymatgen
data_V2H41C40N3O10
_symmetry_space_group_name_H-M   'P 1'
_cell_length_a   7.13967000
_cell_length_b   16.56728000
_cell_length_c   20.80750000
_cell_angle_alpha   93.34884000
_cell_angle_beta   89.99999000
_cell_angle_gamma   89.99994000
_symmetry_Int_Tables_number   1
_chemical_formula_structural   V2H41C40N3O10
_chemical_formula_sum   'V4 H82 C80 N6 O20'
_cell_volume   2457.01050225
_cell_formula_units_Z   2
loop_
 _symmetry_equiv_pos_site_id
 _symmetry_equiv_pos_as_xyz
  1  'x, y, z'
loop_
 _atom_site_type_symbol
 _atom_site_label
 _atom_site_symmetry_multiplicity
 _atom_site_fract_x
 _atom_site_fract_y
 _atom_site_fract_z
 _atom_site_occupancy
  V  V0  1  0.06456000  0.49931000  0.50740000  1
  V  V1  1  0.56456000  0.50069000  0.49260000  1
  V  V2  1  0.70154000  0.00070000  0.99261000  1
  V  V3  1  0.20154000  0.99930000  0.00739000  1
  H  H4  1  0.88206000  0.09186000  0.20881000  1
  H  H5  1  0.38205000  0.90814000  0.79119000  1
  H  H6  1  0.84598000  0.77159000  0.47432000  1
  H  H7  1  0.34598000  0.22841000  0.52568000  1
  H  H8  1  0.92316000  0.88824000  0.41618000  1
  H  H9  1  0.42316000  0.11175000  0.58382000  1
  H  H10  1  0.84464000  0.62186000  0.30159000  1
  H  H11  1  0.34464000  0.37814000  0.69841000  1
  H  H12  1  0.78703000  0.62345000  0.20536000  1
  H  H13  1  0.28703000  0.37655000  0.79464000  1
  H  H14  1  0.79667000  0.81384000  0.95631000  1
  H  H15  1  0.04476000  0.81587000  0.96446000  1
  H  H16  1  0.93776000  0.74584000  0.90815000  1
  H  H17  1  0.03569000  0.67360000  0.00127000  1
  H  H18  1  0.79264000  0.67341000  0.99024000  1
  H  H19  1  0.29667000  0.18616000  0.04369000  1
  H  H20  1  0.54476000  0.18413000  0.03554000  1
  H  H21  1  0.43775000  0.25416000  0.09185000  1
  H  H22  1  0.53568000  0.32640000  0.99873000  1
  H  H23  1  0.29263000  0.32659000  0.00976000  1
  H  H24  1  0.91925000  0.55082000  0.10100000  1
  H  H25  1  0.68515000  0.56755000  0.09901000  1
  H  H26  1  0.41925000  0.44918000  0.89900000  1
  H  H27  1  0.18515000  0.43245000  0.90099000  1
  H  H28  1  0.39661000  0.89814000  0.21878000  1
  H  H29  1  0.32270000  0.86955000  0.13792000  1
  H  H30  1  0.41408000  0.96999000  0.15795000  1
  H  H31  1  0.05820000  0.97986000  0.15369000  1
  H  H32  1  0.15044000  0.00490000  0.22629000  1
  H  H33  1  0.89661000  0.10186000  0.78122000  1
  H  H34  1  0.82270000  0.13044000  0.86208000  1
  H  H35  1  0.91408000  0.03001000  0.84205000  1
  H  H36  1  0.55819000  0.02014000  0.84631000  1
  H  H37  1  0.65044000  0.99510000  0.77371000  1
  H  H38  1  0.80032000  0.39942000  0.03911000  1
  H  H39  1  0.04024000  0.39560000  0.06900000  1
  H  H40  1  0.98414000  0.36951000  0.98589000  1
  H  H41  1  0.03273000  0.24504000  0.03108000  1
  H  H42  1  0.79334000  0.25183000  0.02115000  1
  H  H43  1  0.30032000  0.60058000  0.96089000  1
  H  H44  1  0.54025000  0.60440000  0.93100000  1
  H  H45  1  0.48414000  0.63049000  0.01412000  1
  H  H46  1  0.53274000  0.75496000  0.96892000  1
  H  H47  1  0.29335000  0.74817000  0.97885000  1
  H  H48  1  0.46665000  0.13587000  0.32998000  1
  H  H49  1  0.55119000  0.09779000  0.25209000  1
  H  H50  1  0.51796000  0.02974000  0.31534000  1
  H  H51  1  0.85700000  0.06064000  0.30452000  1
  H  H52  1  0.76589000  0.09259000  0.37950000  1
  H  H53  1  0.96663000  0.86412000  0.67002000  1
  H  H54  1  0.05117000  0.90220000  0.74791000  1
  H  H55  1  0.01791000  0.97025000  0.68466000  1
  H  H56  1  0.35697000  0.93936000  0.69548000  1
  H  H57  1  0.26586000  0.90741000  0.62050000  1
  H  H58  1  0.61611000  0.39341000  0.18359000  1
  H  H59  1  0.81694000  0.43567000  0.15367000  1
  H  H60  1  0.11613000  0.60658000  0.81641000  1
  H  H61  1  0.31695000  0.56433000  0.84633000  1
  H  H62  1  0.74200000  0.19883000  0.52280000  1
  H  H63  1  0.64265000  0.28087000  0.48108000  1
  H  H64  1  0.60618000  0.17810000  0.45060000  1
  H  H65  1  0.96386000  0.16699000  0.43468000  1
  H  H66  1  0.98483000  0.26834000  0.46114000  1
  H  H67  1  0.24200000  0.80116000  0.47720000  1
  H  H68  1  0.14264000  0.71913000  0.51892000  1
  H  H69  1  0.10618000  0.82190000  0.54940000  1
  H  H70  1  0.46385000  0.83301000  0.56532000  1
  H  H71  1  0.48483000  0.73166000  0.53886000  1
  H  H72  1  0.20356000  0.43931000  0.28316000  1
  H  H73  1  0.10933000  0.42429000  0.20307000  1
  H  H74  1  0.11459000  0.52410000  0.24194000  1
  H  H75  1  0.78700000  0.47507000  0.25232000  1
  H  H76  1  0.90000000  0.48529000  0.32493000  1
  H  H77  1  0.70357000  0.56069000  0.71684000  1
  H  H78  1  0.60935000  0.57571000  0.79693000  1
  H  H79  1  0.61460000  0.47590000  0.75806000  1
  H  H80  1  0.28702000  0.52493000  0.74768000  1
  H  H81  1  0.40001000  0.51471000  0.67507000  1
  H  H82  1  0.22187000  0.91920000  0.35072000  1
  H  H83  1  0.03242000  0.98070000  0.35837000  1
  H  H84  1  0.72185000  0.08080000  0.64928000  1
  H  H85  1  0.53240000  0.01930000  0.64163000  1
  C  C86  1  0.34435000  0.38236000  0.57072000  1
  C  C87  1  0.84435000  0.61764000  0.42928000  1
  C  C88  1  0.34423000  0.60480000  0.58984000  1
  C  C89  1  0.84423000  0.39520000  0.41016000  1
  C  C90  1  0.90685000  0.17547000  0.13715000  1
  C  C91  1  0.40685000  0.82453000  0.86285000  1
  C  C92  1  0.85318000  0.33372000  0.35484000  1
  C  C93  1  0.35318000  0.66628000  0.64516000  1
  C  C94  1  0.82973000  0.19165000  0.31566000  1
  C  C95  1  0.32972000  0.80835000  0.68434000  1
  C  C96  1  0.84964000  0.25069000  0.36737000  1
  C  C97  1  0.34963000  0.74931000  0.63263000  1
  C  C98  1  0.85966000  0.35802000  0.29025000  1
  C  C99  1  0.35966000  0.64198000  0.70975000  1
  C  C100  1  0.85294000  0.29752000  0.23763000  1
  C  C101  1  0.35295000  0.70248000  0.76237000  1
  C  C102  1  0.85459000  0.21458000  0.25145000  1
  C  C103  1  0.35459000  0.78542000  0.74855000  1
  C  C104  1  0.87998000  0.15534000  0.20049000  1
  C  C105  1  0.37997000  0.84466000  0.79951000  1
  C  C106  1  0.88616000  0.25693000  0.12137000  1
  C  C107  1  0.38617000  0.74307000  0.87863000  1
  C  C108  1  0.83833000  0.31593000  0.17123000  1
  C  C109  1  0.33834000  0.68407000  0.82877000  1
  C  C110  1  0.90437000  0.83170000  0.38842000  1
  C  C111  1  0.40437000  0.16830000  0.61158000  1
  C  C112  1  0.85183000  0.68902000  0.39081000  1
  C  C113  1  0.35183000  0.31098000  0.60919000  1
  C  C114  1  0.88534000  0.73454000  0.07933000  1
  C  C115  1  0.38533000  0.26546000  0.92067000  1
  C  C116  1  0.84449000  0.66804000  0.11590000  1
  C  C117  1  0.34449000  0.33196000  0.88410000  1
  C  C118  1  0.83311000  0.67644000  0.18237000  1
  C  C119  1  0.33311000  0.32356000  0.81763000  1
  C  C120  1  0.88450000  0.74804000  0.21735000  1
  C  C121  1  0.38450000  0.25196000  0.78265000  1
  C  C122  1  0.93581000  0.81744000  0.18263000  1
  C  C123  1  0.43581000  0.18256000  0.81737000  1
  C  C124  1  0.88571000  0.75105000  0.28643000  1
  C  C125  1  0.38571000  0.24895000  0.71357000  1
  C  C126  1  0.92802000  0.82469000  0.32089000  1
  C  C127  1  0.42802000  0.17531000  0.67910000  1
  C  C128  1  0.00966000  0.88777000  0.28879000  1
  C  C129  1  0.50965000  0.11223000  0.71121000  1
  C  C130  1  0.01351000  0.88581000  0.22043000  1
  C  C131  1  0.51350000  0.11418000  0.77956000  1
  C  C132  1  0.85621000  0.68206000  0.32327000  1
  C  C133  1  0.35621000  0.31794000  0.67673000  1
  C  C134  1  0.86155000  0.76482000  0.42251000  1
  C  C135  1  0.36156000  0.23518000  0.57749000  1
  C  C136  1  0.91583000  0.81199000  0.11230000  1
  C  C137  1  0.41583000  0.18801000  0.88770000  1
  C  C138  1  0.42148000  0.89187000  0.91307000  1
  C  C139  1  0.92148000  0.10813000  0.08693000  1
  C  C140  1  0.41846000  0.11604000  0.92744000  1
  C  C141  1  0.91846000  0.88396000  0.07256000  1
  C  C142  1  0.91014000  0.71264000  0.00668000  1
  C  C143  1  0.92304000  0.77651000  0.95681000  1
  C  C144  1  0.41014000  0.28736000  0.99332000  1
  C  C145  1  0.42303000  0.22349000  0.04319000  1
  C  C146  1  0.13120000  0.95147000  0.19233000  1
  C  C147  1  0.32753000  0.92013000  0.17525000  1
  C  C148  1  0.63120000  0.04853000  0.80767000  1
  C  C149  1  0.82753000  0.07987000  0.82475000  1
  C  C150  1  0.90874000  0.27713000  0.05071000  1
  C  C151  1  0.93477000  0.36603000  0.03621000  1
  C  C152  1  0.40875000  0.72287000  0.94929000  1
  C  C153  1  0.43477000  0.63397000  0.96379000  1
  C  C154  1  0.76379000  0.10612000  0.32820000  1
  C  C155  1  0.56276000  0.09179000  0.30478000  1
  C  C156  1  0.26377000  0.89388000  0.67180000  1
  C  C157  1  0.06273000  0.90820000  0.69522000  1
  C  C158  1  0.88738000  0.22537000  0.43543000  1
  C  C159  1  0.70819000  0.22038000  0.47461000  1
  C  C160  1  0.38738000  0.77463000  0.56457000  1
  C  C161  1  0.20819000  0.77962000  0.52539000  1
  C  C162  1  0.89972000  0.44712000  0.27961000  1
  C  C163  1  0.09314000  0.45903000  0.24987000  1
  C  C164  1  0.39973000  0.55288000  0.72039000  1
  C  C165  1  0.59316000  0.54097000  0.75013000  1
  N  N166  1  0.81546000  0.58928000  0.08490000  1
  N  N167  1  0.31546000  0.41071000  0.91510000  1
  N  N168  1  0.73222000  0.38454000  0.15337000  1
  N  N169  1  0.23223000  0.61546000  0.84663000  1
  N  N170  1  0.11731000  0.94814000  0.32541000  1
  N  N171  1  0.61729000  0.05186000  0.67459000  1
  O  O172  1  0.50529000  0.57983000  0.56484000  1
  O  O173  1  0.00529000  0.42017000  0.43516000  1
  O  O174  1  0.17993000  0.40935000  0.55672000  1
  O  O175  1  0.67993000  0.59065000  0.44328000  1
  O  O176  1  0.17581000  0.57853000  0.57228000  1
  O  O177  1  0.67581000  0.42147000  0.42772000  1
  O  O178  1  0.00192000  0.59054000  0.45083000  1
  O  O179  1  0.50192000  0.40946000  0.54917000  1
  O  O180  1  0.33803000  0.50375000  0.46013000  1
  O  O181  1  0.83803000  0.49625000  0.53987000  1
  O  O182  1  0.25667000  0.09052000  0.95079000  1
  O  O183  1  0.75667000  0.90948000  0.04921000  1
  O  O184  1  0.59037000  0.92147000  0.92772000  1
  O  O185  1  0.09037000  0.07853000  0.07228000  1
  O  O186  1  0.58618000  0.09064000  0.94327000  1
  O  O187  1  0.08618000  0.90936000  0.05673000  1
  O  O188  1  0.75997000  0.07984000  0.06485000  1
  O  O189  1  0.25997000  0.92016000  0.93515000  1
  O  O190  1  0.42805000  0.99624000  0.03985000  1
  O  O191  1  0.92805000  0.00376000  0.96015000  1
