# generated using pymatgen
data_H15C20O3
_symmetry_space_group_name_H-M   'P 1'
_cell_length_a   9.87100000
_cell_length_b   31.86105000
_cell_length_c   31.86110000
_cell_angle_alpha   120.00015574
_cell_angle_beta   90.00000000
_cell_angle_gamma   90.00000000
_symmetry_Int_Tables_number   1
_chemical_formula_structural   H15C20O3
_chemical_formula_sum   'H90 C120 O18'
_cell_volume   8677.84626276
_cell_formula_units_Z   6
loop_
 _symmetry_equiv_pos_site_id
 _symmetry_equiv_pos_as_xyz
  1  'x, y, z'
loop_
 _atom_site_type_symbol
 _atom_site_label
 _atom_site_symmetry_multiplicity
 _atom_site_fract_x
 _atom_site_fract_y
 _atom_site_fract_z
 _atom_site_occupancy
  C  1  1  0.97099900  0.96344700  0.48300100  1
  C  2  1  0.99162400  0.93499200  0.50582400  1
  C  3  1  0.95011800  0.93630800  0.43167800  1
  C  16  1  0.99226200  0.88353200  0.48029900  1
  C  17  1  0.97181700  0.85910800  0.42947600  1
  C  18  1  0.94924500  0.88491200  0.40454200  1
  C  19  1  0.93291600  0.85751100  0.35274000  1
  C  20  1  0.04260000  0.85269700  0.32222300  1
  C  22  1  0.90399100  0.85250800  0.53243200  1
  C  23  1  0.00861200  0.85491500  0.50350000  1
  C  45  1  0.82879100  0.82233100  0.33270900  1
  C  46  1  0.05177000  0.81260000  0.27483000  1
  C  49  1  0.89619200  0.81352000  0.54153600  1
  C  50  1  0.10893700  0.81829500  0.48658100  1
  C  73  1  0.97093500  0.01693700  0.51039700  1
  C  74  1  0.94985200  0.04407900  0.56170900  1
  C  75  1  0.94874100  0.09547600  0.58882700  1
  C  76  1  0.97121900  0.12127700  0.56388600  1
  C  77  1  0.99200000  0.09685300  0.51307800  1
  C  78  1  0.99153200  0.04539200  0.48756600  1
  C  83  1  0.97094800  0.50323600  0.02347500  1
  C  84  1  0.99157300  0.55452000  0.05193000  1
  C  85  1  0.99208000  0.58045900  0.10339100  1
  C  86  1  0.97146300  0.55406700  0.12781300  1
  C  87  1  0.94895100  0.50332800  0.10200800  1
  C  88  1  0.94986300  0.47906400  0.05061400  1
  C  91  1  0.97099800  0.47714200  0.96998200  1
  C  92  1  0.95014300  0.50132300  0.94284100  1
  C  93  1  0.94914600  0.47705200  0.89144300  1
  C  94  1  0.97159600  0.42630600  0.86564300  1
  C  95  1  0.99212900  0.39991200  0.89006700  1
  C  96  1  0.99158400  0.42585700  0.94152600  1
  C  103  1  0.97098700  0.50391700  0.48372300  1
  C  104  1  0.99155200  0.48108200  0.43243800  1
  C  105  1  0.99216100  0.50659500  0.40649100  1
  C  106  1  0.97162500  0.55741600  0.43288200  1
  C  107  1  0.94916700  0.58236600  0.48362900  1
  C  108  1  0.95014800  0.55524100  0.50790200  1
  C  111  1  0.97092600  0.47651800  0.50981700  1
  C  112  1  0.94980200  0.42520800  0.48564300  1
  C  113  1  0.94879900  0.39807900  0.50990900  1
  C  114  1  0.97139100  0.42300600  0.56064300  1
  C  115  1  0.99208900  0.47381700  0.58703500  1
  C  116  1  0.99158800  0.49934000  0.56109700  1
  C  123  1  0.84090000  0.77987800  0.28650100  1
  C  124  1  0.95637800  0.77417800  0.25696100  1
  C  125  1  0.98720600  0.72933200  0.21311900  1
  C  126  1  0.89624100  0.71172300  0.17337400  1
  C  127  1  0.90395000  0.66363500  0.13437500  1
  C  128  1  0.00844900  0.63228100  0.13200300  1
  C  129  1  0.10881600  0.65191800  0.16861200  1
  C  130  1  0.09704200  0.69868400  0.21029000  1
  C  134  1  0.73640500  0.74160300  0.27450100  1
  C  135  1  0.19333400  0.71311500  0.25171800  1
  C  144  1  0.93221700  0.47897800  0.12943000  1
  C  145  1  0.82814200  0.49405600  0.16460700  1
  C  146  1  0.84031100  0.49034100  0.20707900  1
  C  147  1  0.95577000  0.46649900  0.21278100  1
  C  148  1  0.05128300  0.44604500  0.17439100  1
  C  149  1  0.04198200  0.45329300  0.13426400  1
  C  152  1  0.98664100  0.46751700  0.25763300  1
  C  153  1  0.89575700  0.44538400  0.27525800  1
  C  154  1  0.90378000  0.45430600  0.32327700  1
  C  155  1  0.00817600  0.48333600  0.35465600  1
  C  156  1  0.10857100  0.50029900  0.33498900  1
  C  157  1  0.09650600  0.49532100  0.28826800  1
  C  162  1  0.73558900  0.51647700  0.24530100  1
  C  163  1  0.19259800  0.52241600  0.27388800  1
  C  172  1  0.93284300  0.63416700  0.50802400  1
  C  173  1  0.82871100  0.65420200  0.49287900  1
  C  174  1  0.84084800  0.70040100  0.49661700  1
  C  175  1  0.95632700  0.72994300  0.52045500  1
  C  176  1  0.05169900  0.71207800  0.54102000  1
  C  177  1  0.04252000  0.66468600  0.53372600  1
  C  180  1  0.98718500  0.77378100  0.51944300  1
  C  181  1  0.09710300  0.77661500  0.49166400  1
  C  183  1  0.73637200  0.71239400  0.47032800  1
  C  184  1  0.19343700  0.73519400  0.46469300  1
  C  193  1  0.93198300  0.12291600  0.64060700  1
  C  194  1  0.82787100  0.15806000  0.66071400  1
  C  195  1  0.84015400  0.20052100  0.70690100  1
  C  196  1  0.95570800  0.20620800  0.73640600  1
  C  197  1  0.05124200  0.16781800  0.71843100  1
  C  198  1  0.04188200  0.12769800  0.67105200  1
  C  201  1  0.98663800  0.25104900  0.78024300  1
  C  202  1  0.89581700  0.26867500  0.82001700  1
  C  203  1  0.90388300  0.31668900  0.85911100  1
  C  204  1  0.00827800  0.34809100  0.86148700  1
  C  205  1  0.10857200  0.32840000  0.82482100  1
  C  206  1  0.09648400  0.28168500  0.78307100  1
  C  211  1  0.73543700  0.23875200  0.71902700  1
  C  212  1  0.19252400  0.26731900  0.74158200  1
  C  221  1  0.93274300  0.50144200  0.86402600  1
  C  222  1  0.82856000  0.48633300  0.82888500  1
  C  223  1  0.84076700  0.49009800  0.78644100  1
  C  224  1  0.95631900  0.51391700  0.78075100  1
  C  225  1  0.05174800  0.53443800  0.81917400  1
  C  226  1  0.04254100  0.52712800  0.85926100  1
  C  229  1  0.98719700  0.51292400  0.73591400  1
  C  230  1  0.89629400  0.53507300  0.71830200  1
  C  231  1  0.90406200  0.52598600  0.67021700  1
  C  232  1  0.00857000  0.49700500  0.63884200  1
  C  233  1  0.10882600  0.48002100  0.65850500  1
  C  234  1  0.09701800  0.48509700  0.70526800  1
  C  239  1  0.73626700  0.46385400  0.74816100  1
  C  240  1  0.19325300  0.45807000  0.71968300  1
  C  249  1  0.93203500  0.34630000  0.48556300  1
  C  250  1  0.82792900  0.32619700  0.50060700  1
  C  251  1  0.84019000  0.28000200  0.49686600  1
  C  252  1  0.95574000  0.25049700  0.47304500  1
  C  253  1  0.05129400  0.26847800  0.45264300  1
  C  254  1  0.04194200  0.31585600  0.45990200  1
  C  257  1  0.98664900  0.20665700  0.47404400  1
  C  258  1  0.89585800  0.16687500  0.45185000  1
  C  259  1  0.90386000  0.12776600  0.46075300  1
  C  260  1  0.00813600  0.12543500  0.48983100  1
  C  261  1  0.10845900  0.16209000  0.50685900  1
  C  262  1  0.09641400  0.20384100  0.50189400  1
  C  267  1  0.73544900  0.26786600  0.52295600  1
  C  268  1  0.19239400  0.24533800  0.52904400  1
  H  4  1  0.01120600  0.95164600  0.54208200  1
  H  5  1  0.93012800  0.95387400  0.41298000  1
  H  21  1  0.12312800  0.87596800  0.33578800  1
  H  24  1  0.82604200  0.87694800  0.54374500  1
  H  44  1  0.05389700  0.79825400  0.38657700  1
  H  47  1  0.13651200  0.80955200  0.25498400  1
  H  48  1  0.75126300  0.82433000  0.35507500  1
  H  51  1  0.81396100  0.81181300  0.56020800  1
  H  52  1  0.18446900  0.81972800  0.46535200  1
  H  80  1  0.01136700  0.02873900  0.45132800  1
  H  81  1  0.05255400  0.18226100  0.60685400  1
  H  82  1  0.92992700  0.02651000  0.58040700  1
  H  89  1  0.01140700  0.57410800  0.03528000  1
  H  98  1  0.01117600  0.40626000  0.95818500  1
  H  99  1  0.05318500  0.57205900  0.18873400  1
  H  100  1  0.05329700  0.40832800  0.80472200  1
  H  101  1  0.92992700  0.44279700  0.03304400  1
  H  102  1  0.93015000  0.53758600  0.96040700  1
  H  109  1  0.01109500  0.44482300  0.41283600  1
  H  118  1  0.01146900  0.53557600  0.58068500  1
  H  119  1  0.05339100  0.60034500  0.41490300  1
  H  120  1  0.05304500  0.38006800  0.57863300  1
  H  121  1  0.93023000  0.57394600  0.54416900  1
  H  122  1  0.92980000  0.40651300  0.44937900  1
  H  131  1  0.81407400  0.73213200  0.17508200  1
  H  132  1  0.82601600  0.65052600  0.10992600  1
  H  133  1  0.18425700  0.62922900  0.16717900  1
  H  137  1  0.13709000  0.72840900  0.28583200  1
  H  138  1  0.25963100  0.74134200  0.25352100  1
  H  139  1  0.22448600  0.65284600  0.25377300  1
  H  141  1  0.76501900  0.70658700  0.24390300  1
  H  142  1  0.72278400  0.73592900  0.30543500  1
  H  143  1  0.54322800  0.73189500  0.25691800  1
  H  150  1  0.13611700  0.42929800  0.17745700  1
  H  151  1  0.12275400  0.44372000  0.11111100  1
  H  158  1  0.81383900  0.42653400  0.25478800  1
  H  159  1  0.82590000  0.44298100  0.33641500  1
  H  160  1  0.18382200  0.52165800  0.35769600  1
  H  161  1  0.75058400  0.51441400  0.16261200  1
  H  165  1  0.13620300  0.54122200  0.25861200  1
  H  166  1  0.25901100  0.49605400  0.24565900  1
  H  167  1  0.22347500  0.58473400  0.33419100  1
  H  169  1  0.76423000  0.52094600  0.28033300  1
  H  170  1  0.72155400  0.55306100  0.25095700  1
  H  171  1  0.54252800  0.50834500  0.25492400  1
  H  178  1  0.13643200  0.73192500  0.55782300  1
  H  179  1  0.12304700  0.65112300  0.54343700  1
  H  182  1  0.75118100  0.63183500  0.47251200  1
  H  186  1  0.13722200  0.70107100  0.44587800  1
  H  187  1  0.25972000  0.73341300  0.49113300  1
  H  188  1  0.22462000  0.73311400  0.40236100  1
  H  190  1  0.76503900  0.74296800  0.46588100  1
  H  191  1  0.72270900  0.68144600  0.43373300  1
  H  192  1  0.54322800  0.73001400  0.47820600  1
  H  199  1  0.13611700  0.17087800  0.73822000  1
  H  200  1  0.12264300  0.10454100  0.65743700  1
  H  207  1  0.81389100  0.24821100  0.81840900  1
  H  208  1  0.82602600  0.32981900  0.88358900  1
  H  209  1  0.18381300  0.35110400  0.82616000  1
  H  210  1  0.75028000  0.15606700  0.63837200  1
  H  214  1  0.13608500  0.25204800  0.70750800  1
  H  215  1  0.25896100  0.23908900  0.73969900  1
  H  216  1  0.22333200  0.32763400  0.73958300  1
  H  218  1  0.76417000  0.27378500  0.74957300  1
  H  219  1  0.72125700  0.24440300  0.68810300  1
  H  220  1  0.54244700  0.24840300  0.73687600  1
  H  227  1  0.13652200  0.55121900  0.81612600  1
  H  228  1  0.12306800  0.53680500  0.88253200  1
  H  235  1  0.81413300  0.55377800  0.73870500  1
  H  236  1  0.82615000  0.53734300  0.65711500  1
  H  237  1  0.18425700  0.45875400  0.63582000  1
  H  238  1  0.75101400  0.46597100  0.83088200  1
  H  242  1  0.13695900  0.43925700  0.73497500  1
  H  243  1  0.25958100  0.48447900  0.74791200  1
  H  244  1  0.22432500  0.39575000  0.65940800  1
  H  246  1  0.76494800  0.45942300  0.71314500  1
  H  247  1  0.72252100  0.42725300  0.74249000  1
  H  248  1  0.54314600  0.47178900  0.73843600  1
  H  255  1  0.13617900  0.24868800  0.43591700  1
  H  256  1  0.12270500  0.32947500  0.45036800  1
  H  263  1  0.81400200  0.16848300  0.43296800  1
  H  264  1  0.82602100  0.10328500  0.44938500  1
  H  265  1  0.18361000  0.16075800  0.52826000  1
  H  266  1  0.75035000  0.34854000  0.52096100  1
  H  270  1  0.13591500  0.27940300  0.54785300  1
  H  271  1  0.25885100  0.24724800  0.50271600  1
  H  272  1  0.22316900  0.24731800  0.59135000  1
  H  274  1  0.76413300  0.23729800  0.52741200  1
  H  275  1  0.72131700  0.29877700  0.55954600  1
  H  276  1  0.54242800  0.25005500  0.51476100  1
  O  43  1  0.96784500  0.80943100  0.40440000  1
  O  79  1  0.96670200  0.17095000  0.58891800  1
  O  90  1  0.96721800  0.57868900  0.17748900  1
  O  97  1  0.96735000  0.40168500  0.81596800  1
  O  110  1  0.96743500  0.58246700  0.40825600  1
  O  117  1  0.96709500  0.39794800  0.58526000  1
  O  136  1  0.28060100  0.67608400  0.24961300  1
  O  140  1  0.61141900  0.75707400  0.26383500  1
  O  164  1  0.27972000  0.55738600  0.31094500  1
  O  168  1  0.61087200  0.49017300  0.22977600  1
  O  185  1  0.28072200  0.73728800  0.42976600  1
  O  189  1  0.61140700  0.72310000  0.49647600  1
  O  213  1  0.27960800  0.30438300  0.74366900  1
  O  217  1  0.61079000  0.22324900  0.72987200  1
  O  241  1  0.28047800  0.42313200  0.68264600  1
  O  245  1  0.61133800  0.49002800  0.76361800  1
  O  269  1  0.27946100  0.24324600  0.56402300  1
  O  273  1  0.61079000  0.25706600  0.49662000  1
