# generated using pymatgen
data_Ni2H8C14N2O9
_symmetry_space_group_name_H-M   'P 1'
_cell_length_a   10.97191000
_cell_length_b   11.11258000
_cell_length_c   11.11853000
_cell_angle_alpha   73.41953000
_cell_angle_beta   61.20726000
_cell_angle_gamma   61.26591000
_symmetry_Int_Tables_number   1
_chemical_formula_structural   Ni2H8C14N2O9
_chemical_formula_sum   'Ni4 H16 C28 N4 O18'
_cell_volume   1039.18709131
_cell_formula_units_Z   2
loop_
 _symmetry_equiv_pos_site_id
 _symmetry_equiv_pos_as_xyz
  1  'x, y, z'
loop_
 _atom_site_type_symbol
 _atom_site_label
 _atom_site_symmetry_multiplicity
 _atom_site_fract_x
 _atom_site_fract_y
 _atom_site_fract_z
 _atom_site_occupancy
  Ni  Ni1  1  0.44642000  0.20231000  0.64968000  1.0
  Ni  Ni2  1  0.05313000  0.35055000  0.79737000  1.0
  Ni  Ni3  1  0.94687000  0.64945000  0.20262000  1.0
  Ni  Ni4  1  0.55358000  0.79769000  0.35032000  1.0
  H  H1  1  0.41570000  0.58788000  0.48380000  1.0
  H  H2  1  0.71879000  0.01488000  0.44019000  1.0
  H  H3  1  0.91545000  0.48402000  0.58805000  1.0
  H  H4  1  0.92822000  0.03280000  0.21339000  1.0
  H  H5  1  0.78429000  0.80535000  0.08283000  1.0
  H  H6  1  0.21571000  0.19465000  0.91716000  1.0
  H  H7  1  0.71686000  0.91707000  0.19454000  1.0
  H  H8  1  0.21956000  0.43980000  0.01477000  1.0
  H  H9  1  0.57131000  0.78707000  0.96713000  1.0
  H  H10  1  0.28121000  0.98513000  0.55981000  1.0
  H  H11  1  0.78044000  0.56020000  0.98522000  1.0
  H  H12  1  0.28314000  0.08293000  0.80546000  1.0
  H  H13  1  0.07178000  0.96721000  0.78661000  1.0
  H  H14  1  0.42869000  0.21293000  0.03286000  1.0
  H  H15  1  0.58430000  0.41212000  0.51619000  1.0
  H  H16  1  0.08455000  0.51598000  0.41194000  1.0
  C  C1  1  0.76862000  0.35437000  0.31697000  1.0
  C  C2  1  0.14594000  0.88005000  0.72269000  1.0
  C  C3  1  0.64562000  0.72301000  0.88008000  1.0
  C  C4  1  0.98736000  0.25810000  0.08798000  1.0
  C  C5  1  0.83854000  0.55499000  0.66871000  1.0
  C  C6  1  0.26864000  0.31673000  0.35439000  1.0
  C  C7  1  0.26743000  0.28060000  0.49562000  1.0
  C  C8  1  0.73894000  0.10812000  0.40380000  1.0
  C  C9  1  0.37038000  0.23062000  0.24472000  1.0
  C  C10  1  0.76793000  0.49546000  0.28078000  1.0
  C  C11  1  0.73258000  0.71940000  0.50438000  1.0
  C  C12  1  0.87024000  0.24477000  0.23074000  1.0
  C  C13  1  0.23207000  0.50454000  0.71922000  1.0
  C  C14  1  0.23944000  0.40344000  0.10806000  1.0
  C  C15  1  0.26106000  0.89188000  0.59620000  1.0
  C  C16  1  0.48761000  0.08814000  0.25793000  1.0
  C  C17  1  0.12976000  0.75523000  0.76926000  1.0
  C  C18  1  0.73137000  0.68327000  0.64560000  1.0
  C  C19  1  0.85407000  0.11995000  0.27731000  1.0
  C  C20  1  0.16146000  0.44501000  0.33129000  1.0
  C  C21  1  0.35438000  0.27699000  0.11992000  1.0
  C  C22  1  0.62962000  0.76938000  0.75528000  1.0
  C  C23  1  0.76056000  0.59656000  0.89194000  1.0
  C  C24  1  0.51239000  0.91186000  0.74207000  1.0
  C  C25  1  0.33879000  0.66863000  0.55469000  1.0
  C  C26  1  0.66121000  0.33137000  0.44531000  1.0
  C  C27  1  0.01265000  0.74190000  0.91201000  1.0
  C  C28  1  0.23138000  0.64563000  0.68302000  1.0
  N  N1  1  0.64370000  0.21246000  0.48815000  1.0
  N  N2  1  0.35630000  0.78754000  0.51185000  1.0
  N  N3  1  0.14422000  0.48784000  0.21236000  1.0
  N  N4  1  0.85578000  0.51216000  0.78764000  1.0
  O  O1  1  0.93155000  0.31798000  0.99767000  1.0
  O  O2  1  0.87428000  0.79622000  0.93198000  1.0
  O  O3  1  0.64243000  0.59169000  0.34569000  1.0
  O  O4  1  0.60996000  0.80846000  0.49300000  1.0
  O  O5  1  0.37413000  0.93148000  0.79653000  1.0
  O  O6  1  0.85836000  0.65435000  0.40837000  1.0
  O  O7  1  0.06845000  0.68202000  0.00233000  1.0
  O  O8  1  0.56831000  0.00223000  0.68184000  1.0
  O  O9  1  0.62587000  0.06852000  0.20347000  1.0
  O  O10  1  0.75042000  0.81250000  0.18758000  1.0
  O  O11  1  0.39004000  0.19154000  0.50700000  1.0
  O  O12  1  0.14164000  0.34565000  0.59163000  1.0
  O  O13  1  0.35757000  0.40831000  0.65430000  1.0
  O  O14  1  0.10905000  0.49360000  0.80821000  1.0
  O  O15  1  0.12572000  0.20378000  0.06801000  1.0
  O  O16  1  0.24958000  0.18750000  0.81242000  1.0
  O  O17  1  0.89095000  0.50640000  0.19178000  1.0
  O  O18  1  0.43169000  0.99777000  0.31816000  1.0
