# generated using pymatgen
data_H58C97N8
_symmetry_space_group_name_H-M   'P 1'
_cell_length_a   30.30700000
_cell_length_b   30.30700000
_cell_length_c   47.07510000
_cell_angle_alpha   90.12340000
_cell_angle_beta   89.79860000
_cell_angle_gamma   90.00000000
_symmetry_Int_Tables_number   1
_chemical_formula_structural   H58C97N8
_chemical_formula_sum   'H232 C388 N32'
_cell_volume   43238.78270980
_cell_formula_units_Z   4
loop_
 _symmetry_equiv_pos_site_id
 _symmetry_equiv_pos_as_xyz
  1  'x, y, z'
loop_
 _atom_site_type_symbol
 _atom_site_label
 _atom_site_symmetry_multiplicity
 _atom_site_fract_x
 _atom_site_fract_y
 _atom_site_fract_z
 _atom_site_occupancy
  H  73  1  0.75649200  0.03043700  0.19945600  1
  H  74  1  0.69089900  0.02765100  0.17084600  1
  H  75  1  0.81919200  0.94209000  0.14305400  1
  H  76  1  0.75492700  0.93980000  0.11435900  1
  H  77  1  0.67568500  0.91502000  0.11335000  1
  H  78  1  0.62051300  0.91806700  0.07724600  1
  H  79  1  0.67252600  0.05403800  0.12035800  1
  H  80  1  0.61670200  0.05683700  0.08454700  1
  H  81  1  0.53962300  0.98723000  0.11009600  1
  H  82  1  0.45609700  0.98730800  0.10960300  1
  H  83  1  0.49973400  0.99075800  0.02739100  1
  H  84  1  0.50170800  0.99045600  0.97779100  1
  H  85  1  0.66828300  0.98970700  0.03097500  1
  H  86  1  0.67008300  0.98965800  0.97694000  1
  H  87  1  0.61797300  0.91971700  0.92253500  1
  H  88  1  0.67197800  0.91897600  0.88545100  1
  H  89  1  0.62854400  0.05820100  0.92811800  1
  H  90  1  0.68200800  0.05777200  0.89063800  1
  H  91  1  0.54529300  0.98747900  0.89554300  1
  H  92  1  0.46183600  0.98674500  0.89506900  1
  H  93  1  0.33134600  0.98951300  0.02822000  1
  H  94  1  0.33315700  0.98941500  0.97418500  1
  H  95  1  0.38755600  0.05601500  0.91925000  1
  H  96  1  0.33278500  0.05325200  0.88271700  1
  H  97  1  0.37858700  0.91788800  0.92910800  1
  H  98  1  0.32430100  0.91489400  0.89242200  1
  H  99  1  0.24559600  0.94391600  0.89009300  1
  H  100  1  0.18312000  0.94604500  0.85975100  1
  H  101  1  0.25293600  0.02556200  0.80158700  1
  H  102  1  0.31669300  0.02300900  0.83196400  1
  H  103  1  0.37988200  0.91921500  0.08030100  1
  H  104  1  0.32554100  0.91854000  0.11719900  1
  H  105  1  0.24524800  0.03889200  0.12964300  1
  H  106  1  0.19864700  0.04151000  0.17086300  1
  H  107  1  0.27336600  0.94025300  0.20839100  1
  H  108  1  0.32105300  0.93865000  0.16809300  1
  H  109  1  0.32259500  0.05787900  0.11650900  1
  H  110  1  0.37620300  0.05828500  0.07915600  1
  H  111  1  0.75885200  0.03487800  0.87767200  1
  H  112  1  0.80801100  0.03575500  0.83775000  1
  H  113  1  0.67815100  0.94252100  0.83513100  1
  H  114  1  0.72850200  0.94196500  0.79613700  1
  H  191  1  0.03014500  0.24601200  0.69971800  1
  H  192  1  0.02827200  0.31153200  0.67095700  1
  H  193  1  0.94322600  0.18330000  0.64276400  1
  H  194  1  0.94182200  0.24750900  0.61393700  1
  H  195  1  0.91696800  0.32691600  0.61304300  1
  H  196  1  0.92073200  0.38200100  0.57685400  1
  H  197  1  0.05589900  0.32955500  0.62036500  1
  H  198  1  0.05942400  0.38530600  0.58444800  1
  H  199  1  0.98952600  0.46250800  0.60981400  1
  H  200  1  0.98933900  0.54602500  0.60927700  1
  H  201  1  0.99402200  0.50246700  0.52709000  1
  H  202  1  0.99386400  0.50048600  0.47747600  1
  H  203  1  0.99299700  0.33392700  0.53078900  1
  H  204  1  0.99337000  0.33210700  0.47676200  1
  H  205  1  0.92382900  0.38470400  0.42209500  1
  H  206  1  0.92318000  0.33056600  0.38513100  1
  H  207  1  0.06210600  0.37285500  0.42811800  1
  H  208  1  0.06175500  0.31917200  0.39079800  1
  H  209  1  0.99198700  0.45696000  0.39525700  1
  H  210  1  0.99111400  0.54043100  0.39474300  1
  H  211  1  0.99233400  0.67082300  0.52783200  1
  H  212  1  0.99272800  0.66906500  0.47379600  1
  H  213  1  0.06013800  0.61491500  0.41918100  1
  H  214  1  0.05804700  0.67015300  0.38289200  1
  H  215  1  0.92184500  0.62372900  0.42851900  1
  H  216  1  0.91951800  0.67845300  0.39205000  1
  H  217  1  0.94801100  0.75703200  0.39006800  1
  H  218  1  0.95036800  0.81988700  0.36000900  1
  H  219  1  0.03198200  0.75149500  0.30211000  1
  H  220  1  0.02915500  0.68731300  0.33219000  1
  H  221  1  0.92165200  0.62348400  0.57919700  1
  H  222  1  0.92069700  0.67780000  0.61604500  1
  H  223  1  0.04305700  0.75497100  0.63005200  1
  H  224  1  0.04513600  0.80167200  0.67111700  1
  H  225  1  0.93908300  0.73117700  0.70690600  1
  H  226  1  0.93824900  0.68297500  0.66691500  1
  H  227  1  0.06008200  0.67796800  0.61694500  1
  H  228  1  0.06077700  0.62453500  0.57957100  1
  H  229  1  0.03786600  0.24216900  0.37760000  1
  H  230  1  0.03977300  0.19409000  0.33708800  1
  H  231  1  0.94827000  0.32522500  0.33478500  1
  H  232  1  0.94911200  0.27632500  0.29510200  1
  H  261  1  0.10353900  0.00852900  0.84023700  1
  H  262  1  0.02530500  0.00617200  0.84467500  1
  H  263  1  0.94447900  0.99601900  0.84066700  1
  H  264  1  0.86862300  0.98907000  0.82784800  1
  H  265  1  0.90412300  0.99257400  0.74077600  1
  H  266  1  0.09292500  0.99659200  0.75063700  1
  H  267  1  0.99911700  0.09024300  0.75074100  1
  H  268  1  0.00946000  0.09808400  0.66094100  1
  H  269  1  0.00697700  0.01963600  0.65760400  1
  H  270  1  0.99740800  0.90207600  0.76349100  1
  H  271  1  0.99814800  0.93854000  0.66293600  1
  H  272  1  0.99383200  0.86304400  0.67704500  1
  H  278  1  0.16774500  0.01414400  0.77612400  1
  H  279  1  0.82790000  0.98523100  0.75436700  1
  H  280  1  0.99573700  0.82548700  0.75162700  1
  H  281  1  0.01832400  0.16390900  0.72357100  1
  H  306  1  0.99967500  0.90167200  0.34095000  1
  H  307  1  0.99506400  0.97978900  0.34477000  1
  H  308  1  0.98748900  0.06072000  0.33969000  1
  H  309  1  0.98528800  0.13671100  0.32628600  1
  H  310  1  0.00879300  0.10053300  0.24053300  1
  H  311  1  0.01094100  0.91180600  0.25128600  1
  H  312  1  0.10086600  0.00762000  0.26369600  1
  H  313  1  0.14006500  0.98441700  0.17844900  1
  H  314  1  0.06469300  0.98732800  0.16393600  1
  H  315  1  0.91265600  0.00905400  0.25039600  1
  H  316  1  0.98388600  0.99515000  0.15773300  1
  H  317  1  0.90553000  0.99869000  0.16058800  1
  H  323  1  0.02147000  0.83766900  0.27729400  1
  H  324  1  0.99650500  0.17663100  0.25305800  1
  H  325  1  0.83934700  0.02024200  0.22287400  1
  H  326  1  0.17715100  0.99610000  0.25244200  1
  H  399  1  0.49252700  0.29440200  0.17821300  1
  H  400  1  0.42693400  0.29161600  0.14960300  1
  H  401  1  0.55522700  0.20605500  0.12181100  1
  H  402  1  0.49096200  0.20376500  0.09311600  1
  H  403  1  0.41172000  0.17898500  0.09210700  1
  H  404  1  0.35654800  0.18203200  0.05600300  1
  H  405  1  0.40856100  0.31800300  0.09911500  1
  H  406  1  0.35273700  0.32080200  0.06330400  1
  H  407  1  0.27565800  0.25119500  0.08885300  1
  H  408  1  0.19213200  0.25127300  0.08836000  1
  H  409  1  0.23576900  0.25472300  0.00614800  1
  H  410  1  0.23774300  0.25442100  0.95654830  1
  H  411  1  0.40431800  0.25367200  0.00973200  1
  H  412  1  0.40611800  0.25362300  0.95569730  1
  H  413  1  0.35400800  0.18368200  0.90129230  1
  H  414  1  0.40801300  0.18294100  0.86420800  1
  H  415  1  0.36457900  0.32216600  0.90687530  1
  H  416  1  0.41804300  0.32173700  0.86939500  1
  H  417  1  0.28132800  0.25144400  0.87430000  1
  H  418  1  0.19787100  0.25071000  0.87382600  1
  H  419  1  0.06738100  0.25347800  0.00697700  1
  H  420  1  0.06919200  0.25338000  0.95294230  1
  H  421  1  0.12359100  0.31998000  0.89800700  1
  H  422  1  0.06882000  0.31721700  0.86147400  1
  H  423  1  0.11462200  0.18185300  0.90786530  1
  H  424  1  0.06033600  0.17885900  0.87117900  1
  H  425  1  0.98163060  0.20788100  0.86885000  1
  H  426  1  0.91915460  0.21001000  0.83850800  1
  H  427  1  0.98897060  0.28952700  0.78034400  1
  H  428  1  0.05272800  0.28697400  0.81072100  1
  H  429  1  0.11591700  0.18318000  0.05905800  1
  H  430  1  0.06157600  0.18250500  0.09595600  1
  H  431  1  0.98128260  0.30285700  0.10840000  1
  H  432  1  0.93468160  0.30547500  0.14962000  1
  H  433  1  0.00940100  0.20421800  0.18714800  1
  H  434  1  0.05708800  0.20261500  0.14685000  1
  H  435  1  0.05863000  0.32184400  0.09526600  1
  H  436  1  0.11223800  0.32225000  0.05791300  1
  H  437  1  0.49488700  0.29884300  0.85642900  1
  H  438  1  0.54404600  0.29972000  0.81650700  1
  H  439  1  0.41418600  0.20648600  0.81388800  1
  H  440  1  0.46453700  0.20593000  0.77489400  1
  H  517  1  0.76618000  0.50997700  0.67847500  1
  H  518  1  0.76430700  0.57549700  0.64971400  1
  H  519  1  0.67926100  0.44726500  0.62152100  1
  H  520  1  0.67785700  0.51147400  0.59269400  1
  H  521  1  0.65300300  0.59088100  0.59180000  1
  H  522  1  0.65676700  0.64596600  0.55561100  1
  H  523  1  0.79193400  0.59352000  0.59912200  1
  H  524  1  0.79545900  0.64927100  0.56320500  1
  H  525  1  0.72556100  0.72647300  0.58857100  1
  H  526  1  0.72537400  0.80999000  0.58803400  1
  H  527  1  0.73005700  0.76643200  0.50584700  1
  H  528  1  0.72989900  0.76445100  0.45623300  1
  H  529  1  0.72903200  0.59789200  0.50954600  1
  H  530  1  0.72940500  0.59607200  0.45551900  1
  H  531  1  0.65986400  0.64866900  0.40085200  1
  H  532  1  0.65921500  0.59453100  0.36388800  1
  H  533  1  0.79814100  0.63682000  0.40687500  1
  H  534  1  0.79779000  0.58313700  0.36955500  1
  H  535  1  0.72802200  0.72092500  0.37401400  1
  H  536  1  0.72714900  0.80439600  0.37350000  1
  H  537  1  0.72836900  0.93478800  0.50658900  1
  H  538  1  0.72876300  0.93303000  0.45255300  1
  H  539  1  0.79617300  0.87888000  0.39793800  1
  H  540  1  0.79408200  0.93411800  0.36164900  1
  H  541  1  0.65788000  0.88769400  0.40727600  1
  H  542  1  0.65555300  0.94241800  0.37080700  1
  H  543  1  0.68404600  0.02099740  0.36882500  1
  H  544  1  0.68640300  0.08385240  0.33876600  1
  H  545  1  0.76801700  0.01546040  0.28086700  1
  H  546  1  0.76519000  0.95127800  0.31094700  1
  H  547  1  0.65768700  0.88744900  0.55795400  1
  H  548  1  0.65673200  0.94176500  0.59480200  1
  H  549  1  0.77909200  0.01893640  0.60880900  1
  H  550  1  0.78117100  0.06563740  0.64987400  1
  H  551  1  0.67511800  0.99514200  0.68566300  1
  H  552  1  0.67428400  0.94694000  0.64567200  1
  H  553  1  0.79611700  0.94193300  0.59570200  1
  H  554  1  0.79681200  0.88850000  0.55832800  1
  H  555  1  0.77390100  0.50613400  0.35635700  1
  H  556  1  0.77580800  0.45805500  0.31584500  1
  H  557  1  0.68430500  0.58919000  0.31354200  1
  H  558  1  0.68514700  0.54029000  0.27385900  1
  H  587  1  0.83957400  0.27249400  0.81899400  1
  H  588  1  0.76134000  0.27013700  0.82343200  1
  H  589  1  0.68051400  0.25998400  0.81942400  1
  H  590  1  0.60465800  0.25303500  0.80660500  1
  H  591  1  0.64015800  0.25653900  0.71953300  1
  H  592  1  0.82896000  0.26055700  0.72939400  1
  H  593  1  0.73515200  0.35420800  0.72949800  1
  H  594  1  0.74549500  0.36204900  0.63969800  1
  H  595  1  0.74301200  0.28360100  0.63636100  1
  H  596  1  0.73344300  0.16604100  0.74224800  1
  H  597  1  0.73418300  0.20250500  0.64169300  1
  H  598  1  0.72986700  0.12700900  0.65580200  1
  H  604  1  0.90377960  0.27810900  0.75488100  1
  H  605  1  0.56393500  0.24919600  0.73312400  1
  H  606  1  0.73177200  0.08945240  0.73038400  1
  H  607  1  0.75435900  0.42787400  0.70232800  1
  H  632  1  0.73571000  0.16563700  0.31970700  1
  H  633  1  0.73109900  0.24375400  0.32352700  1
  H  634  1  0.72352400  0.32468500  0.31844700  1
  H  635  1  0.72132300  0.40067600  0.30504300  1
  H  636  1  0.74482800  0.36449800  0.21929000  1
  H  637  1  0.74697600  0.17577100  0.23004300  1
  H  638  1  0.83690100  0.27158500  0.24245300  1
  H  639  1  0.87610000  0.24838200  0.15720600  1
  H  640  1  0.80072800  0.25129300  0.14269300  1
  H  641  1  0.64869100  0.27301900  0.22915300  1
  H  642  1  0.71992100  0.25911500  0.13649000  1
  H  643  1  0.64156500  0.26265500  0.13934500  1
  H  649  1  0.75750500  0.10163400  0.25605100  1
  H  650  1  0.73254000  0.44059600  0.23181500  1
  H  651  1  0.57538200  0.28420700  0.20163100  1
  H  652  1  0.91318560  0.26006500  0.23119900  1
  C  1  1  0.52100000  0.98800500  0.09204400  1
  C  2  1  0.47545100  0.98805000  0.09178700  1
  C  3  1  0.46150900  0.98899500  0.06353200  1
  C  5  1  0.53610000  0.98908500  0.06395400  1
  C  6  1  0.58130700  0.98927500  0.05557600  1
  C  7  1  0.59681300  0.98965500  0.02702600  1
  C  9  1  0.59845000  0.98979800  0.97933600  1
  C  10  1  0.64195800  0.98979700  0.98898300  1
  C  11  1  0.64094900  0.98977400  0.01832500  1
  C  12  1  0.58482800  0.98944400  0.95048200  1
  C  13  1  0.53992300  0.98895300  0.94163500  1
  C  15  1  0.46534900  0.98864800  0.94122600  1
  C  16  1  0.48043900  0.98760000  0.91313000  1
  C  17  1  0.52597200  0.98797700  0.91337900  1
  C  18  1  0.42014900  0.98871200  0.94960800  1
  C  19  1  0.40462700  0.98903500  0.97814900  1
  C  21  1  0.40298300  0.98930700  0.02582100  1
  C  22  1  0.35947500  0.98939700  0.01617700  1
  C  23  1  0.36048700  0.98929500  0.98683900  1
  C  24  1  0.41660400  0.98916000  0.05467100  1
  C  25  1  0.38300700  0.98880300  0.07611800  1
  C  26  1  0.36535500  0.02863500  0.08686500  1
  C  27  1  0.33343400  0.02824500  0.10872800  1
  C  28  1  0.31813400  0.98815300  0.12072100  1
  C  29  1  0.33579600  0.94838600  0.10950300  1
  C  30  1  0.36762700  0.94861900  0.08760400  1
  C  31  1  0.28767600  0.98789900  0.14422900  1
  C  32  1  0.29439500  0.95934700  0.16762800  1
  C  33  1  0.26642000  0.96040300  0.19155400  1
  C  34  1  0.23012700  0.98945000  0.19286000  1
  C  35  1  0.22328400  0.01848900  0.16988600  1
  C  36  1  0.25134300  0.01736700  0.14587300  1
  C  37  1  0.38789000  0.98725600  0.92764800  1
  C  38  1  0.37461000  0.02610500  0.91352800  1
  C  39  1  0.34283200  0.02430900  0.89179400  1
  C  40  1  0.32337900  0.98372700  0.88367400  1
  C  41  1  0.33742800  0.94490800  0.89771700  1
  C  42  1  0.36933200  0.94654800  0.91931300  1
  C  43  1  0.28790200  0.98238400  0.86379100  1
  C  44  1  0.28907700  0.00571700  0.83770400  1
  C  45  1  0.25204300  0.00674600  0.81959100  1
  C  46  1  0.21299300  0.98442000  0.82733600  1
  C  47  1  0.21170100  0.96092000  0.85310700  1
  C  48  1  0.24865700  0.95962100  0.87095600  1
  C  49  1  0.61837000  0.98899300  0.92899200  1
  C  50  1  0.63161600  0.94896900  0.91613200  1
  C  51  1  0.66320700  0.94872000  0.89410100  1
  C  52  1  0.68279400  0.98831200  0.88413800  1
  C  53  1  0.66965300  0.02821900  0.89747800  1
  C  54  1  0.63787000  0.02863300  0.91942800  1
  C  55  1  0.71365000  0.98800300  0.86087200  1
  C  56  1  0.75199700  0.01487800  0.86071800  1
  C  57  1  0.78161900  0.01477700  0.83749100  1
  C  58  1  0.77412700  0.98726500  0.81376000  1
  C  59  1  0.73556900  0.96124300  0.81342600  1
  C  60  1  0.70606400  0.96137000  0.83659000  1
  C  61  1  0.61362200  0.98774500  0.07751100  1
  C  62  1  0.63096900  0.94686000  0.08643300  1
  C  63  1  0.62865900  0.02678500  0.09074600  1
  C  64  1  0.66108900  0.02498000  0.11208000  1
  C  65  1  0.67947600  0.98420000  0.12073000  1
  C  66  1  0.66344600  0.94520200  0.10768100  1
  C  67  1  0.71586600  0.98272100  0.13998900  1
  C  68  1  0.75364600  0.95747800  0.13289600  1
  C  69  1  0.79170200  0.95884800  0.14978800  1
  C  70  1  0.79318900  0.98516500  0.17446800  1
  C  71  1  0.75551300  0.00979400  0.18225600  1
  C  72  1  0.71732700  0.00853000  0.16515500  1
  C  119  1  0.99051000  0.48114700  0.59175300  1
  C  120  1  0.99045100  0.52669300  0.59147300  1
  C  121  1  0.99170300  0.54065100  0.56320900  1
  C  123  1  0.99198600  0.46608300  0.56367000  1
  C  124  1  0.99234600  0.42089300  0.55530300  1
  C  125  1  0.99302900  0.40539600  0.52676500  1
  C  127  1  0.99356000  0.40374100  0.47907300  1
  C  128  1  0.99347100  0.36023900  0.48877000  1
  C  129  1  0.99321400  0.36125800  0.51810900  1
  C  130  1  0.99337900  0.41734800  0.45020000  1
  C  131  1  0.99289600  0.46227800  0.44134400  1
  C  133  1  0.99246300  0.53688300  0.44089800  1
  C  134  1  0.99177300  0.52180900  0.41281200  1
  C  135  1  0.99223000  0.47626600  0.41308200  1
  C  136  1  0.99234800  0.58208900  0.44925000  1
  C  137  1  0.99232900  0.59758700  0.47778800  1
  C  139  1  0.99213700  0.59919100  0.52546300  1
  C  140  1  0.99230100  0.64271000  0.51580000  1
  C  141  1  0.99247500  0.64172100  0.48646100  1
  C  142  1  0.99180500  0.58554900  0.55431900  1
  C  143  1  0.99129900  0.61909800  0.57575500  1
  C  144  1  0.03107400  0.63593000  0.58695500  1
  C  145  1  0.03051200  0.66775200  0.60884300  1
  C  146  1  0.99030800  0.68383300  0.62039100  1
  C  147  1  0.95062100  0.66695300  0.60872200  1
  C  148  1  0.95101600  0.63516700  0.58682500  1
  C  149  1  0.98979100  0.71447500  0.64378300  1
  C  150  1  0.95976000  0.70899200  0.66666667  1
  C  151  1  0.96034700  0.73727300  0.69042000  1
  C  152  1  0.99041700  0.77267200  0.69205800  1
  C  153  1  0.02115500  0.77803500  0.66973600  1
  C  154  1  0.02040500  0.74978100  0.64585500  1
  C  155  1  0.99122600  0.61440400  0.42727900  1
  C  156  1  0.03032600  0.62789600  0.41338000  1
  C  157  1  0.02893200  0.65996800  0.39178600  1
  C  158  1  0.98851400  0.67954600  0.38358200  1
  C  159  1  0.94943800  0.66525600  0.39739400  1
  C  160  1  0.95067600  0.63306100  0.41885200  1
  C  161  1  0.98756100  0.71537000  0.36389400  1
  C  162  1  0.01160300  0.71475800  0.33797600  1
  C  163  1  0.01285600  0.75206600  0.32005100  1
  C  164  1  0.99003900  0.79084600  0.32781100  1
  C  165  1  0.96577700  0.79156500  0.35338600  1
  C  166  1  0.96439000  0.75438800  0.37108500  1
  C  167  1  0.99299600  0.38375600  0.42874700  1
  C  168  1  0.95305300  0.37074500  0.41583100  1
  C  169  1  0.95285300  0.33902900  0.39389600  1
  C  170  1  0.99240500  0.31900700  0.38410300  1
  C  171  1  0.03221400  0.33182200  0.39753700  1
  C  172  1  0.03258300  0.36375500  0.41937900  1
  C  173  1  0.99224500  0.28841900  0.36070600  1
  C  174  1  0.01857700  0.24968600  0.36048900  1
  C  175  1  0.01915200  0.22078400  0.33689500  1
  C  176  1  0.99298600  0.22951400  0.31279700  1
  C  177  1  0.96728800  0.26829400  0.31264600  1
  C  178  1  0.96665600  0.29700000  0.33619200  1
  C  179  1  0.99043800  0.38859500  0.57725500  1
  C  180  1  0.94935500  0.37145700  0.58612200  1
  C  181  1  0.02924200  0.37347100  0.59060600  1
  C  182  1  0.02701400  0.34111500  0.61200400  1
  C  183  1  0.98603200  0.32291500  0.62057600  1
  C  184  1  0.94727300  0.33905000  0.60742400  1
  C  185  1  0.98411600  0.28653100  0.63983200  1
  C  186  1  0.95899900  0.24879200  0.63260500  1
  C  187  1  0.95982400  0.21078800  0.64957800  1
  C  188  1  0.98540500  0.20936300  0.67448100  1
  C  189  1  0.00996700  0.24697900  0.68236000  1
  C  190  1  0.00925200  0.28512100  0.66518600  1
  C  237  1  0.99934700  0.95373400  0.73383800  1
  C  238  1  0.00039300  0.96389300  0.70492700  1
  C  239  1  0.00153200  0.00935800  0.70201000  1
  C  240  1  0.99975000  0.02922100  0.72889100  1
  C  241  1  0.00066900  0.07584700  0.73108300  1
  C  242  1  0.00352100  0.10223200  0.70618000  1
  C  243  1  0.00632100  0.08051000  0.67938900  1
  C  244  1  0.00495400  0.03440600  0.67710500  1
  C  245  1  0.99873600  0.93072500  0.68404300  1
  C  246  1  0.99656500  0.88631500  0.69255700  1
  C  247  1  0.99730200  0.87436500  0.72166400  1
  C  248  1  0.99824700  0.90901000  0.74222500  1
  C  249  1  0.03260700  0.99797200  0.77332000  1
  C  250  1  0.01362100  0.00021000  0.80045500  1
  C  251  1  0.96810200  0.99852700  0.79823600  1
  C  252  1  0.95691100  0.99675400  0.76950300  1
  C  253  1  0.93583000  0.99638500  0.81970100  1
  C  254  1  0.89121000  0.99276900  0.81196300  1
  C  255  1  0.87814900  0.99269200  0.78306800  1
  C  256  1  0.91189700  0.99431700  0.76188700  1
  C  257  1  0.07916300  0.99869500  0.77047100  1
  C  258  1  0.10635300  0.00190000  0.79497500  1
  C  259  1  0.08544400  0.00522300  0.82203500  1
  C  260  1  0.03943900  0.00397900  0.82497700  1
  C  273  1  0.99739600  0.99475400  0.75138300  1
  C  274  1  0.83400200  0.98868600  0.77496200  1
  C  275  1  0.15235900  0.00231400  0.79313900  1
  C  276  1  0.99573000  0.83047800  0.73078300  1
  C  277  1  0.00436000  0.14824600  0.70737600  1
  C  282  1  0.97382800  0.00426600  0.22889400  1
  C  283  1  0.99385900  0.99987600  0.20218600  1
  C  284  1  0.03929200  0.99913700  0.20529600  1
  C  285  1  0.04931400  0.00425400  0.23405800  1
  C  286  1  0.09399000  0.00416400  0.24253600  1
  C  287  1  0.12863000  0.99794000  0.22230500  1
  C  288  1  0.11679000  0.99128400  0.19349100  1
  C  289  1  0.07246800  0.99252200  0.18478800  1
  C  290  1  0.96898100  0.99764400  0.17718100  1
  C  291  1  0.92286700  0.99966600  0.17920100  1
  C  292  1  0.90087400  0.00318900  0.20589200  1
  C  293  1  0.92716400  0.00587000  0.23084000  1
  C  294  1  0.00484100  0.97216300  0.27353600  1
  C  295  1  0.99996100  0.99127200  0.30046800  1
  C  296  1  0.99914100  0.03679200  0.29795500  1
  C  297  1  0.00465900  0.04783100  0.26935700  1
  C  298  1  0.99272600  0.06923300  0.31895300  1
  C  299  1  0.99197100  0.11388600  0.31092300  1
  C  300  1  0.99889000  0.12672300  0.28230500  1
  C  301  1  0.00494600  0.09283400  0.26155300  1
  C  302  1  0.00717800  0.92560100  0.27100200  1
  C  303  1  0.00476000  0.89845200  0.29560100  1
  C  304  1  0.00053600  0.91956100  0.32254100  1
  C  305  1  0.99782500  0.96555900  0.32513900  1
  C  318  1  0.00815900  0.00724600  0.25145600  1
  C  319  1  0.99721600  0.17084600  0.27380600  1
  C  320  1  0.00761700  0.85243700  0.29393300  1
  C  321  1  0.85479800  0.00519900  0.20692900  1
  C  322  1  0.17236800  0.99595800  0.23158400  1
  C  327  1  0.25703500  0.25197000  0.07080100  1
  C  328  1  0.21148600  0.25201500  0.07054400  1
  C  329  1  0.19754400  0.25296000  0.04228900  1
  C  331  1  0.27213500  0.25305000  0.04271100  1
  C  332  1  0.31734200  0.25324000  0.03433300  1
  C  333  1  0.33284800  0.25362000  0.00578300  1
  C  335  1  0.33448500  0.25376300  0.95809330  1
  C  336  1  0.37799300  0.25376200  0.96774030  1
  C  337  1  0.37698400  0.25373900  0.99708235  1
  C  338  1  0.32086300  0.25340900  0.92923930  1
  C  339  1  0.27595800  0.25291800  0.92039230  1
  C  341  1  0.20138400  0.25261300  0.91998330  1
  C  342  1  0.21647400  0.25156500  0.89188700  1
  C  343  1  0.26200700  0.25194200  0.89213600  1
  C  344  1  0.15618400  0.25267700  0.92836530  1
  C  345  1  0.14066200  0.25300000  0.95690630  1
  C  347  1  0.13901800  0.25327200  0.00457800  1
  C  348  1  0.09551000  0.25336200  0.99493435  1
  C  349  1  0.09652200  0.25326000  0.96559630  1
  C  350  1  0.15263900  0.25312500  0.03342800  1
  C  351  1  0.11904200  0.25276800  0.05487500  1
  C  352  1  0.10139000  0.29260000  0.06562200  1
  C  353  1  0.06946900  0.29221000  0.08748500  1
  C  354  1  0.05416900  0.25211800  0.09947800  1
  C  355  1  0.07183100  0.21235100  0.08826000  1
  C  356  1  0.10366200  0.21258400  0.06636100  1
  C  357  1  0.02371100  0.25186400  0.12298600  1
  C  358  1  0.03043000  0.22331200  0.14638500  1
  C  359  1  0.00245500  0.22436800  0.17031100  1
  C  360  1  0.96616160  0.25341500  0.17161700  1
  C  361  1  0.95931860  0.28245400  0.14864300  1
  C  362  1  0.98737760  0.28133200  0.12463000  1
  C  363  1  0.12392500  0.25122100  0.90640530  1
  C  364  1  0.11064500  0.29007000  0.89228500  1
  C  365  1  0.07886700  0.28827400  0.87055100  1
  C  366  1  0.05941400  0.24769200  0.86243100  1
  C  367  1  0.07346300  0.20887300  0.87647400  1
  C  368  1  0.10536700  0.21051300  0.89807000  1
  C  369  1  0.02393700  0.24634900  0.84254800  1
  C  370  1  0.02511200  0.26968200  0.81646100  1
  C  371  1  0.98807760  0.27071100  0.79834800  1
  C  372  1  0.94902760  0.24838500  0.80609300  1
  C  373  1  0.94773560  0.22488500  0.83186400  1
  C  374  1  0.98469160  0.22358600  0.84971300  1
  C  375  1  0.35440500  0.25295800  0.90774930  1
  C  376  1  0.36765100  0.21293400  0.89488900  1
  C  377  1  0.39924200  0.21268500  0.87285800  1
  C  378  1  0.41882900  0.25227700  0.86289500  1
  C  379  1  0.40568800  0.29218400  0.87623500  1
  C  380  1  0.37390500  0.29259800  0.89818500  1
  C  381  1  0.44968500  0.25196800  0.83962900  1
  C  382  1  0.48803200  0.27884300  0.83947500  1
  C  383  1  0.51765400  0.27874200  0.81624800  1
  C  384  1  0.51016200  0.25123000  0.79251700  1
  C  385  1  0.47160400  0.22520800  0.79218300  1
  C  386  1  0.44209900  0.22533500  0.81534700  1
  C  387  1  0.34965700  0.25171000  0.05626800  1
  C  388  1  0.36700400  0.21082500  0.06519000  1
  C  389  1  0.36469400  0.29075000  0.06950300  1
  C  390  1  0.39712400  0.28894500  0.09083700  1
  C  391  1  0.41551100  0.24816500  0.09948700  1
  C  392  1  0.39948100  0.20916700  0.08643800  1
  C  393  1  0.45190100  0.24668600  0.11874600  1
  C  394  1  0.48968100  0.22144300  0.11165300  1
  C  395  1  0.52773700  0.22281300  0.12854500  1
  C  396  1  0.52922400  0.24913000  0.15322500  1
  C  397  1  0.49154800  0.27375900  0.16101300  1
  C  398  1  0.45336200  0.27249500  0.14391200  1
  C  445  1  0.72654500  0.74511200  0.57051000  1
  C  446  1  0.72648600  0.79065800  0.57023000  1
  C  447  1  0.72773800  0.80461600  0.54196600  1
  C  449  1  0.72802100  0.73004800  0.54242700  1
  C  450  1  0.72838100  0.68485800  0.53406000  1
  C  451  1  0.72906400  0.66936100  0.50552200  1
  C  453  1  0.72959500  0.66770600  0.45783000  1
  C  454  1  0.72950600  0.62420400  0.46752700  1
  C  455  1  0.72924900  0.62522300  0.49686600  1
  C  456  1  0.72941400  0.68131300  0.42895700  1
  C  457  1  0.72893100  0.72624300  0.42010100  1
  C  459  1  0.72849800  0.80084800  0.41965500  1
  C  460  1  0.72780800  0.78577400  0.39156900  1
  C  461  1  0.72826500  0.74023100  0.39183900  1
  C  462  1  0.72838300  0.84605400  0.42800700  1
  C  463  1  0.72836400  0.86155200  0.45654500  1
  C  465  1  0.72817200  0.86315600  0.50422000  1
  C  466  1  0.72833600  0.90667500  0.49455700  1
  C  467  1  0.72851000  0.90568600  0.46521800  1
  C  468  1  0.72784000  0.84951400  0.53307600  1
  C  469  1  0.72733400  0.88306300  0.55451200  1
  C  470  1  0.76710900  0.89989500  0.56571200  1
  C  471  1  0.76654700  0.93171700  0.58760000  1
  C  472  1  0.72634300  0.94779800  0.59914800  1
  C  473  1  0.68665600  0.93091800  0.58747900  1
  C  474  1  0.68705100  0.89913200  0.56558200  1
  C  475  1  0.72582600  0.97844000  0.62254000  1
  C  476  1  0.69579500  0.97295700  0.64541900  1
  C  477  1  0.69638200  0.00123842  0.66917700  1
  C  478  1  0.72645200  0.03663740  0.67081500  1
  C  479  1  0.75719000  0.04200040  0.64849300  1
  C  480  1  0.75644000  0.01374640  0.62461200  1
  C  481  1  0.72726100  0.87836900  0.40603600  1
  C  482  1  0.76636100  0.89186100  0.39213700  1
  C  483  1  0.76496700  0.92393300  0.37054300  1
  C  484  1  0.72454900  0.94351100  0.36233900  1
  C  485  1  0.68547300  0.92922100  0.37615100  1
  C  486  1  0.68671100  0.89702600  0.39760900  1
  C  487  1  0.72359600  0.97933500  0.34265100  1
  C  488  1  0.74763800  0.97872300  0.31673300  1
  C  489  1  0.74889100  0.01603140  0.29880800  1
  C  490  1  0.72607400  0.05481140  0.30656800  1
  C  491  1  0.70181200  0.05553040  0.33214300  1
  C  492  1  0.70042500  0.01835340  0.34984200  1
  C  493  1  0.72903100  0.64772100  0.40750400  1
  C  494  1  0.68908800  0.63471000  0.39458800  1
  C  495  1  0.68888800  0.60299400  0.37265300  1
  C  496  1  0.72844000  0.58297200  0.36286000  1
  C  497  1  0.76824900  0.59578700  0.37629400  1
  C  498  1  0.76861800  0.62772000  0.39813600  1
  C  499  1  0.72828000  0.55238400  0.33946300  1
  C  500  1  0.75461200  0.51365100  0.33924600  1
  C  501  1  0.75518700  0.48474900  0.31565200  1
  C  502  1  0.72902100  0.49347900  0.29155400  1
  C  503  1  0.70332300  0.53225900  0.29140300  1
  C  504  1  0.70269100  0.56096500  0.31494900  1
  C  505  1  0.72647300  0.65256000  0.55601200  1
  C  506  1  0.68539000  0.63542200  0.56487900  1
  C  507  1  0.76527700  0.63743600  0.56936300  1
  C  508  1  0.76304900  0.60508000  0.59076100  1
  C  509  1  0.72206700  0.58688000  0.59933300  1
  C  510  1  0.68330800  0.60301500  0.58618100  1
  C  511  1  0.72015100  0.55049600  0.61858900  1
  C  512  1  0.69503400  0.51275700  0.61136200  1
  C  513  1  0.69585900  0.47475300  0.62833500  1
  C  514  1  0.72144000  0.47332800  0.65323800  1
  C  515  1  0.74600200  0.51094400  0.66111700  1
  C  516  1  0.74528700  0.54908600  0.64394300  1
  C  563  1  0.73538200  0.21769900  0.71259500  1
  C  564  1  0.73642800  0.22785800  0.68368400  1
  C  565  1  0.73756700  0.27332300  0.68076700  1
  C  566  1  0.73578500  0.29318600  0.70764800  1
  C  567  1  0.73670400  0.33981200  0.70984000  1
  C  568  1  0.73955600  0.36619700  0.68493700  1
  C  569  1  0.74235600  0.34447500  0.65814600  1
  C  570  1  0.74098900  0.29837100  0.65586200  1
  C  571  1  0.73477100  0.19469000  0.66280000  1
  C  572  1  0.73260000  0.15028000  0.67131400  1
  C  573  1  0.73333700  0.13833000  0.70042100  1
  C  574  1  0.73428200  0.17297500  0.72098200  1
  C  575  1  0.76864200  0.26193700  0.75207700  1
  C  576  1  0.74965600  0.26417500  0.77921200  1
  C  577  1  0.70413700  0.26249200  0.77699300  1
  C  578  1  0.69294600  0.26071900  0.74826000  1
  C  579  1  0.67186500  0.26035000  0.79845800  1
  C  580  1  0.62724500  0.25673400  0.79072000  1
  C  581  1  0.61418400  0.25665700  0.76182500  1
  C  582  1  0.64793200  0.25828200  0.74064400  1
  C  583  1  0.81519800  0.26266000  0.74922800  1
  C  584  1  0.84238800  0.26586500  0.77373200  1
  C  585  1  0.82147900  0.26918800  0.80079200  1
  C  586  1  0.77547400  0.26794400  0.80373400  1
  C  599  1  0.73343100  0.25871900  0.73014000  1
  C  600  1  0.57003700  0.25265100  0.75371900  1
  C  601  1  0.88839400  0.26627900  0.77189600  1
  C  602  1  0.73176500  0.09444340  0.70954000  1
  C  603  1  0.74039500  0.41221100  0.68613300  1
  C  608  1  0.70986300  0.26823100  0.20765100  1
  C  609  1  0.72989400  0.26384100  0.18094300  1
  C  610  1  0.77532700  0.26310200  0.18405300  1
  C  611  1  0.78534900  0.26821900  0.21281500  1
  C  612  1  0.83002500  0.26812900  0.22129300  1
  C  613  1  0.86466500  0.26190500  0.20106200  1
  C  614  1  0.85282500  0.25524900  0.17224800  1
  C  615  1  0.80850300  0.25648700  0.16354500  1
  C  616  1  0.70501600  0.26160900  0.15593800  1
  C  617  1  0.65890200  0.26363100  0.15795800  1
  C  618  1  0.63690900  0.26715400  0.18464900  1
  C  619  1  0.66319900  0.26983500  0.20959700  1
  C  620  1  0.74087600  0.23612800  0.25229300  1
  C  621  1  0.73599600  0.25523700  0.27922500  1
  C  622  1  0.73517600  0.30075700  0.27671200  1
  C  623  1  0.74069400  0.31179600  0.24811400  1
  C  624  1  0.72876100  0.33319800  0.29771000  1
  C  625  1  0.72800600  0.37785100  0.28968000  1
  C  626  1  0.73492500  0.39068800  0.26106200  1
  C  627  1  0.74098100  0.35679900  0.24031000  1
  C  628  1  0.74321300  0.18956600  0.24975900  1
  C  629  1  0.74079500  0.16241700  0.27435800  1
  C  630  1  0.73657100  0.18352600  0.30129800  1
  C  631  1  0.73386000  0.22952400  0.30389600  1
  C  644  1  0.74419400  0.27121100  0.23021300  1
  C  645  1  0.73325100  0.43481100  0.25256300  1
  C  646  1  0.74365200  0.11640200  0.27269000  1
  C  647  1  0.59083300  0.26916400  0.18568600  1
  C  648  1  0.90840260  0.25992300  0.21034100  1
  N  4  1  0.49915100  0.98969800  0.04780300  1
  N  8  1  0.57272900  0.98970600  0.00290000  1
  N  14  1  0.50229200  0.98941500  0.95737800  1
  N  20  1  0.42871300  0.98908000  0.00226700  1
  N  115  1  0.20858500  0.99206700  0.21743800  1
  N  116  1  0.83260600  0.98997500  0.18588800  1
  N  117  1  0.79903500  0.98683700  0.79048900  1
  N  118  1  0.17458500  0.98974300  0.81480900  1
  N  122  1  0.99272000  0.50303300  0.54749600  1
  N  126  1  0.99328900  0.42947100  0.50261400  1
  N  132  1  0.99310400  0.49991300  0.45706300  1
  N  138  1  0.99215100  0.57348200  0.50192200  1
  N  233  1  0.99251600  0.79428800  0.71659100  1
  N  234  1  0.98999300  0.16995100  0.68592500  1
  N  235  1  0.99448100  0.20625600  0.28884800  1
  N  236  1  0.99466700  0.82934600  0.31520400  1
  N  330  1  0.23518600  0.25366300  0.02656000  1
  N  334  1  0.30876400  0.25367100  0.98165730  1
  N  340  1  0.23832700  0.25338000  0.93613530  1
  N  346  1  0.16474800  0.25304500  0.98102430  1
  N  441  1  0.94461960  0.25603200  0.19619500  1
  N  442  1  0.56864100  0.25394000  0.16464500  1
  N  443  1  0.53507000  0.25080200  0.76924600  1
  N  444  1  0.91061960  0.25370800  0.79356600  1
  N  448  1  0.72875500  0.76699800  0.52625300  1
  N  452  1  0.72932400  0.69343600  0.48137100  1
  N  458  1  0.72913900  0.76387800  0.43582000  1
  N  464  1  0.72818600  0.83744700  0.48067900  1
  N  559  1  0.72855100  0.05825340  0.69534800  1
  N  560  1  0.72602800  0.43391600  0.66468200  1
  N  561  1  0.73051600  0.47022100  0.26760500  1
  N  562  1  0.73070200  0.09331140  0.29396100  1
