# generated using pymatgen
data_H7C12N2O
_symmetry_space_group_name_H-M   'P 1'
_cell_length_a   26.75960000
_cell_length_b   26.75960000
_cell_length_c   26.75960000
_cell_angle_alpha   90.00000000
_cell_angle_beta   90.00000000
_cell_angle_gamma   90.00000000
_symmetry_Int_Tables_number   1
_chemical_formula_structural   H7C12N2O
_chemical_formula_sum   'H224 C384 N64 O32'
_cell_volume   19161.91247172
_cell_formula_units_Z   32
loop_
 _symmetry_equiv_pos_site_id
 _symmetry_equiv_pos_as_xyz
  1  'x, y, z'
loop_
 _atom_site_type_symbol
 _atom_site_label
 _atom_site_symmetry_multiplicity
 _atom_site_fract_x
 _atom_site_fract_y
 _atom_site_fract_z
 _atom_site_occupancy
  H  7  1  0.08758800  0.03485600  0.97900600  1
  H  8  1  0.92973800  0.03369300  0.97800100  1
  H  9  1  0.00871800  0.11875000  0.87485600  1
  H  16  1  0.08758600  0.98200300  0.03795500  1
  H  17  1  0.00872300  0.89805600  0.14206000  1
  H  18  1  0.92973800  0.98312400  0.03893300  1
  H  25  1  0.42918800  0.98181600  0.47903600  1
  H  26  1  0.58703100  0.98330700  0.47766800  1
  H  27  1  0.50799400  0.89787600  0.37487500  1
  H  34  1  0.42922200  0.03508200  0.53762400  1
  H  35  1  0.50812400  0.11890300  0.64179600  1
  H  36  1  0.58706100  0.03336800  0.53899900  1
  H  43  1  0.23109400  0.83628000  0.22919100  1
  H  44  1  0.23337200  0.67834400  0.22802600  1
  H  45  1  0.14898200  0.75622600  0.12410200  1
  H  52  1  0.28574700  0.83623100  0.28753600  1
  H  53  1  0.36776900  0.75598700  0.39257000  1
  H  54  1  0.28332200  0.67829500  0.28855900  1
  H  61  1  0.28562400  0.18048700  0.72898700  1
  H  62  1  0.28378600  0.33842100  0.72862500  1
  H  63  1  0.36785600  0.26086700  0.62422900  1
  H  70  1  0.23147900  0.18037900  0.78779600  1
  H  71  1  0.14925500  0.26039300  0.89283900  1
  H  72  1  0.23324800  0.33832000  0.78865900  1
  H  79  1  0.78672000  0.17987700  0.78655500  1
  H  80  1  0.78204500  0.33773800  0.78978800  1
  H  81  1  0.86772300  0.25977800  0.89262200  1
  H  88  1  0.72976500  0.17995000  0.73028800  1
  H  89  1  0.64906100  0.26002300  0.62414300  1
  H  90  1  0.73488000  0.33778900  0.72698400  1
  H  97  1  0.72968600  0.83677300  0.28637800  1
  H  98  1  0.73476500  0.67892700  0.28967600  1
  H  99  1  0.64900100  0.75670400  0.39255800  1
  H  106  1  0.78679800  0.83681000  0.23023400  1
  H  107  1  0.86752400  0.75690600  0.12398100  1
  H  108  1  0.78167500  0.67897500  0.22668700  1
  H  115  1  0.58757600  0.53599500  0.47972000  1
  H  116  1  0.42961400  0.53416000  0.47852000  1
  H  117  1  0.50848700  0.61474800  0.37191800  1
  H  124  1  0.58773300  0.48107600  0.53689900  1
  H  125  1  0.50915200  0.40212100  0.64493100  1
  H  126  1  0.42976700  0.48253400  0.53857700  1
  H  133  1  0.92911000  0.48112500  0.97948800  1
  H  134  1  0.08708500  0.48231300  0.97861000  1
  H  135  1  0.00810200  0.40195700  0.87192700  1
  H  142  1  0.92905000  0.53560600  0.03705100  1
  H  143  1  0.00781800  0.61477800  0.14477100  1
  H  144  1  0.08701900  0.53450700  0.03818700  1
  H  151  1  0.87669500  0.87850400  0.22176900  1
  H  154  1  0.83959400  0.93049300  0.00668600  1
  H  155  1  0.82423900  0.86625000  0.99933900  1
  H  156  1  0.86722600  0.89544000  0.95809000  1
  H  164  1  0.63989400  0.13814000  0.72172300  1
  H  167  1  0.67588900  0.08467900  0.50747800  1
  H  168  1  0.69307900  0.14840000  0.49976100  1
  H  169  1  0.64963600  0.12006900  0.45840400  1
  H  177  1  0.38820100  0.62469200  0.47082600  1
  H  180  1  0.33317500  0.58818200  0.25609000  1
  H  181  1  0.39684800  0.57102500  0.24805500  1
  H  182  1  0.36846900  0.61495700  0.20720500  1
  H  190  1  0.12874800  0.39226300  0.97099400  1
  H  193  1  0.18308700  0.42825000  0.75646900  1
  H  194  1  0.11929000  0.44516400  0.74872200  1
  H  195  1  0.14772200  0.40159800  0.70755600  1
  H  203  1  0.63975900  0.87842500  0.29499600  1
  H  206  1  0.67603400  0.93213300  0.50913000  1
  H  207  1  0.69311200  0.86839100  0.51692500  1
  H  208  1  0.64977100  0.89686700  0.55828600  1
  H  216  1  0.87687800  0.13827300  0.79506100  1
  H  219  1  0.83956800  0.08623900  0.01015400  1
  H  220  1  0.82408600  0.15045800  0.01740800  1
  H  221  1  0.86710200  0.12140700  0.05872100  1
  H  229  1  0.12877200  0.62430700  0.04587100  1
  H  232  1  0.18436600  0.58968400  0.25969900  1
  H  233  1  0.12107000  0.57115200  0.26777700  1
  H  234  1  0.14873500  0.61512500  0.30902400  1
  H  242  1  0.38825700  0.39247600  0.54629400  1
  H  245  1  0.33253200  0.42724900  0.76013500  1
  H  246  1  0.39580600  0.44586300  0.76818800  1
  H  247  1  0.36821600  0.40184800  0.80944100  1
  H  255  1  0.14120400  0.13837600  0.79567400  1
  H  258  1  0.17744100  0.08780200  0.01119600  1
  H  259  1  0.19239200  0.15216800  0.01825800  1
  H  260  1  0.14935200  0.12297300  0.05944300  1
  H  268  1  0.37580900  0.87843600  0.29563200  1
  H  271  1  0.34065200  0.93028300  0.51037000  1
  H  272  1  0.32393900  0.86640000  0.51779200  1
  H  273  1  0.36741900  0.89477100  0.55908200  1
  H  281  1  0.62888100  0.39096300  0.54525900  1
  H  284  1  0.68519700  0.42828800  0.75960100  1
  H  285  1  0.62163500  0.44575800  0.76783300  1
  H  286  1  0.65000600  0.40190100  0.80876800  1
  H  294  1  0.88786500  0.62556300  0.04517800  1
  H  297  1  0.83161200  0.58873500  0.25912100  1
  H  298  1  0.89521900  0.57126800  0.26720100  1
  H  299  1  0.86685900  0.61483400  0.30841600  1
  H  307  1  0.37580200  0.13845100  0.72097500  1
  H  310  1  0.34067100  0.08659900  0.50625200  1
  H  311  1  0.32403000  0.15049600  0.49880100  1
  H  312  1  0.36748100  0.12205600  0.45752600  1
  H  320  1  0.14105900  0.87835800  0.22126900  1
  H  323  1  0.17724200  0.92885200  0.00565400  1
  H  324  1  0.19214100  0.86447100  0.99860300  1
  H  325  1  0.14907700  0.89368000  0.95745100  1
  H  333  1  0.88786900  0.39128400  0.97132700  1
  H  336  1  0.83070400  0.42684500  0.75799400  1
  H  337  1  0.89385500  0.44576500  0.74968300  1
  H  338  1  0.86621300  0.40186700  0.70834400  1
  H  346  1  0.62889200  0.62555100  0.47133400  1
  H  349  1  0.68594100  0.58986300  0.25792700  1
  H  350  1  0.62279000  0.57092100  0.24966300  1
  H  351  1  0.65038700  0.61483400  0.20830800  1
  H  359  1  0.08758800  0.03485600  0.39007300  1
  H  360  1  0.92973800  0.03369300  0.38906800  1
  H  361  1  0.00871800  0.11875000  0.28592300  1
  H  368  1  0.08758600  0.98200300  0.44902200  1
  H  369  1  0.00872300  0.89805600  0.55312700  1
  H  370  1  0.92973800  0.98312400  0.45000000  1
  H  377  1  0.42918800  0.98181600  0.89010300  1
  H  378  1  0.58703100  0.98330700  0.88873500  1
  H  379  1  0.50799400  0.89787600  0.78594200  1
  H  386  1  0.42922200  0.03508200  0.94869100  1
  H  387  1  0.50812400  0.11890300  0.05286340  1
  H  388  1  0.58706100  0.03336800  0.95006600  1
  H  395  1  0.23109400  0.83628000  0.64025800  1
  H  396  1  0.23337200  0.67834400  0.63909300  1
  H  397  1  0.14898200  0.75622600  0.53516900  1
  H  404  1  0.28574700  0.83623100  0.69860300  1
  H  405  1  0.36776900  0.75598700  0.80363700  1
  H  406  1  0.28332200  0.67829500  0.69962600  1
  H  413  1  0.28562400  0.18048700  0.14005400  1
  H  414  1  0.28378600  0.33842100  0.13969200  1
  H  415  1  0.36785600  0.26086700  0.03529640  1
  H  422  1  0.23147900  0.18037900  0.19886300  1
  H  423  1  0.14925500  0.26039300  0.30390600  1
  H  424  1  0.23324800  0.33832000  0.19972600  1
  H  431  1  0.78672000  0.17987700  0.19762200  1
  H  432  1  0.78204500  0.33773800  0.20085500  1
  H  433  1  0.86772300  0.25977800  0.30368900  1
  H  440  1  0.72976500  0.17995000  0.14135500  1
  H  441  1  0.64906100  0.26002300  0.03521040  1
  H  442  1  0.73488000  0.33778900  0.13805100  1
  H  449  1  0.72968600  0.83677300  0.69744500  1
  H  450  1  0.73476500  0.67892700  0.70074300  1
  H  451  1  0.64900100  0.75670400  0.80362500  1
  H  458  1  0.78679800  0.83681000  0.64130100  1
  H  459  1  0.86752400  0.75690600  0.53504800  1
  H  460  1  0.78167500  0.67897500  0.63775400  1
  H  467  1  0.58757600  0.53599500  0.89078700  1
  H  468  1  0.42961400  0.53416000  0.88958700  1
  H  469  1  0.50848700  0.61474800  0.78298500  1
  H  476  1  0.58773300  0.48107600  0.94796600  1
  H  477  1  0.50915200  0.40212100  0.05599840  1
  H  478  1  0.42976700  0.48253400  0.94964400  1
  H  485  1  0.92911000  0.48112500  0.39055500  1
  H  486  1  0.08708500  0.48231300  0.38967700  1
  H  487  1  0.00810200  0.40195700  0.28299400  1
  H  494  1  0.92905000  0.53560600  0.44811800  1
  H  495  1  0.00781800  0.61477800  0.55583800  1
  H  496  1  0.08701900  0.53450700  0.44925400  1
  H  503  1  0.87669500  0.87850400  0.63283600  1
  H  506  1  0.83959400  0.93049300  0.41775300  1
  H  507  1  0.82423900  0.86625000  0.41040600  1
  H  508  1  0.86722600  0.89544000  0.36915700  1
  H  516  1  0.63989400  0.13814000  0.13279000  1
  H  519  1  0.67588900  0.08467900  0.91854500  1
  H  520  1  0.69307900  0.14840000  0.91082800  1
  H  521  1  0.64963600  0.12006900  0.86947100  1
  H  529  1  0.38820100  0.62469200  0.88189300  1
  H  532  1  0.33317500  0.58818200  0.66715700  1
  H  533  1  0.39684800  0.57102500  0.65912200  1
  H  534  1  0.36846900  0.61495700  0.61827200  1
  H  542  1  0.12874800  0.39226300  0.38206100  1
  H  545  1  0.18308700  0.42825000  0.16753600  1
  H  546  1  0.11929000  0.44516400  0.15978900  1
  H  547  1  0.14772200  0.40159800  0.11862300  1
  H  555  1  0.63975900  0.87842500  0.70606300  1
  H  558  1  0.67603400  0.93213300  0.92019700  1
  H  559  1  0.69311200  0.86839100  0.92799200  1
  H  560  1  0.64977100  0.89686700  0.96935300  1
  H  568  1  0.87687800  0.13827300  0.20612800  1
  H  571  1  0.83956800  0.08623900  0.42122100  1
  H  572  1  0.82408600  0.15045800  0.42847500  1
  H  573  1  0.86710200  0.12140700  0.46978800  1
  H  581  1  0.12877200  0.62430700  0.45693800  1
  H  584  1  0.18436600  0.58968400  0.67076600  1
  H  585  1  0.12107000  0.57115200  0.67884400  1
  H  586  1  0.14873500  0.61512500  0.72009100  1
  H  594  1  0.38825700  0.39247600  0.95736100  1
  H  597  1  0.33253200  0.42724900  0.17120200  1
  H  598  1  0.39580600  0.44586300  0.17925500  1
  H  599  1  0.36821600  0.40184800  0.22050800  1
  H  607  1  0.14120400  0.13837600  0.20674100  1
  H  610  1  0.17744100  0.08780200  0.42226300  1
  H  611  1  0.19239200  0.15216800  0.42932500  1
  H  612  1  0.14935200  0.12297300  0.47051000  1
  H  620  1  0.37580900  0.87843600  0.70669900  1
  H  623  1  0.34065200  0.93028300  0.92143700  1
  H  624  1  0.32393900  0.86640000  0.92885900  1
  H  625  1  0.36741900  0.89477100  0.97014900  1
  H  633  1  0.62888100  0.39096300  0.95632600  1
  H  636  1  0.68519700  0.42828800  0.17066800  1
  H  637  1  0.62163500  0.44575800  0.17890000  1
  H  638  1  0.65000600  0.40190100  0.21983500  1
  H  646  1  0.88786500  0.62556300  0.45624500  1
  H  649  1  0.83161200  0.58873500  0.67018800  1
  H  650  1  0.89521900  0.57126800  0.67826800  1
  H  651  1  0.86685900  0.61483400  0.71948300  1
  H  659  1  0.37580200  0.13845100  0.13204200  1
  H  662  1  0.34067100  0.08659900  0.91731900  1
  H  663  1  0.32403000  0.15049600  0.90986800  1
  H  664  1  0.36748100  0.12205600  0.86859300  1
  H  672  1  0.14105900  0.87835800  0.63233600  1
  H  675  1  0.17724200  0.92885200  0.41672100  1
  H  676  1  0.19214100  0.86447100  0.40967000  1
  H  677  1  0.14907700  0.89368000  0.36851800  1
  H  685  1  0.88786900  0.39128400  0.38239400  1
  H  688  1  0.83070400  0.42684500  0.16906100  1
  H  689  1  0.89385500  0.44576500  0.16075000  1
  H  690  1  0.86621300  0.40186700  0.11941100  1
  H  698  1  0.62889200  0.62555100  0.88240100  1
  H  701  1  0.68594100  0.58986300  0.66899400  1
  H  702  1  0.62279000  0.57092100  0.66073000  1
  H  703  1  0.65038700  0.61483400  0.61937500  1
  C  1  1  0.00868100  0.02530400  0.98666700  1
  C  2  1  0.05366200  0.04408500  0.96467500  1
  C  3  1  0.05466100  0.07700000  0.92322400  1
  C  4  1  0.00873300  0.09219700  0.90252100  1
  C  5  1  0.96277600  0.07662500  0.92288000  1
  C  6  1  0.96371100  0.04351300  0.96417800  1
  C  10  1  0.00867900  0.99156200  0.03030100  1
  C  11  1  0.05366000  0.97279100  0.05229600  1
  C  12  1  0.05465400  0.93985700  0.09372900  1
  C  13  1  0.00873000  0.92463300  0.11441700  1
  C  14  1  0.96277300  0.94019700  0.09405600  1
  C  15  1  0.96370700  0.97332200  0.05276500  1
  C  19  1  0.50808700  0.99152500  0.48651700  1
  C  20  1  0.46309800  0.97267200  0.46461500  1
  C  21  1  0.46208500  0.93973000  0.42319000  1
  C  22  1  0.50799700  0.92450200  0.40247300  1
  C  23  1  0.55396200  0.94022000  0.42270100  1
  C  24  1  0.55304700  0.97338200  0.46395300  1
  C  28  1  0.50810900  0.02528200  0.53013100  1
  C  29  1  0.46314200  0.04420100  0.55203400  1
  C  30  1  0.46216300  0.07716400  0.59344700  1
  C  31  1  0.50810600  0.09233600  0.61414200  1
  C  32  1  0.55404800  0.07650000  0.59396300  1
  C  33  1  0.55309100  0.04336200  0.55269500  1
  C  37  1  0.24134600  0.75742600  0.23665200  1
  C  38  1  0.22211300  0.80229900  0.21473500  1
  C  39  1  0.18997100  0.80289700  0.17259400  1
  C  40  1  0.17504900  0.75667100  0.15221500  1
  C  41  1  0.19032400  0.71094100  0.17311500  1
  C  42  1  0.22337400  0.71227200  0.21432600  1
  C  46  1  0.27545800  0.75738800  0.27998100  1
  C  47  1  0.29471800  0.80222800  0.30194600  1
  C  48  1  0.32684800  0.80275900  0.34409400  1
  C  49  1  0.34176000  0.75649900  0.36440200  1
  C  50  1  0.32639900  0.71078800  0.34351300  1
  C  51  1  0.29337300  0.71220100  0.30228200  1
  C  55  1  0.27558800  0.25933200  0.73684600  1
  C  56  1  0.29470500  0.21451600  0.71471200  1
  C  57  1  0.32680000  0.21403900  0.67254000  1
  C  58  1  0.34185200  0.26032600  0.65240200  1
  C  59  1  0.32661200  0.30601700  0.67343000  1
  C  60  1  0.29365400  0.30454200  0.71471200  1
  C  64  1  0.24149800  0.25925500  0.78019500  1
  C  65  1  0.22240500  0.21435900  0.80219100  1
  C  66  1  0.19030500  0.21374100  0.84435900  1
  C  67  1  0.17525900  0.25995500  0.86466600  1
  C  68  1  0.19045700  0.30571500  0.84376100  1
  C  69  1  0.22342600  0.30438900  0.80248200  1
  C  73  1  0.77535600  0.25865800  0.78009800  1
  C  74  1  0.79511300  0.21378400  0.80154100  1
  C  75  1  0.82704600  0.21312500  0.84383600  1
  C  76  1  0.84159000  0.25931300  0.86457200  1
  C  77  1  0.82593900  0.30507800  0.84400800  1
  C  78  1  0.79269900  0.30379000  0.80294900  1
  C  82  1  0.74134500  0.25869800  0.73670800  1
  C  83  1  0.72146800  0.21387100  0.71528400  1
  C  84  1  0.68957700  0.21326900  0.67295900  1
  C  85  1  0.67517500  0.25949900  0.65221100  1
  C  86  1  0.69096700  0.30524600  0.67271200  1
  C  87  1  0.72413700  0.30386600  0.71383000  1
  C  91  1  0.74124100  0.75802000  0.27995000  1
  C  92  1  0.72139400  0.80285200  0.30139400  1
  C  93  1  0.68951700  0.80345000  0.34373500  1
  C  94  1  0.67510700  0.75722400  0.36448300  1
  C  95  1  0.69090700  0.71147900  0.34398000  1
  C  96  1  0.72404300  0.71285500  0.30284000  1
  C  100  1  0.77522500  0.75805300  0.23654000  1
  C  101  1  0.79508700  0.80291600  0.21516700  1
  C  102  1  0.82697800  0.80357700  0.17284000  1
  C  103  1  0.84144400  0.75737000  0.15208200  1
  C  104  1  0.82560300  0.71159500  0.17247800  1
  C  105  1  0.79243400  0.71291800  0.21359500  1
  C  109  1  0.50865900  0.52537400  0.48669300  1
  C  110  1  0.55365600  0.54436600  0.46482800  1
  C  111  1  0.55457900  0.57563700  0.42215900  1
  C  112  1  0.50854700  0.58955700  0.40081300  1
  C  113  1  0.46255600  0.57491200  0.42175200  1
  C  114  1  0.46356500  0.54345000  0.46426700  1
  C  118  1  0.50876300  0.49149100  0.53015800  1
  C  119  1  0.55387600  0.47262300  0.55188800  1
  C  120  1  0.55500100  0.44137100  0.59456800  1
  C  121  1  0.50907000  0.42726400  0.61599200  1
  C  122  1  0.46297400  0.44178900  0.59520300  1
  C  123  1  0.46378100  0.47329600  0.55271000  1
  C  127  1  0.00806500  0.49143900  0.98660700  1
  C  128  1  0.96303000  0.47260100  0.96469000  1
  C  129  1  0.96206300  0.44129600  0.92205400  1
  C  130  1  0.00807600  0.42714400  0.90082500  1
  C  131  1  0.05409900  0.44168800  0.92176700  1
  C  132  1  0.05313000  0.47317600  0.96427100  1
  C  136  1  0.00802000  0.52534400  0.03005500  1
  C  137  1  0.96294100  0.54414500  0.05191100  1
  C  138  1  0.96188700  0.57543100  0.09455700  1
  C  139  1  0.00785900  0.58960200  0.11586300  1
  C  140  1  0.05393000  0.57508400  0.09500400  1
  C  141  1  0.05303800  0.54362200  0.05247500  1
  C  145  1  0.91837400  0.91588800  0.11132900  1
  C  147  1  0.87724100  0.88121300  0.18368500  1
  C  148  1  0.85006200  0.84767400  0.15345400  1
  C  150  1  0.88845200  0.88481500  0.08040100  1
  C  152  1  0.89535700  0.88022300  0.02936400  1
  C  153  1  0.85434000  0.89372800  0.99677900  1
  C  158  1  0.59847700  0.10075600  0.61118300  1
  C  160  1  0.63957600  0.13542100  0.68363900  1
  C  161  1  0.66654600  0.16918800  0.65347800  1
  C  163  1  0.62820800  0.13214600  0.58038600  1
  C  165  1  0.62127600  0.13669900  0.52937700  1
  C  166  1  0.66223000  0.12176200  0.49719700  1
  C  171  1  0.35023000  0.66606400  0.36055000  1
  C  173  1  0.38489000  0.62471100  0.43278700  1
  C  174  1  0.41813000  0.59729200  0.40241600  1
  C  176  1  0.38081300  0.63575300  0.32952300  1
  C  178  1  0.38520400  0.64240900  0.27851500  1
  C  179  1  0.37023500  0.60192300  0.24584900  1
  C  184  1  0.16642600  0.35031500  0.86082400  1
  C  186  1  0.13170700  0.39177700  0.93292500  1
  C  187  1  0.09848100  0.41913600  0.90250600  1
  C  189  1  0.13569000  0.38042100  0.82972500  1
  C  191  1  0.13133300  0.37364700  0.77864400  1
  C  192  1  0.14605000  0.41441600  0.74627100  1
  C  197  1  0.59835700  0.91587000  0.40548100  1
  C  199  1  0.63945300  0.88119400  0.33307600  1
  C  200  1  0.66651200  0.84750900  0.36327400  1
  C  202  1  0.62817900  0.88465100  0.43634400  1
  C  204  1  0.62130200  0.88018500  0.48736900  1
  C  205  1  0.66231600  0.89509200  0.51948500  1
  C  210  1  0.91836200  0.10084200  0.90554100  1
  C  212  1  0.87709100  0.13532900  0.83312600  1
  C  213  1  0.84995300  0.16897800  0.86329000  1
  C  215  1  0.88837300  0.13191200  0.93640800  1
  C  217  1  0.89524900  0.13658200  0.98744400  1
  C  218  1  0.85423600  0.12304400  0.02002000  1
  C  223  1  0.16632900  0.66631100  0.15607200  1
  C  225  1  0.13164200  0.62485600  0.08394600  1
  C  226  1  0.09825500  0.59768500  0.11435700  1
  C  228  1  0.13542700  0.63635100  0.18715800  1
  C  230  1  0.13107600  0.64323100  0.23819600  1
  C  231  1  0.14706900  0.60255400  0.27022400  1
  C  236  1  0.35058200  0.35071900  0.65653800  1
  C  238  1  0.38514400  0.39225200  0.58434700  1
  C  239  1  0.41867200  0.41931100  0.61474000  1
  C  241  1  0.38151200  0.38067500  0.68757400  1
  C  243  1  0.38588800  0.37377600  0.73860200  1
  C  244  1  0.36985100  0.41442700  0.77064300  1
  C  249  1  0.09900500  0.10146800  0.90606000  1
  C  251  1  0.14050100  0.13585100  0.83376800  1
  C  252  1  0.16755400  0.16956800  0.86392900  1
  C  254  1  0.12871500  0.13276500  0.93696900  1
  C  256  1  0.12151700  0.13762200  0.98793400  1
  C  257  1  0.16243400  0.12453800  0.02081300  1
  C  262  1  0.41771600  0.91523100  0.40614200  1
  C  264  1  0.37630600  0.88092500  0.33372900  1
  C  265  1  0.34952100  0.84691100  0.36379500  1
  C  267  1  0.38825000  0.88360100  0.43691600  1
  C  269  1  0.39549600  0.87877300  0.48785100  1
  C  270  1  0.35462100  0.89323100  0.52035200  1
  C  275  1  0.66729300  0.35000100  0.65552200  1
  C  277  1  0.63239400  0.39109700  0.58327900  1
  C  278  1  0.59940000  0.41876200  0.61369800  1
  C  280  1  0.63702000  0.38058100  0.68659500  1
  C  282  1  0.63284200  0.37418400  0.73766100  1
  C  283  1  0.64812300  0.41476000  0.77006800  1
  C  288  1  0.84941900  0.66691600  0.15533000  1
  C  290  1  0.88464000  0.62582400  0.08322700  1
  C  291  1  0.91755900  0.59815600  0.11371500  1
  C  293  1  0.87990500  0.63656800  0.18644400  1
  C  295  1  0.88394800  0.64304000  0.23759400  1
  C  296  1  0.86869000  0.60221400  0.26964300  1
  C  301  1  0.41782800  0.10171400  0.61051400  1
  C  303  1  0.37634000  0.13596300  0.68288000  1
  C  304  1  0.34953800  0.16994700  0.65277500  1
  C  306  1  0.38832100  0.13325900  0.57968700  1
  C  308  1  0.39557000  0.13806100  0.52874900  1
  C  309  1  0.35468200  0.12363000  0.49625600  1
  C  314  1  0.09899100  0.91536500  0.11086500  1
  C  316  1  0.14058700  0.88109000  0.18319000  1
  C  317  1  0.16723500  0.84708300  0.15299400  1
  C  319  1  0.12857600  0.88395200  0.07995500  1
  C  321  1  0.12131000  0.87907900  0.02899700  1
  C  322  1  0.16220000  0.89212100  0.99606900  1
  C  327  1  0.84977400  0.34976700  0.86114900  1
  C  329  1  0.88475200  0.39094800  0.93326900  1
  C  330  1  0.91777900  0.41854200  0.90282000  1
  C  332  1  0.88030100  0.38005800  0.83002400  1
  C  334  1  0.88440100  0.37347400  0.77892400  1
  C  335  1  0.86801800  0.41423700  0.74720100  1
  C  340  1  0.66706900  0.66677800  0.36106700  1
  C  342  1  0.63219900  0.62560700  0.43329900  1
  C  343  1  0.59886200  0.59838700  0.40286100  1
  C  345  1  0.63637700  0.63660200  0.33000200  1
  C  347  1  0.63224400  0.64320900  0.27890700  1
  C  348  1  0.64862000  0.60246100  0.24716700  1
  C  353  1  0.00868100  0.02530400  0.39773400  1
  C  354  1  0.05366200  0.04408500  0.37574200  1
  C  355  1  0.05466100  0.07700000  0.33429100  1
  C  356  1  0.00873300  0.09219700  0.31358800  1
  C  357  1  0.96277600  0.07662500  0.33394700  1
  C  358  1  0.96371100  0.04351300  0.37524500  1
  C  362  1  0.00867900  0.99156200  0.44136800  1
  C  363  1  0.05366000  0.97279100  0.46336300  1
  C  364  1  0.05465400  0.93985700  0.50479600  1
  C  365  1  0.00873000  0.92463300  0.52548400  1
  C  366  1  0.96277300  0.94019700  0.50512300  1
  C  367  1  0.96370700  0.97332200  0.46383200  1
  C  371  1  0.50808700  0.99152500  0.89758400  1
  C  372  1  0.46309800  0.97267200  0.87568200  1
  C  373  1  0.46208500  0.93973000  0.83425700  1
  C  374  1  0.50799700  0.92450200  0.81354000  1
  C  375  1  0.55396200  0.94022000  0.83376800  1
  C  376  1  0.55304700  0.97338200  0.87502000  1
  C  380  1  0.50810900  0.02528200  0.94119800  1
  C  381  1  0.46314200  0.04420100  0.96310100  1
  C  382  1  0.46216300  0.07716400  0.00451443  1
  C  383  1  0.50810600  0.09233600  0.02520940  1
  C  384  1  0.55404800  0.07650000  0.00503043  1
  C  385  1  0.55309100  0.04336200  0.96376200  1
  C  389  1  0.24134600  0.75742600  0.64771900  1
  C  390  1  0.22211300  0.80229900  0.62580200  1
  C  391  1  0.18997100  0.80289700  0.58366100  1
  C  392  1  0.17504900  0.75667100  0.56328200  1
  C  393  1  0.19032400  0.71094100  0.58418200  1
  C  394  1  0.22337400  0.71227200  0.62539300  1
  C  398  1  0.27545800  0.75738800  0.69104800  1
  C  399  1  0.29471800  0.80222800  0.71301300  1
  C  400  1  0.32684800  0.80275900  0.75516100  1
  C  401  1  0.34176000  0.75649900  0.77546900  1
  C  402  1  0.32639900  0.71078800  0.75458000  1
  C  403  1  0.29337300  0.71220100  0.71334900  1
  C  407  1  0.27558800  0.25933200  0.14791300  1
  C  408  1  0.29470500  0.21451600  0.12577900  1
  C  409  1  0.32680000  0.21403900  0.08360740  1
  C  410  1  0.34185200  0.26032600  0.06346940  1
  C  411  1  0.32661200  0.30601700  0.08449740  1
  C  412  1  0.29365400  0.30454200  0.12577900  1
  C  416  1  0.24149800  0.25925500  0.19126200  1
  C  417  1  0.22240500  0.21435900  0.21325800  1
  C  418  1  0.19030500  0.21374100  0.25542600  1
  C  419  1  0.17525900  0.25995500  0.27573300  1
  C  420  1  0.19045700  0.30571500  0.25482800  1
  C  421  1  0.22342600  0.30438900  0.21354900  1
  C  425  1  0.77535600  0.25865800  0.19116500  1
  C  426  1  0.79511300  0.21378400  0.21260800  1
  C  427  1  0.82704600  0.21312500  0.25490300  1
  C  428  1  0.84159000  0.25931300  0.27563900  1
  C  429  1  0.82593900  0.30507800  0.25507500  1
  C  430  1  0.79269900  0.30379000  0.21401600  1
  C  434  1  0.74134500  0.25869800  0.14777500  1
  C  435  1  0.72146800  0.21387100  0.12635100  1
  C  436  1  0.68957700  0.21326900  0.08402640  1
  C  437  1  0.67517500  0.25949900  0.06327840  1
  C  438  1  0.69096700  0.30524600  0.08377940  1
  C  439  1  0.72413700  0.30386600  0.12489700  1
  C  443  1  0.74124100  0.75802000  0.69101700  1
  C  444  1  0.72139400  0.80285200  0.71246100  1
  C  445  1  0.68951700  0.80345000  0.75480200  1
  C  446  1  0.67510700  0.75722400  0.77555000  1
  C  447  1  0.69090700  0.71147900  0.75504700  1
  C  448  1  0.72404300  0.71285500  0.71390700  1
  C  452  1  0.77522500  0.75805300  0.64760700  1
  C  453  1  0.79508700  0.80291600  0.62623400  1
  C  454  1  0.82697800  0.80357700  0.58390700  1
  C  455  1  0.84144400  0.75737000  0.56314900  1
  C  456  1  0.82560300  0.71159500  0.58354500  1
  C  457  1  0.79243400  0.71291800  0.62466200  1
  C  461  1  0.50865900  0.52537400  0.89776000  1
  C  462  1  0.55365600  0.54436600  0.87589500  1
  C  463  1  0.55457900  0.57563700  0.83322600  1
  C  464  1  0.50854700  0.58955700  0.81188000  1
  C  465  1  0.46255600  0.57491200  0.83281900  1
  C  466  1  0.46356500  0.54345000  0.87533400  1
  C  470  1  0.50876300  0.49149100  0.94122500  1
  C  471  1  0.55387600  0.47262300  0.96295500  1
  C  472  1  0.55500100  0.44137100  0.00563543  1
  C  473  1  0.50907000  0.42726400  0.02705940  1
  C  474  1  0.46297400  0.44178900  0.00627043  1
  C  475  1  0.46378100  0.47329600  0.96377700  1
  C  479  1  0.00806500  0.49143900  0.39767400  1
  C  480  1  0.96303000  0.47260100  0.37575700  1
  C  481  1  0.96206300  0.44129600  0.33312100  1
  C  482  1  0.00807600  0.42714400  0.31189200  1
  C  483  1  0.05409900  0.44168800  0.33283400  1
  C  484  1  0.05313000  0.47317600  0.37533800  1
  C  488  1  0.00802000  0.52534400  0.44112200  1
  C  489  1  0.96294100  0.54414500  0.46297800  1
  C  490  1  0.96188700  0.57543100  0.50562400  1
  C  491  1  0.00785900  0.58960200  0.52693000  1
  C  492  1  0.05393000  0.57508400  0.50607100  1
  C  493  1  0.05303800  0.54362200  0.46354200  1
  C  497  1  0.91837400  0.91588800  0.52239600  1
  C  499  1  0.87724100  0.88121300  0.59475200  1
  C  500  1  0.85006200  0.84767400  0.56452100  1
  C  502  1  0.88845200  0.88481500  0.49146800  1
  C  504  1  0.89535700  0.88022300  0.44043100  1
  C  505  1  0.85434000  0.89372800  0.40784600  1
  C  510  1  0.59847700  0.10075600  0.02225040  1
  C  512  1  0.63957600  0.13542100  0.09470640  1
  C  513  1  0.66654600  0.16918800  0.06454540  1
  C  515  1  0.62820800  0.13214600  0.99145300  1
  C  517  1  0.62127600  0.13669900  0.94044400  1
  C  518  1  0.66223000  0.12176200  0.90826400  1
  C  523  1  0.35023000  0.66606400  0.77161700  1
  C  525  1  0.38489000  0.62471100  0.84385400  1
  C  526  1  0.41813000  0.59729200  0.81348300  1
  C  528  1  0.38081300  0.63575300  0.74059000  1
  C  530  1  0.38520400  0.64240900  0.68958200  1
  C  531  1  0.37023500  0.60192300  0.65691600  1
  C  536  1  0.16642600  0.35031500  0.27189100  1
  C  538  1  0.13170700  0.39177700  0.34399200  1
  C  539  1  0.09848100  0.41913600  0.31357300  1
  C  541  1  0.13569000  0.38042100  0.24079200  1
  C  543  1  0.13133300  0.37364700  0.18971100  1
  C  544  1  0.14605000  0.41441600  0.15733800  1
  C  549  1  0.59835700  0.91587000  0.81654800  1
  C  551  1  0.63945300  0.88119400  0.74414300  1
  C  552  1  0.66651200  0.84750900  0.77434100  1
  C  554  1  0.62817900  0.88465100  0.84741100  1
  C  556  1  0.62130200  0.88018500  0.89843600  1
  C  557  1  0.66231600  0.89509200  0.93055200  1
  C  562  1  0.91836200  0.10084200  0.31660800  1
  C  564  1  0.87709100  0.13532900  0.24419300  1
  C  565  1  0.84995300  0.16897800  0.27435700  1
  C  567  1  0.88837300  0.13191200  0.34747500  1
  C  569  1  0.89524900  0.13658200  0.39851100  1
  C  570  1  0.85423600  0.12304400  0.43108700  1
  C  575  1  0.16632900  0.66631100  0.56713900  1
  C  577  1  0.13164200  0.62485600  0.49501300  1
  C  578  1  0.09825500  0.59768500  0.52542400  1
  C  580  1  0.13542700  0.63635100  0.59822500  1
  C  582  1  0.13107600  0.64323100  0.64926300  1
  C  583  1  0.14706900  0.60255400  0.68129100  1
  C  588  1  0.35058200  0.35071900  0.06760540  1
  C  590  1  0.38514400  0.39225200  0.99541400  1
  C  591  1  0.41867200  0.41931100  0.02580740  1
  C  593  1  0.38151200  0.38067500  0.09864140  1
  C  595  1  0.38588800  0.37377600  0.14966900  1
  C  596  1  0.36985100  0.41442700  0.18171000  1
  C  601  1  0.09900500  0.10146800  0.31712700  1
  C  603  1  0.14050100  0.13585100  0.24483500  1
  C  604  1  0.16755400  0.16956800  0.27499600  1
  C  606  1  0.12871500  0.13276500  0.34803600  1
  C  608  1  0.12151700  0.13762200  0.39900100  1
  C  609  1  0.16243400  0.12453800  0.43188000  1
  C  614  1  0.41771600  0.91523100  0.81720900  1
  C  616  1  0.37630600  0.88092500  0.74479600  1
  C  617  1  0.34952100  0.84691100  0.77486200  1
  C  619  1  0.38825000  0.88360100  0.84798300  1
  C  621  1  0.39549600  0.87877300  0.89891800  1
  C  622  1  0.35462100  0.89323100  0.93141900  1
  C  627  1  0.66729300  0.35000100  0.06658940  1
  C  629  1  0.63239400  0.39109700  0.99434600  1
  C  630  1  0.59940000  0.41876200  0.02476540  1
  C  632  1  0.63702000  0.38058100  0.09766240  1
  C  634  1  0.63284200  0.37418400  0.14872800  1
  C  635  1  0.64812300  0.41476000  0.18113500  1
  C  640  1  0.84941900  0.66691600  0.56639700  1
  C  642  1  0.88464000  0.62582400  0.49429400  1
  C  643  1  0.91755900  0.59815600  0.52478200  1
  C  645  1  0.87990500  0.63656800  0.59751100  1
  C  647  1  0.88394800  0.64304000  0.64866100  1
  C  648  1  0.86869000  0.60221400  0.68071000  1
  C  653  1  0.41782800  0.10171400  0.02158140  1
  C  655  1  0.37634000  0.13596300  0.09394740  1
  C  656  1  0.34953800  0.16994700  0.06384240  1
  C  658  1  0.38832100  0.13325900  0.99075400  1
  C  660  1  0.39557000  0.13806100  0.93981600  1
  C  661  1  0.35468200  0.12363000  0.90732300  1
  C  666  1  0.09899100  0.91536500  0.52193200  1
  C  668  1  0.14058700  0.88109000  0.59425700  1
  C  669  1  0.16723500  0.84708300  0.56406100  1
  C  671  1  0.12857600  0.88395200  0.49102200  1
  C  673  1  0.12131000  0.87907900  0.44006400  1
  C  674  1  0.16220000  0.89212100  0.40713600  1
  C  679  1  0.84977400  0.34976700  0.27221600  1
  C  681  1  0.88475200  0.39094800  0.34433600  1
  C  682  1  0.91777900  0.41854200  0.31388700  1
  C  684  1  0.88030100  0.38005800  0.24109100  1
  C  686  1  0.88440100  0.37347400  0.18999100  1
  C  687  1  0.86801800  0.41423700  0.15826800  1
  C  692  1  0.66706900  0.66677800  0.77213400  1
  C  694  1  0.63219900  0.62560700  0.84436600  1
  C  695  1  0.59886200  0.59838700  0.81392800  1
  C  697  1  0.63637700  0.63660200  0.74106900  1
  C  699  1  0.63224400  0.64320900  0.68997400  1
  C  700  1  0.64862000  0.60246100  0.65823400  1
  N  146  1  0.91113500  0.91197200  0.16166200  1
  N  149  1  0.85759900  0.85142900  0.10325900  1
  N  159  1  0.60571900  0.10467300  0.66152700  1
  N  162  1  0.65898200  0.16556000  0.60328300  1
  N  172  1  0.35444600  0.65891900  0.41086600  1
  N  175  1  0.41413600  0.60476600  0.35224400  1
  N  185  1  0.16233800  0.35767100  0.91111300  1
  N  188  1  0.10239800  0.41151200  0.85234900  1
  N  198  1  0.60555900  0.91194200  0.35513900  1
  N  201  1  0.65897100  0.85124200  0.41346700  1
  N  211  1  0.91112400  0.10476100  0.85521100  1
  N  214  1  0.85753900  0.16526700  0.91348600  1
  N  224  1  0.16232200  0.65890400  0.10578300  1
  N  227  1  0.10209000  0.60533100  0.16450800  1
  N  237  1  0.35461400  0.35809700  0.60624200  1
  N  240  1  0.41486100  0.41165100  0.66488700  1
  N  250  1  0.10653500  0.10515200  0.85575700  1
  N  253  1  0.15963600  0.16607500  0.91409100  1
  N  263  1  0.41020400  0.91164300  0.35582100  1
  N  266  1  0.35745300  0.85024500  0.41396400  1
  N  276  1  0.66285000  0.35689700  0.60520000  1
  N  279  1  0.60367900  0.41155300  0.66388900  1
  N  289  1  0.85393300  0.65987600  0.10502900  1
  N  292  1  0.91326500  0.60551400  0.16387500  1
  N  302  1  0.41028300  0.10527100  0.66082500  1
  N  305  1  0.35748100  0.16659600  0.60261400  1
  N  315  1  0.10658000  0.91172500  0.16116400  1
  N  318  1  0.15937300  0.85052500  0.10282800  1
  N  328  1  0.85408600  0.35686600  0.91145300  1
  N  331  1  0.91361300  0.41111200  0.85265900  1
  N  341  1  0.66280500  0.65968900  0.41138500  1
  N  344  1  0.60295400  0.60570100  0.35268200  1
  N  498  1  0.91113500  0.91197200  0.57272900  1
  N  501  1  0.85759900  0.85142900  0.51432600  1
  N  511  1  0.60571900  0.10467300  0.07259440  1
  N  514  1  0.65898200  0.16556000  0.01435040  1
  N  524  1  0.35444600  0.65891900  0.82193300  1
  N  527  1  0.41413600  0.60476600  0.76331100  1
  N  537  1  0.16233800  0.35767100  0.32218000  1
  N  540  1  0.10239800  0.41151200  0.26341600  1
  N  550  1  0.60555900  0.91194200  0.76620600  1
  N  553  1  0.65897100  0.85124200  0.82453400  1
  N  563  1  0.91112400  0.10476100  0.26627800  1
  N  566  1  0.85753900  0.16526700  0.32455300  1
  N  576  1  0.16232200  0.65890400  0.51685000  1
  N  579  1  0.10209000  0.60533100  0.57557500  1
  N  589  1  0.35461400  0.35809700  0.01730940  1
  N  592  1  0.41486100  0.41165100  0.07595440  1
  N  602  1  0.10653500  0.10515200  0.26682400  1
  N  605  1  0.15963600  0.16607500  0.32515800  1
  N  615  1  0.41020400  0.91164300  0.76688800  1
  N  618  1  0.35745300  0.85024500  0.82503100  1
  N  628  1  0.66285000  0.35689700  0.01626740  1
  N  631  1  0.60367900  0.41155300  0.07495640  1
  N  641  1  0.85393300  0.65987600  0.51609600  1
  N  644  1  0.91326500  0.60551400  0.57494200  1
  N  654  1  0.41028300  0.10527100  0.07189240  1
  N  657  1  0.35748100  0.16659600  0.01368140  1
  N  667  1  0.10658000  0.91172500  0.57223100  1
  N  670  1  0.15937300  0.85052500  0.51389500  1
  N  680  1  0.85408600  0.35686600  0.32252000  1
  N  683  1  0.91361300  0.41111200  0.26372600  1
  N  693  1  0.66280500  0.65968900  0.82245200  1
  N  696  1  0.60295400  0.60570100  0.76374900  1
  O  157  1  0.91955800  0.84338400  0.01712600  1
  O  170  1  0.59864500  0.17418900  0.51620000  1
  O  183  1  0.42275300  0.66504800  0.26539400  1
  O  196  1  0.09397000  0.35042500  0.76608800  1
  O  209  1  0.59861500  0.84275200  0.50062100  1
  O  222  1  0.91937500  0.17348200  0.99964900  1
  O  235  1  0.09316100  0.66498800  0.25163100  1
  O  248  1  0.42383300  0.35206600  0.75202200  1
  O  261  1  0.09704200  0.17439700  0.99982100  1
  O  274  1  0.41845200  0.84135400  0.50065400  1
  O  287  1  0.59524800  0.35177500  0.75106500  1
  O  300  1  0.92140400  0.66589200  0.25054500  1
  O  313  1  0.41856800  0.17545000  0.51593500  1
  O  326  1  0.09678800  0.84232200  0.01714800  1
  O  339  1  0.92236500  0.35200700  0.76516100  1
  O  352  1  0.59427300  0.66467400  0.26516700  1
  O  509  1  0.91955800  0.84338400  0.42819300  1
  O  522  1  0.59864500  0.17418900  0.92726700  1
  O  535  1  0.42275300  0.66504800  0.67646100  1
  O  548  1  0.09397000  0.35042500  0.17715500  1
  O  561  1  0.59861500  0.84275200  0.91168800  1
  O  574  1  0.91937500  0.17348200  0.41071600  1
  O  587  1  0.09316100  0.66498800  0.66269800  1
  O  600  1  0.42383300  0.35206600  0.16308900  1
  O  613  1  0.09704200  0.17439700  0.41088800  1
  O  626  1  0.41845200  0.84135400  0.91172100  1
  O  639  1  0.59524800  0.35177500  0.16213200  1
  O  652  1  0.92140400  0.66589200  0.66161200  1
  O  665  1  0.41856800  0.17545000  0.92700200  1
  O  678  1  0.09678800  0.84232200  0.42821500  1
  O  691  1  0.92236500  0.35200700  0.17622800  1
  O  704  1  0.59427300  0.66467400  0.67623400  1
