# generated using pymatgen
data_SnH13(C4O)2
_symmetry_space_group_name_H-M   'P 1'
_cell_length_a   10.00272000
_cell_length_b   10.25495000
_cell_length_c   23.14576000
_cell_angle_alpha   90.00000000
_cell_angle_beta   90.00000000
_cell_angle_gamma   90.00000000
_symmetry_Int_Tables_number   1
_chemical_formula_structural   SnH13(C4O)2
_chemical_formula_sum   'Sn8 H104 C64 O16'
_cell_volume   2374.23173054
_cell_formula_units_Z   8
loop_
 _symmetry_equiv_pos_site_id
 _symmetry_equiv_pos_as_xyz
  1  'x, y, z'
loop_
 _atom_site_type_symbol
 _atom_site_label
 _atom_site_symmetry_multiplicity
 _atom_site_fract_x
 _atom_site_fract_y
 _atom_site_fract_z
 _atom_site_occupancy
  Sn  Sn0  1  0.20103000  0.67388000  0.97326000  1
  Sn  Sn1  1  0.32754000  0.45039000  0.76525000  1
  Sn  Sn2  1  0.82754000  0.54961000  0.73475000  1
  Sn  Sn3  1  0.70102000  0.32612000  0.52674000  1
  Sn  Sn4  1  0.79898000  0.82612000  0.47326000  1
  Sn  Sn5  1  0.67246000  0.04961000  0.26526000  1
  Sn  Sn6  1  0.17246000  0.95039000  0.23475000  1
  Sn  Sn7  1  0.29898000  0.17388000  0.02674000  1
  H  H8  1  0.89012000  0.38786000  0.87483000  1
  H  H9  1  0.11233000  0.20114000  0.91425000  1
  H  H10  1  0.96684000  0.23920000  0.95346000  1
  H  H11  1  0.07959000  0.12157000  0.79942000  1
  H  H12  1  0.96964000  0.92512000  0.75888000  1
  H  H13  1  0.72786000  0.88471000  0.77729000  1
  H  H14  1  0.59780000  0.04081000  0.83795000  1
  H  H15  1  0.70752000  0.23874000  0.87672000  1
  H  H16  1  0.39012000  0.61215000  0.62517000  1
  H  H17  1  0.61233000  0.79886000  0.58575000  1
  H  H18  1  0.46684000  0.76081000  0.54654000  1
  H  H19  1  0.57959000  0.87844000  0.70058000  1
  H  H20  1  0.46964000  0.07488000  0.74112000  1
  H  H21  1  0.22786000  0.11529000  0.72271000  1
  H  H22  1  0.09780000  0.95920000  0.66205000  1
  H  H23  1  0.20752000  0.76126000  0.62328000  1
  H  H24  1  0.10988000  0.11215000  0.37483000  1
  H  H25  1  0.88767000  0.29887000  0.41425000  1
  H  H26  1  0.03317000  0.26081000  0.45347000  1
  H  H27  1  0.92041000  0.37844000  0.29942000  1
  H  H28  1  0.03036000  0.57488000  0.25888000  1
  H  H29  1  0.27215000  0.61529000  0.27729000  1
  H  H30  1  0.40220000  0.45920000  0.33795000  1
  H  H31  1  0.29248000  0.26126000  0.37672000  1
  H  H32  1  0.60988000  0.88786000  0.12517000  1
  H  H33  1  0.38767000  0.70114000  0.08576000  1
  H  H34  1  0.53316000  0.73919000  0.04654000  1
  H  H35  1  0.42041000  0.62156000  0.20058000  1
  H  H36  1  0.53036000  0.42512000  0.24112000  1
  H  H37  1  0.77215000  0.38471000  0.22271000  1
  H  H38  1  0.90220000  0.54080000  0.16205000  1
  H  H39  1  0.79248000  0.73874000  0.12328000  1
  H  H40  1  0.05147000  0.88658000  0.94569000  1
  H  H41  1  0.16157000  0.85160000  0.88728000  1
  H  H42  1  0.01296000  0.75714000  0.89650000  1
  H  H43  1  0.15031000  0.71893000  0.08716000  1
  H  H44  1  0.01645000  0.62478000  0.05666000  1
  H  H45  1  0.16991000  0.54692000  0.07535000  1
  H  H46  1  0.38186000  0.53403000  0.91078000  1
  H  H47  1  0.45429000  0.68736000  0.93128000  1
  H  H48  1  0.44457000  0.55627000  0.98220000  1
  H  H49  1  0.37577000  0.68122000  0.81823000  1
  H  H50  1  0.26127000  0.70751000  0.76027000  1
  H  H51  1  0.20243000  0.63943000  0.82681000  1
  H  H52  1  0.23276000  0.46270000  0.65479000  1
  H  H53  1  0.32352000  0.31459000  0.66434000  1
  H  H54  1  0.15566000  0.32903000  0.69099000  1
  H  H55  1  0.45054000  0.29600000  0.84508000  1
  H  H56  1  0.51910000  0.26322000  0.77536000  1
  H  H57  1  0.56943000  0.40541000  0.81308000  1
  H  H58  1  0.87577000  0.31878000  0.68177000  1
  H  H59  1  0.76127000  0.29249000  0.73973000  1
  H  H60  1  0.70243000  0.36058000  0.67319000  1
  H  H61  1  0.73276000  0.53730000  0.84521000  1
  H  H62  1  0.82352000  0.68542000  0.83566000  1
  H  H63  1  0.65566000  0.67098000  0.80901000  1
  H  H64  1  0.95054000  0.70400000  0.65492000  1
  H  H65  1  0.01910000  0.73679000  0.72464000  1
  H  H66  1  0.06943000  0.59459000  0.68692000  1
  H  H67  1  0.55147000  0.11343000  0.55431000  1
  H  H68  1  0.66157000  0.14840000  0.61272000  1
  H  H69  1  0.51295000  0.24286000  0.60350000  1
  H  H70  1  0.65031000  0.28108000  0.41284000  1
  H  H71  1  0.51645000  0.37523000  0.44334000  1
  H  H72  1  0.66991000  0.45309000  0.42465000  1
  H  H73  1  0.88186000  0.46597000  0.58922000  1
  H  H74  1  0.95428000  0.31264000  0.56872000  1
  H  H75  1  0.94457000  0.44373000  0.51780000  1
  H  H76  1  0.94853000  0.61342000  0.44569000  1
  H  H77  1  0.83843000  0.64840000  0.38728000  1
  H  H78  1  0.98705000  0.74286000  0.39650000  1
  H  H79  1  0.84969000  0.78108000  0.58716000  1
  H  H80  1  0.98355000  0.87523000  0.55666000  1
  H  H81  1  0.83009000  0.95309000  0.57535000  1
  H  H82  1  0.61814000  0.96597000  0.41078000  1
  H  H83  1  0.54572000  0.81264000  0.43128000  1
  H  H84  1  0.55543000  0.94373000  0.48220000  1
  H  H85  1  0.62423000  0.81878000  0.31823000  1
  H  H86  1  0.73873000  0.79249000  0.26027000  1
  H  H87  1  0.79757000  0.86057000  0.32681000  1
  H  H88  1  0.76724000  0.03731000  0.15479000  1
  H  H89  1  0.67648000  0.18542000  0.16434000  1
  H  H90  1  0.84434000  0.17098000  0.19100000  1
  H  H91  1  0.54946000  0.20400000  0.34508000  1
  H  H92  1  0.48090000  0.23679000  0.27536000  1
  H  H93  1  0.43057000  0.09459000  0.31308000  1
  H  H94  1  0.12424000  0.18122000  0.18177000  1
  H  H95  1  0.23873000  0.20751000  0.23973000  1
  H  H96  1  0.29757000  0.13943000  0.17319000  1
  H  H97  1  0.26725000  0.96270000  0.34521000  1
  H  H98  1  0.17648000  0.81458000  0.33567000  1
  H  H99  1  0.34434000  0.82902000  0.30901000  1
  H  H100  1  0.04946000  0.79600000  0.15493000  1
  H  H101  1  0.98090000  0.76321000  0.22464000  1
  H  H102  1  0.93057000  0.90541000  0.18692000  1
  H  H103  1  0.44853000  0.38658000  0.05431000  1
  H  H104  1  0.33843000  0.35160000  0.11272000  1
  H  H105  1  0.48705000  0.25714000  0.10351000  1
  H  H106  1  0.34969000  0.21893000  0.91284000  1
  H  H107  1  0.48355000  0.12478000  0.94334000  1
  H  H108  1  0.33009000  0.04692000  0.92465000  1
  H  H109  1  0.11814000  0.03404000  0.08922000  1
  H  H110  1  0.04572000  0.18737000  0.06872000  1
  H  H111  1  0.05543000  0.05627000  0.01780000  1
  C  C112  1  0.06234000  0.37762000  0.82238000  1
  C  C113  1  0.96720000  0.31454000  0.86584000  1
  C  C114  1  0.03921000  0.27883000  0.92224000  1
  C  C115  1  0.11197000  0.39158000  0.95075000  1
  C  C116  1  0.90070000  0.19440000  0.84025000  1
  C  C117  1  0.97381000  0.10434000  0.80737000  1
  C  C118  1  0.91184000  0.99353000  0.78472000  1
  C  C119  1  0.77618000  0.97058000  0.79522000  1
  C  C120  1  0.70313000  0.05830000  0.82898000  1
  C  C121  1  0.76527000  0.16967000  0.85118000  1
  C  C122  1  0.56235000  0.62239000  0.67762000  1
  C  C123  1  0.46720000  0.68546000  0.63417000  1
  C  C124  1  0.53920000  0.72117000  0.57776000  1
  C  C125  1  0.61196000  0.60842000  0.54925000  1
  C  C126  1  0.40070000  0.80561000  0.65975000  1
  C  C127  1  0.47381000  0.89566000  0.69264000  1
  C  C128  1  0.41184000  0.00647000  0.71528000  1
  C  C129  1  0.27618000  0.02943000  0.70479000  1
  C  C130  1  0.20314000  0.94170000  0.67102000  1
  C  C131  1  0.26527000  0.83033000  0.64882000  1
  C  C132  1  0.93766000  0.12239000  0.32238000  1
  C  C133  1  0.03280000  0.18546000  0.36584000  1
  C  C134  1  0.96080000  0.22118000  0.42224000  1
  C  C135  1  0.88804000  0.10842000  0.45075000  1
  C  C136  1  0.09931000  0.30561000  0.34025000  1
  C  C137  1  0.02619000  0.39566000  0.30737000  1
  C  C138  1  0.08816000  0.50648000  0.28472000  1
  C  C139  1  0.22383000  0.52942000  0.29522000  1
  C  C140  1  0.29687000  0.44171000  0.32898000  1
  C  C141  1  0.23473000  0.33033000  0.35118000  1
  C  C142  1  0.43766000  0.87762000  0.17763000  1
  C  C143  1  0.53280000  0.81454000  0.13417000  1
  C  C144  1  0.46080000  0.77883000  0.07776000  1
  C  C145  1  0.38804000  0.89158000  0.04925000  1
  C  C146  1  0.59930000  0.69440000  0.15975000  1
  C  C147  1  0.52619000  0.60434000  0.19264000  1
  C  C148  1  0.58816000  0.49353000  0.21528000  1
  C  C149  1  0.72383000  0.47058000  0.20479000  1
  C  C150  1  0.79686000  0.55830000  0.17102000  1
  C  C151  1  0.73473000  0.66967000  0.14883000  1
  C  C152  1  0.09348000  0.80850000  0.91902000  1
  C  C153  1  0.12517000  0.63697000  0.05896000  1
  C  C154  1  0.39446000  0.60432000  0.94595000  1
  C  C155  1  0.28638000  0.64379000  0.79660000  1
  C  C156  1  0.25016000  0.38036000  0.68393000  1
  C  C157  1  0.48538000  0.34001000  0.80479000  1
  C  C158  1  0.78638000  0.35622000  0.70340000  1
  C  C159  1  0.75016000  0.61964000  0.81607000  1
  C  C160  1  0.98538000  0.65999000  0.69521000  1
  C  C161  1  0.59348000  0.19151000  0.58098000  1
  C  C162  1  0.62517000  0.36304000  0.44105000  1
  C  C163  1  0.89446000  0.39568000  0.55405000  1
  C  C164  1  0.90652000  0.69150000  0.41903000  1
  C  C165  1  0.87483000  0.86303000  0.55895000  1
  C  C166  1  0.60554000  0.89568000  0.44595000  1
  C  C167  1  0.71362000  0.85621000  0.29661000  1
  C  C168  1  0.74984000  0.11964000  0.18393000  1
  C  C169  1  0.51462000  0.15999000  0.30479000  1
  C  C170  1  0.21362000  0.14379000  0.20340000  1
  C  C171  1  0.24984000  0.88036000  0.31608000  1
  C  C172  1  0.01462000  0.84001000  0.19521000  1
  C  C173  1  0.40652000  0.30850000  0.08098000  1
  C  C174  1  0.37483000  0.13697000  0.94105000  1
  C  C175  1  0.10555000  0.10432000  0.05405000  1
  O  O176  1  0.01994000  0.45790000  0.78538000  1
  O  O177  1  0.18619000  0.34350000  0.82531000  1
  O  O178  1  0.08609000  0.50680000  0.93198000  1
  O  O179  1  0.19358000  0.37001000  0.99156000  1
  O  O180  1  0.51994000  0.54210000  0.71462000  1
  O  O181  1  0.68619000  0.65650000  0.67469000  1
  O  O182  1  0.58609000  0.49321000  0.56802000  1
  O  O183  1  0.69358000  0.63000000  0.50844000  1
  O  O184  1  0.98006000  0.04210000  0.28538000  1
  O  O185  1  0.81381000  0.15651000  0.32531000  1
  O  O186  1  0.91391000  0.99320000  0.43198000  1
  O  O187  1  0.80642000  0.13000000  0.49157000  1
  O  O188  1  0.48006000  0.95790000  0.21462000  1
  O  O189  1  0.31381000  0.84350000  0.17469000  1
  O  O190  1  0.41391000  0.00680000  0.06802000  1
  O  O191  1  0.30642000  0.87000000  0.00844000  1
