# generated using pymatgen
data_GdH8C17O8
_symmetry_space_group_name_H-M   'P 1'
_cell_length_a   9.58859000
_cell_length_b   13.16304000
_cell_length_c   14.61674000
_cell_angle_alpha   89.99422000
_cell_angle_beta   90.31632000
_cell_angle_gamma   89.99133000
_symmetry_Int_Tables_number   1
_chemical_formula_structural   GdH8C17O8
_chemical_formula_sum   'Gd4 H32 C68 O32'
_cell_volume   1844.82360153
_cell_formula_units_Z   4
loop_
 _symmetry_equiv_pos_site_id
 _symmetry_equiv_pos_as_xyz
  1  'x, y, z'
loop_
 _atom_site_type_symbol
 _atom_site_label
 _atom_site_symmetry_multiplicity
 _atom_site_fract_x
 _atom_site_fract_y
 _atom_site_fract_z
 _atom_site_occupancy
  Gd  Gd0  1  0.24998000  0.00214000  0.10888000  1
  Gd  Gd1  1  0.24657000  0.50225000  0.39139000  1
  Gd  Gd2  1  0.74672000  0.99793000  0.89134000  1
  Gd  Gd3  1  0.74828000  0.49767000  0.60878000  1
  H  H4  1  0.10513000  0.25224000  0.33701000  1
  H  H5  1  0.81993000  0.19178000  0.55713000  1
  H  H6  1  0.88608000  0.96743000  0.34526000  1
  H  H7  1  0.82426000  0.95037000  0.55653000  1
  H  H8  1  0.69371000  0.04139000  0.56241000  1
  H  H9  1  0.61151000  0.03438000  0.35031000  1
  H  H10  1  0.38318000  0.75374000  0.34255000  1
  H  H11  1  0.69080000  0.80275000  0.55419000  1
  H  H12  1  0.39198000  0.75211000  0.16405000  1
  H  H13  1  0.67851000  0.69219000  0.94465000  1
  H  H14  1  0.60961000  0.46659000  0.15513000  1
  H  H15  1  0.67344000  0.45089000  0.94414000  1
  H  H16  1  0.80394000  0.54202000  0.93894000  1
  H  H17  1  0.88680000  0.53421000  0.15030000  1
  H  H18  1  0.11542000  0.25368000  0.15739000  1
  H  H19  1  0.80738000  0.30307000  0.94605000  1
  H  H20  1  0.89133000  0.74831000  0.66418000  1
  H  H21  1  0.17855000  0.80749000  0.44499000  1
  H  H22  1  0.10951000  0.03347000  0.65514000  1
  H  H23  1  0.17357000  0.04899000  0.44420000  1
  H  H24  1  0.30394000  0.95767000  0.43886000  1
  H  H25  1  0.38681000  0.96579000  0.65040000  1
  H  H26  1  0.61539000  0.24629000  0.65728000  1
  H  H27  1  0.30776000  0.19672000  0.44577000  1
  H  H28  1  0.60441000  0.24713000  0.83720000  1
  H  H29  1  0.31918000  0.30844000  0.05712000  1
  H  H30  1  0.38594000  0.53226000  0.84482000  1
  H  H31  1  0.32301000  0.54996000  0.05520000  1
  H  H32  1  0.19238000  0.45901000  0.06157000  1
  H  H33  1  0.10768000  0.46574000  0.84944000  1
  H  H34  1  0.88113000  0.74729000  0.84295000  1
  H  H35  1  0.19141000  0.69722000  0.05268000  1
  C  C36  1  0.00053000  0.10644000  0.33286000  1
  C  C37  1  0.03003000  0.20264000  0.37042000  1
  C  C38  1  0.96162000  0.23395000  0.45026000  1
  C  C39  1  0.87099000  0.16715000  0.49455000  1
  C  C40  1  0.84453000  0.06953000  0.45905000  1
  C  C41  1  0.90652000  0.04136000  0.37595000  1
  C  C42  1  0.75574000  0.99746000  0.51269000  1
  C  C43  1  0.65974000  0.92854000  0.46049000  1
  C  C44  1  0.59124000  0.96009000  0.38022000  1
  C  C45  1  0.49241000  0.89723000  0.33842000  1
  C  C46  1  0.46218000  0.80112000  0.37517000  1
  C  C47  1  0.53647000  0.76656000  0.45208000  1
  C  C48  1  0.63390000  0.83029000  0.49445000  1
  C  C49  1  0.07735000  0.07181000  0.24949000  1
  C  C50  1  0.98234000  0.33903000  0.48704000  1
  C  C51  1  0.41437000  0.93332000  0.25564000  1
  C  C52  1  0.51561000  0.66115000  0.48753000  1
  C  C53  1  0.49558000  0.60599000  0.16771000  1
  C  C54  1  0.46693000  0.70252000  0.13050000  1
  C  C55  1  0.53599000  0.73413000  0.05101000  1
  C  C56  1  0.62688000  0.66737000  0.00695000  1
  C  C57  1  0.65270000  0.56948000  0.04213000  1
  C  C58  1  0.58971000  0.54080000  0.12477000  1
  C  C59  1  0.74180000  0.49769000  0.98830000  1
  C  C60  1  0.83807000  0.42850000  0.04015000  1
  C  C61  1  0.90701000  0.45995000  0.12029000  1
  C  C62  1  0.00631000  0.39712000  0.16172000  1
  C  C63  1  0.03620000  0.30102000  0.12496000  1
  C  C64  1  0.96155000  0.26647000  0.04817000  1
  C  C65  1  0.86412000  0.33040000  0.00592000  1
  C  C66  1  0.41771000  0.57158000  0.25061000  1
  C  C67  1  0.51478000  0.83887000  0.01347000  1
  C  C68  1  0.08455000  0.43313000  0.24439000  1
  C  C69  1  0.98251000  0.16115000  0.01252000  1
  C  C70  1  0.99528000  0.89420000  0.66760000  1
  C  C71  1  0.96652000  0.79766000  0.63058000  1
  C  C72  1  0.03570000  0.76593000  0.55122000  1
  C  C73  1  0.12681000  0.83257000  0.50716000  1
  C  C74  1  0.15289000  0.93045000  0.54224000  1
  C  C75  1  0.08971000  0.95925000  0.62477000  1
  C  C76  1  0.24202000  0.00212000  0.48827000  1
  C  C77  1  0.33838000  0.07128000  0.54004000  1
  C  C78  1  0.40717000  0.03995000  0.62024000  1
  C  C79  1  0.50634000  0.10284000  0.66167000  1
  C  C80  1  0.53635000  0.19889000  0.62477000  1
  C  C81  1  0.46188000  0.23327000  0.54784000  1
  C  C82  1  0.36445000  0.16934000  0.50566000  1
  C  C83  1  0.91742000  0.92854000  0.75052000  1
  C  C84  1  0.01436000  0.66115000  0.51386000  1
  C  C85  1  0.58453000  0.06690000  0.74439000  1
  C  C86  1  0.48249000  0.33870000  0.51229000  1
  C  C87  1  0.50040000  0.39298000  0.83285000  1
  C  C88  1  0.52957000  0.29690000  0.87061000  1
  C  C89  1  0.46108000  0.26581000  0.95043000  1
  C  C90  1  0.37022000  0.33276000  0.99442000  1
  C  C91  1  0.34375000  0.43026000  0.95853000  1
  C  C92  1  0.40633000  0.45835000  0.87561000  1
  C  C93  1  0.25450000  0.50256000  0.01165000  1
  C  C94  1  0.15837000  0.57148000  0.95929000  1
  C  C95  1  0.08837000  0.54011000  0.87946000  1
  C  C96  1  0.98897000  0.60322000  0.83824000  1
  C  C97  1  0.96030000  0.69956000  0.87498000  1
  C  C98  1  0.03625000  0.73398000  0.95130000  1
  C  C99  1  0.13365000  0.66985000  0.99323000  1
  C  C100  1  0.57695000  0.42668000  0.74927000  1
  C  C101  1  0.48229000  0.16091000  0.98757000  1
  C  C102  1  0.90950000  0.56710000  0.75589000  1
  C  C103  1  0.01615000  0.83925000  0.98724000  1
  O  O104  1  0.02885000  0.00076000  0.20003000  1
  O  O105  1  0.19412000  0.11573000  0.23166000  1
  O  O106  1  0.08992000  0.38868000  0.46392000  1
  O  O107  1  0.88963000  0.37377000  0.54053000  1
  O  O108  1  0.46388000  0.00520000  0.20808000  1
  O  O109  1  0.29805000  0.88958000  0.23588000  1
  O  O110  1  0.40114000  0.61581000  0.47217000  1
  O  O111  1  0.61558000  0.62130000  0.53237000  1
  O  O112  1  0.46512000  0.50015000  0.30010000  1
  O  O113  1  0.30129000  0.61601000  0.26825000  1
  O  O114  1  0.40753000  0.88875000  0.03651000  1
  O  O115  1  0.60626000  0.87330000  0.95892000  1
  O  O116  1  0.03515000  0.50517000  0.29188000  1
  O  O117  1  0.20094000  0.38948000  0.26418000  1
  O  O118  1  0.09726000  0.11598000  0.02774000  1
  O  O119  1  0.88261000  0.12131000  0.96758000  1
  O  O120  1  0.96510000  0.99996000  0.79989000  1
  O  O121  1  0.80110000  0.88408000  0.76827000  1
  O  O122  1  0.90731000  0.61110000  0.53690000  1
  O  O123  1  0.10546000  0.62661000  0.45908000  1
  O  O124  1  0.53509000  0.99490000  0.79188000  1
  O  O125  1  0.70087000  0.11059000  0.76418000  1
  O  O126  1  0.59717000  0.38390000  0.52758000  1
  O  O127  1  0.38251000  0.37870000  0.46758000  1
  O  O128  1  0.52779000  0.49697000  0.69933000  1
  O  O129  1  0.69407000  0.38333000  0.73154000  1
  O  O130  1  0.59011000  0.11135000  0.96492000  1
  O  O131  1  0.38958000  0.12633000  0.04114000  1
  O  O132  1  0.95836000  0.49489000  0.70835000  1
  O  O133  1  0.79295000  0.61063000  0.73619000  1
  O  O134  1  0.90158000  0.88463000  0.97226000  1
  O  O135  1  0.11638000  0.87860000  0.03229000  1
