# generated using pymatgen
data_H18C28N3
_symmetry_space_group_name_H-M   'P 1'
_cell_length_a   42.63200000
_cell_length_b   42.63200000
_cell_length_c   42.63200000
_cell_angle_alpha   90.00000000
_cell_angle_beta   90.00000000
_cell_angle_gamma   90.00000000
_symmetry_Int_Tables_number   1
_chemical_formula_structural   H18C28N3
_chemical_formula_sum   'H216 C336 N36'
_cell_volume   77483.12385997
_cell_formula_units_Z   12
loop_
 _symmetry_equiv_pos_site_id
 _symmetry_equiv_pos_as_xyz
  1  'x, y, z'
loop_
 _atom_site_type_symbol
 _atom_site_label
 _atom_site_symmetry_multiplicity
 _atom_site_fract_x
 _atom_site_fract_y
 _atom_site_fract_z
 _atom_site_occupancy
  H  49  1  0.05463500  0.68238600  0.49613400  1
  H  50  1  0.05405400  0.62610700  0.49549800  1
  H  51  1  0.95746600  0.68314400  0.51545800  1
  H  52  1  0.95679000  0.62687600  0.51416800  1
  H  53  1  0.00574100  0.61016800  0.56777300  1
  H  54  1  0.00532700  0.56821100  0.60975100  1
  H  55  1  0.00471400  0.52478400  0.52437300  1
  H  56  1  0.00470500  0.48601700  0.48560700  1
  H  57  1  0.00476800  0.61113200  0.44137500  1
  H  58  1  0.00477300  0.56901400  0.39925600  1
  H  59  1  0.05283800  0.49614600  0.38368300  1
  H  60  1  0.05234000  0.49475000  0.32742100  1
  H  61  1  0.95559200  0.51491100  0.38411000  1
  H  62  1  0.95519000  0.51417500  0.32782900  1
  H  63  1  0.00382300  0.44261800  0.40022000  1
  H  64  1  0.00421900  0.40064300  0.44217200  1
  H  65  1  0.00504200  0.44178800  0.61070300  1
  H  66  1  0.00440500  0.39968100  0.56859400  1
  H  67  1  0.95561000  0.38460100  0.49580100  1
  H  68  1  0.95517200  0.32831400  0.49608500  1
  H  69  1  0.05289400  0.38394600  0.51434600  1
  H  70  1  0.05235500  0.32768300  0.51531200  1
  H  71  1  0.05398400  0.51441800  0.62565600  1
  H  72  1  0.05460500  0.51398900  0.68193800  1
  H  73  1  0.95737200  0.49502000  0.68283600  1
  H  74  1  0.95665700  0.49612200  0.62657400  1
  H  123  1  0.49486500  0.05228600  0.68308500  1
  H  124  1  0.49594400  0.05285000  0.62682000  1
  H  125  1  0.51418400  0.95511500  0.68245200  1
  H  126  1  0.51460600  0.95558500  0.62616300  1
  H  127  1  0.56820000  0.00474000  0.61017000  1
  H  128  1  0.61017000  0.00468800  0.56819700  1
  H  129  1  0.52477900  0.00472400  0.52478400  1
  H  130  1  0.48601500  0.00474900  0.48602200  1
  H  131  1  0.44179900  0.00387000  0.61112700  1
  H  132  1  0.39967600  0.00421500  0.56902500  1
  H  133  1  0.38406100  0.05286000  0.49629600  1
  H  134  1  0.32780100  0.05237000  0.49487900  1
  H  135  1  0.38447600  0.95556100  0.51477000  1
  H  136  1  0.32819500  0.95517200  0.51403400  1
  H  137  1  0.40063500  0.00440200  0.44260400  1
  H  138  1  0.44259000  0.00515500  0.40064500  1
  H  139  1  0.61111800  0.00567800  0.44179700  1
  H  140  1  0.56900900  0.00537600  0.39967600  1
  H  141  1  0.49635900  0.95680400  0.38388300  1
  H  142  1  0.49494500  0.95750800  0.32762000  1
  H  143  1  0.51467200  0.05413000  0.38466900  1
  H  144  1  0.51393300  0.05473700  0.32839400  1
  H  145  1  0.62604400  0.05395600  0.51461800  1
  H  146  1  0.68233000  0.05456200  0.51416500  1
  H  147  1  0.68319300  0.95740200  0.49480900  1
  H  148  1  0.62692500  0.95669900  0.49591400  1
  H  197  1  0.68310400  0.49487900  0.05224600  1
  H  198  1  0.62683600  0.49595300  0.05283700  1
  H  199  1  0.68241900  0.51417500  0.95507100  1
  H  200  1  0.62613300  0.51459400  0.95556800  1
  H  201  1  0.61016300  0.56819700  0.00475600  1
  H  202  1  0.56818800  0.61016800  0.00470500  1
  H  203  1  0.52477700  0.52477700  0.00471900  1
  H  204  1  0.48601500  0.48601000  0.00474700  1
  H  205  1  0.61112300  0.44179900  0.00385600  1
  H  206  1  0.56901800  0.39967100  0.00420100  1
  H  207  1  0.49631200  0.38404700  0.05286500  1
  H  208  1  0.49490700  0.32778600  0.05236800  1
  H  209  1  0.51474500  0.38447900  0.95555900  1
  H  210  1  0.51401700  0.32819900  0.95516000  1
  H  211  1  0.44259900  0.40062800  0.00442600  1
  H  212  1  0.40064000  0.44258300  0.00517500  1
  H  213  1  0.44179000  0.61111100  0.00566400  1
  H  214  1  0.39966700  0.56900200  0.00536100  1
  H  215  1  0.38389900  0.49632900  0.95679300  1
  H  216  1  0.32763900  0.49491400  0.95746800  1
  H  217  1  0.38463800  0.51469100  0.05411100  1
  H  218  1  0.32836100  0.51395200  0.05468900  1
  H  219  1  0.51459000  0.62603200  0.05396600  1
  H  220  1  0.51415100  0.68231600  0.05457800  1
  H  221  1  0.49484200  0.68319500  0.95740700  1
  H  222  1  0.49593200  0.62692800  0.95670100  1
  H  271  1  0.55403000  0.18284800  0.00066800  1
  H  272  1  0.55447800  0.12675200  0.00139500  1
  H  273  1  0.45520500  0.18197100  0.00861500  1
  H  274  1  0.45575100  0.12591200  0.00849500  1
  H  275  1  0.50520200  0.11024500  0.06790800  1
  H  276  1  0.50507600  0.06830700  0.11000900  1
  H  277  1  0.50557300  0.02475800  0.02469200  1
  H  278  1  0.50560800  0.98594000  0.98601900  1
  H  279  1  0.50520900  0.11096000  0.94157200  1
  H  280  1  0.50532200  0.06871100  0.89949100  1
  H  281  1  0.55449600  0.00145400  0.88403300  1
  H  282  1  0.55410000  0.00041200  0.82793900  1
  H  283  1  0.45579600  0.00892200  0.88473200  1
  H  284  1  0.45530300  0.00872500  0.82867300  1
  H  285  1  0.50513000  0.94238300  0.90070300  1
  H  286  1  0.50525600  0.90045200  0.94279800  1
  H  287  1  0.50526600  0.94197500  0.11121400  1
  H  288  1  0.50519800  0.89973000  0.06912800  1
  H  289  1  0.45579800  0.88479300  0.00199300  1
  H  290  1  0.45527000  0.82873400  0.00165300  1
  H  291  1  0.55450600  0.88395800  0.00939800  1
  H  292  1  0.55407200  0.82785900  0.00990600  1
  H  293  1  0.55442600  0.00899800  0.12674500  1
  H  294  1  0.55398700  0.00981500  0.18284100  1
  H  295  1  0.45516500  0.00184800  0.18199400  1
  H  296  1  0.45570200  0.00187600  0.12593700  1
  H  345  1  0.00063300  0.55402000  0.18252400  1
  H  346  1  0.00136200  0.55446800  0.12642700  1
  H  347  1  0.00863600  0.45519800  0.18164800  1
  H  348  1  0.00852000  0.45574400  0.12558800  1
  H  349  1  0.06790200  0.50521200  0.10993300  1
  H  350  1  0.11000300  0.50508300  0.06799900  1
  H  351  1  0.02468800  0.50555700  0.02444500  1
  H  352  1  0.98601500  0.50560800  0.98562500  1
  H  353  1  0.94156900  0.50519800  0.11065000  1
  H  354  1  0.89948800  0.50531500  0.06840500  1
  H  355  1  0.88401900  0.55449600  0.00119100  1
  H  356  1  0.82792200  0.55409500  0.00023200  1
  H  357  1  0.88473600  0.45579400  0.00862400  1
  H  358  1  0.82867800  0.45529600  0.00851000  1
  H  359  1  0.90069600  0.50514100  0.94207800  1
  H  360  1  0.94278900  0.50526600  0.90014300  1
  H  361  1  0.11121000  0.50525200  0.94166500  1
  H  362  1  0.06912400  0.50518800  0.89941800  1
  H  363  1  0.00201000  0.45580500  0.88446400  1
  H  364  1  0.00167400  0.45528000  0.82840500  1
  H  365  1  0.00937000  0.55451000  0.88363600  1
  H  366  1  0.00988100  0.55408400  0.82753800  1
  H  367  1  0.12673000  0.55442400  0.00872800  1
  H  368  1  0.18282500  0.55399000  0.00963000  1
  H  369  1  0.18199800  0.45517000  0.00163700  1
  H  370  1  0.12594200  0.45570200  0.00158300  1
  H  419  1  0.18270800  0.00079900  0.55376500  1
  H  420  1  0.12661000  0.00158000  0.55404800  1
  H  421  1  0.18212500  0.00876900  0.45494000  1
  H  422  1  0.12606700  0.00870700  0.45532200  1
  H  423  1  0.11013100  0.06812100  0.50482900  1
  H  424  1  0.06810400  0.11014100  0.50461100  1
  H  425  1  0.02473100  0.02473400  0.50471500  1
  H  426  1  0.98597700  0.98597500  0.50474300  1
  H  427  1  0.11108600  0.94178500  0.50479000  1
  H  428  1  0.06892700  0.89962400  0.50481500  1
  H  429  1  0.00181300  0.88481100  0.55430200  1
  H  430  1  0.00154100  0.82875500  0.55485100  1
  H  431  1  0.00921200  0.88395100  0.45559700  1
  H  432  1  0.00978200  0.82784500  0.45604900  1
  H  433  1  0.94259700  0.90056500  0.50469300  1
  H  434  1  0.90057700  0.94258000  0.50490000  1
  H  435  1  0.94176900  0.11107700  0.50473300  1
  H  436  1  0.89961500  0.06891100  0.50475200  1
  H  437  1  0.88464500  0.00177000  0.45536400  1
  H  438  1  0.82858600  0.00148900  0.45500300  1
  H  439  1  0.88411200  0.00921600  0.55406900  1
  H  440  1  0.82801100  0.00978100  0.55380400  1
  H  441  1  0.00870400  0.12595800  0.55421000  1
  H  442  1  0.00874900  0.18201300  0.55472200  1
  H  443  1  0.00074800  0.18281900  0.45590100  1
  H  444  1  0.00154500  0.12671900  0.45548900  1
  H  451  1  0.03451900  0.54161200  0.28405400  1
  H  452  1  0.03561100  0.54216300  0.22828000  1
  H  453  1  0.97266600  0.46617800  0.22590300  1
  H  455  1  0.95679000  0.44217500  0.27308800  1
  H  456  1  0.96856300  0.45429700  0.30797700  1
  H  463  1  0.97554100  0.54180200  0.72613300  1
  H  464  1  0.97471100  0.54234600  0.78191200  1
  H  465  1  0.03742900  0.46616600  0.78398300  1
  H  467  1  0.05291400  0.44205500  0.73673500  1
  H  468  1  0.04100500  0.45421700  0.70190400  1
  H  475  1  0.28436600  0.03451600  0.54158100  1
  H  476  1  0.22859300  0.03566300  0.54203600  1
  H  477  1  0.22628500  0.97275500  0.46602300  1
  H  479  1  0.27348200  0.95685100  0.44208800  1
  H  480  1  0.30836400  0.96859400  0.45425500  1
  H  487  1  0.72651700  0.97549700  0.54172700  1
  H  488  1  0.78230200  0.97461200  0.54216800  1
  H  489  1  0.78428800  0.03738100  0.46602500  1
  H  491  1  0.73700500  0.05295000  0.44202700  1
  H  492  1  0.70218800  0.04107200  0.45425200  1
  H  499  1  0.54163000  0.28439700  0.03449600  1
  H  500  1  0.54218400  0.22862400  0.03558900  1
  H  501  1  0.46616800  0.22624200  0.97268700  1
  H  503  1  0.44214400  0.27341700  0.95683900  1
  H  504  1  0.45425700  0.30830800  0.96861200  1
  H  511  1  0.54177100  0.72647500  0.97551800  1
  H  512  1  0.54231500  0.78225700  0.97469000  1
  H  513  1  0.46617100  0.78432400  0.03745600  1
  H  515  1  0.44208100  0.73706600  0.05296900  1
  H  516  1  0.45425000  0.70223700  0.04105900  1
  H  523  1  0.54183900  0.03429700  0.72635500  1
  H  524  1  0.54238300  0.03537200  0.78213000  1
  H  525  1  0.46621500  0.97264400  0.78447600  1
  H  527  1  0.44217700  0.95685400  0.73728100  1
  H  528  1  0.45434400  0.96859400  0.70239700  1
  H  535  1  0.54160900  0.97558800  0.28427200  1
  H  536  1  0.54216800  0.97475300  0.22849600  1
  H  537  1  0.46611000  0.03761500  0.22639500  1
  H  539  1  0.44201800  0.05315200  0.27363900  1
  H  540  1  0.45414200  0.04121300  0.30847200  1
  H  547  1  0.03446400  0.28447600  0.46836600  1
  H  548  1  0.03560500  0.22870200  0.46773800  1
  H  549  1  0.97270500  0.22616900  0.54375100  1
  H  551  1  0.95682100  0.27329000  0.56784100  1
  H  552  1  0.96856100  0.30821000  0.55578200  1
  H  559  1  0.97549700  0.72638600  0.46852100  1
  H  560  1  0.97460800  0.78216800  0.46787800  1
  H  561  1  0.03745900  0.78443100  0.54394800  1
  H  563  1  0.05307500  0.73723200  0.56808500  1
  H  564  1  0.04117900  0.70237100  0.55599800  1
  H  571  1  0.28430000  0.54162300  0.97552700  1
  H  572  1  0.22852800  0.54218400  0.97462700  1
  H  573  1  0.22635200  0.46611000  0.03746700  1
  H  575  1  0.27358100  0.44206200  0.05312300  1
  H  576  1  0.30843200  0.45418400  0.04123800  1
  H  583  1  0.72638100  0.54181800  0.03423900  1
  H  584  1  0.78215900  0.54236000  0.03525000  1
  H  585  1  0.78443400  0.46621500  0.97249200  1
  H  587  1  0.73722500  0.44213000  0.95681800  1
  H  588  1  0.70235900  0.45429700  0.96861500  1
  C  1  1  0.00544300  0.58661800  0.56330000  1
  C  2  1  0.00527200  0.56373100  0.58619800  1
  C  3  1  0.00512000  0.53443200  0.57149300  1
  C  5  1  0.00508700  0.57190600  0.53400200  1
  C  6  1  0.00508900  0.58778800  0.50460900  1
  C  7  1  0.00492600  0.57267300  0.47490800  1
  C  9  1  0.00456900  0.53548200  0.43771600  1
  C  10  1  0.00473500  0.56466700  0.42283200  1
  C  11  1  0.00477800  0.58755600  0.44572100  1
  C  12  1  0.00442800  0.50577900  0.42260000  1
  C  13  1  0.00441400  0.47638800  0.43848500  1
  C  15  1  0.00436200  0.43889800  0.47595400  1
  C  16  1  0.00425700  0.42419300  0.44665700  1
  C  17  1  0.00409000  0.44709400  0.42377100  1
  C  18  1  0.00446100  0.42300100  0.50533600  1
  C  19  1  0.00464400  0.43812800  0.53504400  1
  C  21  1  0.00480300  0.47534200  0.57226000  1
  C  22  1  0.00487600  0.44614600  0.58712900  1
  C  23  1  0.00456600  0.42325500  0.56424000  1
  C  24  1  0.00500900  0.50505000  0.58738700  1
  C  25  1  0.00526500  0.50529400  0.62089700  1
  C  26  1  0.97739700  0.49998300  0.63804400  1
  C  27  1  0.97782800  0.49945600  0.67106600  1
  C  28  1  0.00610500  0.50417300  0.68778100  1
  C  29  1  0.03382300  0.51014900  0.67053400  1
  C  30  1  0.03347600  0.51047100  0.63751100  1
  C  31  1  0.00428700  0.38949100  0.50508300  1
  C  32  1  0.97614200  0.37280000  0.49979100  1
  C  33  1  0.97590000  0.33977500  0.50003300  1
  C  34  1  0.00365900  0.32260300  0.50602800  1
  C  35  1  0.03186600  0.33939700  0.51088100  1
  C  36  1  0.03219500  0.37242200  0.51042400  1
  C  37  1  0.00423800  0.50551900  0.38910200  1
  C  38  1  0.03215000  0.49997900  0.37210800  1
  C  39  1  0.03184700  0.49927700  0.33909000  1
  C  40  1  0.00366300  0.50407400  0.32224100  1
  C  41  1  0.97589600  0.51023400  0.33933900  1
  C  42  1  0.97611100  0.51073100  0.37235900  1
  C  43  1  0.00538400  0.62128700  0.50486200  1
  C  44  1  0.03356700  0.63793400  0.49964100  1
  C  45  1  0.97752100  0.63837900  0.51034600  1
  C  46  1  0.97792500  0.67139900  0.51096800  1
  C  47  1  0.00616800  0.68814900  0.50616600  1
  C  48  1  0.03388800  0.67095100  0.50007000  1
  C  75  1  0.56372400  0.00470300  0.58661800  1
  C  76  1  0.58661800  0.00471700  0.56372400  1
  C  77  1  0.57190100  0.00488600  0.53443200  1
  C  79  1  0.53443200  0.00454500  0.57190600  1
  C  80  1  0.50504800  0.00443300  0.58778800  1
  C  81  1  0.47533800  0.00440700  0.57267300  1
  C  83  1  0.43812400  0.00432700  0.53548000  1
  C  84  1  0.42325000  0.00424300  0.56467200  1
  C  85  1  0.44614800  0.00410200  0.58755400  1
  C  86  1  0.42299400  0.00441600  0.50577900  1
  C  87  1  0.43888800  0.00463000  0.47638800  1
  C  89  1  0.47637900  0.00488500  0.43889500  1
  C  90  1  0.44707700  0.00494800  0.42419500  1
  C  91  1  0.42418600  0.00458100  0.44708900  1
  C  92  1  0.50576800  0.00512500  0.42300100  1
  C  93  1  0.53546800  0.00519300  0.43812600  1
  C  95  1  0.57266600  0.00507800  0.47533800  1
  C  96  1  0.58754200  0.00542600  0.44614600  1
  C  97  1  0.56465800  0.00531000  0.42325200  1
  C  98  1  0.58778400  0.00503100  0.50504800  1
  C  99  1  0.62128200  0.00527400  0.50529200  1
  C  100  1  0.63840700  0.97741800  0.49986400  1
  C  101  1  0.67142700  0.97784000  0.49933400  1
  C  102  1  0.68814200  0.00609700  0.50416100  1
  C  103  1  0.67091600  0.03380000  0.51024800  1
  C  104  1  0.63789600  0.03346100  0.51059000  1
  C  105  1  0.50550300  0.00542500  0.38949100  1
  C  106  1  0.50008200  0.97755600  0.37238400  1
  C  107  1  0.49937300  0.97797900  0.33936500  1
  C  108  1  0.50404400  0.00624400  0.32261400  1
  C  109  1  0.51009100  0.03397000  0.33982200  1
  C  110  1  0.51058600  0.03363200  0.37284200  1
  C  111  1  0.38948700  0.00423100  0.50551900  1
  C  112  1  0.37248500  0.03215800  0.50005800  1
  C  113  1  0.33946500  0.03186100  0.49934800  1
  C  114  1  0.32260500  0.00367000  0.50406700  1
  C  115  1  0.33970500  0.97588900  0.51016100  1
  C  116  1  0.37272700  0.97609700  0.51065100  1
  C  117  1  0.50529400  0.00425700  0.62128900  1
  C  118  1  0.49988000  0.03215400  0.63834900  1
  C  119  1  0.51057900  0.97610700  0.63796600  1
  C  120  1  0.51026000  0.97584900  0.67098900  1
  C  121  1  0.50419100  0.00359800  0.68815200  1
  C  122  1  0.49935900  0.03181200  0.67136900  1
  C  149  1  0.58661100  0.56372200  0.00471000  1
  C  150  1  0.56371500  0.58661300  0.00472800  1
  C  151  1  0.53442500  0.57189900  0.00489100  1
  C  153  1  0.57189900  0.53442900  0.00455000  1
  C  154  1  0.58778100  0.50504500  0.00443500  1
  C  155  1  0.57266600  0.47533500  0.00440500  1
  C  157  1  0.53547300  0.43811900  0.00432300  1
  C  158  1  0.56466500  0.42324800  0.00423100  1
  C  159  1  0.58754700  0.44614400  0.00409000  1
  C  160  1  0.50577500  0.42299000  0.00442300  1
  C  161  1  0.47638400  0.43888400  0.00465300  1
  C  163  1  0.43889100  0.47637200  0.00489800  1
  C  164  1  0.42418800  0.44707000  0.00496900  1
  C  165  1  0.44708400  0.42417900  0.00460900  1
  C  166  1  0.42299400  0.50576100  0.00512800  1
  C  167  1  0.43811900  0.53546100  0.00519000  1
  C  169  1  0.47532800  0.57265900  0.00507900  1
  C  170  1  0.44613900  0.58753700  0.00541600  1
  C  171  1  0.42324300  0.56465300  0.00530000  1
  C  172  1  0.50503800  0.58777900  0.00503300  1
  C  173  1  0.50528200  0.62127700  0.00528000  1
  C  174  1  0.49986800  0.63840700  0.97742500  1
  C  175  1  0.49934100  0.67142500  0.97785200  1
  C  176  1  0.50416100  0.68814000  0.00611000  1
  C  177  1  0.51022900  0.67090700  0.03381500  1
  C  178  1  0.51056500  0.63788700  0.03347200  1
  C  179  1  0.38948400  0.50549600  0.00541300  1
  C  180  1  0.37239400  0.50006300  0.97753800  1
  C  181  1  0.33937400  0.49936900  0.97794300  1
  C  182  1  0.32260700  0.50404100  0.00619800  1
  C  183  1  0.33980100  0.51009500  0.03393100  1
  C  184  1  0.37282100  0.51059300  0.03361000  1
  C  185  1  0.50551200  0.38948000  0.00423300  1
  C  186  1  0.50006500  0.37247600  0.03216000  1
  C  187  1  0.49937600  0.33945400  0.03186100  1
  C  188  1  0.50407400  0.32260000  0.00366300  1
  C  189  1  0.51014900  0.33970700  0.97588100  1
  C  190  1  0.51063500  0.37272700  0.97609500  1
  C  191  1  0.62128200  0.50528900  0.00424500  1
  C  192  1  0.63835600  0.49988200  0.03213500  1
  C  193  1  0.63794500  0.51057400  0.97608600  1
  C  194  1  0.67096700  0.51024600  0.97580900  1
  C  195  1  0.68814500  0.50418900  0.00355100  1
  C  196  1  0.67137600  0.49935500  0.03177400  1
  C  223  1  0.50526800  0.08667400  0.06351300  1
  C  224  1  0.50521600  0.06381800  0.08645600  1
  C  225  1  0.50537800  0.03450000  0.07178900  1
  C  227  1  0.50536200  0.07189300  0.03425300  1
  C  228  1  0.50538800  0.08768700  0.00483100  1
  C  229  1  0.50542300  0.07255000  0.97514700  1
  C  231  1  0.50539200  0.03529500  0.93803700  1
  C  232  1  0.50535500  0.06444500  0.92308300  1
  C  233  1  0.50531000  0.08738500  0.94593500  1
  C  234  1  0.50540200  0.00555400  0.92301700  1
  C  235  1  0.50542800  0.97619300  0.93892300  1
  C  237  1  0.50539900  0.93880600  0.97645400  1
  C  238  1  0.50531700  0.92402100  0.94719600  1
  C  239  1  0.50526800  0.94687500  0.92425400  1
  C  240  1  0.50541800  0.92301300  0.00587500  1
  C  241  1  0.50543500  0.93814500  0.03556000  1
  C  243  1  0.50536700  0.97539800  0.07267300  1
  C  244  1  0.50531700  0.94624400  0.08762200  1
  C  245  1  0.50530100  0.92330600  0.06476900  1
  C  246  1  0.50535300  0.00513700  0.08769600  1
  C  247  1  0.50510600  0.00545200  0.12116100  1
  C  248  1  0.47653100  0.00356500  0.13777500  1
  C  249  1  0.47630400  0.00379200  0.17079300  1
  C  250  1  0.50452500  0.00593400  0.18825700  1
  C  251  1  0.53305700  0.00773800  0.17127700  1
  C  252  1  0.53339500  0.00752000  0.13824800  1
  C  253  1  0.50519800  0.88955000  0.00568200  1
  C  254  1  0.47663000  0.87294700  0.00361200  1
  C  255  1  0.47640500  0.83993200  0.00368200  1
  C  256  1  0.50462300  0.82246400  0.00584200  1
  C  257  1  0.53315100  0.83943000  0.00778400  1
  C  258  1  0.53348600  0.87245900  0.00773100  1
  C  259  1  0.50518600  0.00522300  0.88955700  1
  C  260  1  0.53348400  0.00298800  0.87250600  1
  C  261  1  0.53317200  0.00264100  0.83947900  1
  C  262  1  0.50465800  0.00445200  0.82247600  1
  C  263  1  0.47642800  0.00676500  0.83990200  1
  C  264  1  0.47663000  0.00714000  0.87291700  1
  C  265  1  0.50516500  0.12115300  0.00500700  1
  C  266  1  0.53345100  0.13824900  0.00298100  1
  C  267  1  0.47658500  0.13775700  0.00692000  1
  C  268  1  0.47635100  0.17077500  0.00670600  1
  C  269  1  0.50456700  0.18824800  0.00455900  1
  C  270  1  0.53310400  0.17127800  0.00278400  1
  C  297  1  0.06350800  0.50527000  0.08636300  1
  C  298  1  0.08645100  0.50521900  0.06350800  1
  C  299  1  0.07178500  0.50537800  0.03419000  1
  C  301  1  0.03425000  0.50536000  0.07157900  1
  C  302  1  0.00482700  0.50538100  0.08737000  1
  C  303  1  0.97514300  0.50541400  0.07223700  1
  C  305  1  0.93803200  0.50539200  0.03498500  1
  C  306  1  0.92308100  0.50534600  0.06413700  1
  C  307  1  0.94593200  0.50529900  0.08707500  1
  C  308  1  0.92301300  0.50540400  0.00524600  1
  C  309  1  0.93891900  0.50543200  0.97588400  1
  C  311  1  0.97644900  0.50540600  0.93849200  1
  C  312  1  0.94718900  0.50533100  0.92371200  1
  C  313  1  0.92424900  0.50527700  0.94656800  1
  C  314  1  0.00587000  0.50542100  0.92269600  1
  C  315  1  0.03555400  0.50543500  0.93783300  1
  C  317  1  0.07266800  0.50536200  0.97508600  1
  C  318  1  0.08761700  0.50531500  0.94593500  1
  C  319  1  0.06476500  0.50529600  0.92299400  1
  C  320  1  0.08769100  0.50534800  0.00482700  1
  C  321  1  0.12115600  0.50510600  0.00514900  1
  C  322  1  0.13777500  0.47653100  0.00328300  1
  C  323  1  0.17079200  0.47630600  0.00358100  1
  C  324  1  0.18825100  0.50452900  0.00574200  1
  C  325  1  0.17126700  0.53306200  0.00750800  1
  C  326  1  0.13823800  0.53339700  0.00725400  1
  C  327  1  0.00567600  0.50520500  0.88923100  1
  C  328  1  0.00361700  0.47663700  0.87262100  1
  C  329  1  0.00368200  0.47641700  0.83960400  1
  C  330  1  0.00583700  0.50463500  0.82213300  1
  C  331  1  0.00776500  0.53316000  0.83910900  1
  C  332  1  0.00771100  0.53349300  0.87213800  1
  C  333  1  0.88955200  0.50518600  0.00492200  1
  C  334  1  0.87249400  0.53348200  0.00272800  1
  C  335  1  0.83946800  0.53316700  0.00242700  1
  C  336  1  0.82246900  0.50465100  0.00425900  1
  C  337  1  0.83990200  0.47642100  0.00654100  1
  C  338  1  0.87291700  0.47662500  0.00686300  1
  C  339  1  0.00500400  0.50515800  0.12083200  1
  C  340  1  0.00296000  0.53344400  0.13792500  1
  C  341  1  0.00693500  0.47657800  0.13743400  1
  C  342  1  0.00672000  0.47634100  0.17045000  1
  C  343  1  0.00455900  0.50456000  0.18791800  1
  C  344  1  0.00278400  0.53309900  0.17095300  1
  C  371  1  0.08656900  0.06368000  0.50476400  1
  C  372  1  0.06366700  0.08657900  0.50466300  1
  C  373  1  0.03438000  0.07185000  0.50468400  1
  C  375  1  0.07184600  0.03439100  0.50474700  1
  C  376  1  0.08769300  0.00499800  0.50482900  1
  C  377  1  0.07261000  0.97528600  0.50481500  1
  C  379  1  0.03542700  0.93810000  0.50470700  1
  C  380  1  0.06461000  0.92320700  0.50478300  1
  C  381  1  0.08750300  0.94610300  0.50478500  1
  C  382  1  0.00571700  0.92301700  0.50469300  1
  C  383  1  0.97632200  0.93885800  0.50474000  1
  C  385  1  0.93886200  0.97631300  0.50478700  1
  C  386  1  0.92413600  0.94702500  0.50482500  1
  C  387  1  0.94703700  0.92412700  0.50473100  1
  C  388  1  0.92301700  0.00570500  0.50485100  1
  C  389  1  0.93809500  0.03541700  0.50480800  1
  C  391  1  0.97527600  0.07260600  0.50466100  1
  C  392  1  0.94608900  0.08749400  0.50472400  1
  C  393  1  0.92319800  0.06459700  0.50475200  1
  C  394  1  0.00498500  0.08769300  0.50463000  1
  C  395  1  0.00521200  0.12115900  0.50480100  1
  C  396  1  0.00314700  0.13823400  0.47650300  1
  C  397  1  0.00292500  0.17126400  0.47682700  1
  C  398  1  0.00466500  0.18825300  0.50535700  1
  C  399  1  0.00686800  0.17080200  0.53358000  1
  C  400  1  0.00712400  0.13778600  0.53336700  1
  C  401  1  0.88955400  0.00545600  0.50474700  1
  C  402  1  0.87286500  0.00338700  0.47623100  1
  C  403  1  0.83984800  0.00349000  0.47610500  1
  C  404  1  0.82246900  0.00569300  0.50437200  1
  C  405  1  0.83951900  0.00760200  0.53285300  1
  C  406  1  0.87255100  0.00753200  0.53308800  1
  C  407  1  0.00547300  0.88955400  0.50490000  1
  C  408  1  0.00341900  0.87296100  0.53347200  1
  C  409  1  0.00352700  0.83994600  0.53370900  1
  C  410  1  0.00572100  0.82247100  0.50550000  1
  C  411  1  0.00761300  0.83942500  0.47696100  1
  C  412  1  0.00753700  0.87245700  0.47661600  1
  C  413  1  0.12115900  0.00523000  0.50472200  1
  C  414  1  0.13817100  0.00317600  0.53305900  1
  C  415  1  0.13784900  0.00713400  0.47619400  1
  C  416  1  0.17086600  0.00688500  0.47605300  1
  C  417  1  0.18825500  0.00470300  0.50431800  1
  C  418  1  0.17120200  0.00295700  0.53281100  1
  C  445  1  0.02145000  0.52529100  0.27220900  1
  C  446  1  0.02177100  0.52590000  0.23925000  1
  C  447  1  0.00404800  0.50419400  0.22153800  1
  C  448  1  0.98595800  0.48191700  0.23825500  1
  C  449  1  0.98538800  0.48066200  0.27149800  1
  C  450  1  0.00333300  0.50298300  0.28879700  1
  C  457  1  0.98862300  0.52544300  0.73791500  1
  C  458  1  0.98845400  0.52604400  0.77087600  1
  C  459  1  0.00619200  0.50428100  0.78850600  1
  C  460  1  0.02412900  0.48195200  0.77169700  1
  C  461  1  0.02453700  0.48070000  0.73845000  1
  C  462  1  0.00659400  0.50308700  0.72123000  1
  C  469  1  0.27253700  0.02146100  0.52523400  1
  C  470  1  0.23957600  0.02181400  0.52579000  1
  C  471  1  0.22188000  0.00412800  0.50404100  1
  C  472  1  0.23862100  0.98602400  0.48179300  1
  C  473  1  0.27186800  0.98542600  0.48059200  1
  C  474  1  0.28915400  0.00334400  0.50294600  1
  C  481  1  0.73828300  0.98858100  0.52536100  1
  C  482  1  0.77124400  0.98837900  0.52590000  1
  C  483  1  0.78884600  0.00610800  0.50410700  1
  C  484  1  0.77201600  0.02408600  0.48182600  1
  C  485  1  0.73877100  0.02453100  0.48063600  1
  C  486  1  0.72158400  0.00658100  0.50304200  1
  C  493  1  0.52530000  0.27255100  0.02143700  1
  C  494  1  0.52591200  0.23959200  0.02175700  1
  C  495  1  0.50420100  0.22187400  0.00404600  1
  C  496  1  0.48191500  0.23859300  0.98597000  1
  C  497  1  0.48065500  0.27184000  0.98540500  1
  C  498  1  0.50298300  0.28914700  0.00333500  1
  C  505  1  0.52542200  0.73825700  0.98860900  1
  C  506  1  0.52602200  0.77121800  0.98844000  1
  C  507  1  0.50426900  0.78884100  0.00619500  1
  C  508  1  0.48194800  0.77203700  0.02414500  1
  C  509  1  0.48069700  0.73879000  0.02455700  1
  C  510  1  0.50307500  0.72158200  0.00659600  1
  C  517  1  0.52549000  0.02125900  0.73819400  1
  C  518  1  0.52609300  0.02156800  0.77115300  1
  C  519  1  0.50433000  0.00390300  0.78885500  1
  C  520  1  0.48200600  0.98588300  0.77212900  1
  C  521  1  0.48075400  0.98532700  0.73888600  1
  C  522  1  0.50313600  0.00321100  0.72159600  1
  C  529  1  0.52527400  0.98869600  0.27248500  1
  C  530  1  0.52589100  0.98852900  0.23952400  1
  C  531  1  0.50417300  0.00631400  0.22188600  1
  C  532  1  0.48186500  0.02428700  0.23868700  1
  C  533  1  0.48060100  0.02469600  0.27193400  1
  C  534  1  0.50294400  0.00670500  0.28916300  1
  C  541  1  0.02140300  0.27259800  0.48466900  1
  C  542  1  0.02175400  0.23963700  0.48401400  1
  C  543  1  0.00407400  0.22187700  0.50571600  1
  C  544  1  0.98597000  0.23855300  0.52801200  1
  C  545  1  0.98537700  0.27179600  0.52931800  1
  C  546  1  0.00329000  0.28914700  0.50701300  1
  C  553  1  0.98859000  0.73821300  0.48483500  1
  C  554  1  0.98838900  0.77117200  0.48417400  1
  C  555  1  0.00614200  0.78885100  0.50588300  1
  C  556  1  0.02414400  0.77210300  0.52820600  1
  C  557  1  0.02459400  0.73886000  0.52951500  1
  C  558  1  0.00661300  0.72159400  0.50719900  1
  C  565  1  0.27249900  0.52528600  0.98861400  1
  C  566  1  0.23953800  0.52590300  0.98841200  1
  C  567  1  0.22187900  0.50418000  0.00617000  1
  C  568  1  0.23866100  0.48187300  0.02416100  1
  C  569  1  0.27190800  0.48060600  0.02460600  1
  C  570  1  0.28915600  0.50294800  0.00663800  1
  C  577  1  0.73820800  0.52547400  0.02118000  1
  C  578  1  0.77116700  0.52607400  0.02145500  1
  C  579  1  0.78884800  0.50431800  0.00376000  1
  C  580  1  0.77210300  0.48199900  0.98575400  1
  C  581  1  0.73885800  0.48074700  0.98523600  1
  C  582  1  0.72158900  0.50312400  0.00314300  1
  N  4  1  0.00493500  0.54070600  0.54029100  1
  N  8  1  0.00474000  0.54154100  0.46884700  1
  N  14  1  0.00452000  0.47010000  0.46968200  1
  N  20  1  0.00472400  0.46926500  0.54112400  1
  N  78  1  0.54070200  0.00471200  0.54070600  1
  N  82  1  0.46925800  0.00447700  0.54153900  1
  N  88  1  0.47009300  0.00474700  0.47010000  1
  N  94  1  0.54153200  0.00499500  0.46926000  1
  N  152  1  0.54069900  0.54069900  0.00471700  1
  N  156  1  0.54153400  0.46925500  0.00448200  1
  N  162  1  0.47009500  0.47008600  0.00475900  1
  N  168  1  0.46925300  0.54152700  0.00500000  1
  N  226  1  0.50546300  0.04071000  0.04058200  1
  N  230  1  0.50545300  0.04141100  0.96915200  1
  N  236  1  0.50550000  0.96998700  0.97013000  1
  N  242  1  0.50545300  0.96928300  0.04155700  1
  N  300  1  0.04057800  0.50545600  0.04039600  1
  N  304  1  0.96914700  0.50545100  0.04109900  1
  N  310  1  0.97012500  0.50550500  0.96967500  1
  N  316  1  0.04155200  0.50545300  0.96897100  1
  N  374  1  0.04065100  0.04065600  0.50471000  1
  N  378  1  0.04148300  0.96922900  0.50474500  1
  N  384  1  0.97005700  0.97005000  0.50474700  1
  N  390  1  0.96922200  0.04147700  0.50473100  1
  N  454  1  0.96831700  0.45753400  0.28545200  1
  N  466  1  0.04145700  0.45750400  0.72442000  1
  N  478  1  0.28583700  0.96835700  0.45747100  1
  N  490  1  0.72471100  0.04148600  0.45748500  1
  N  502  1  0.45750800  0.28578500  0.96835200  1
  N  514  1  0.45752200  0.72475600  0.04149700  1
  N  526  1  0.45757400  0.96833600  0.72492500  1
  N  538  1  0.45743800  0.04166200  0.28595900  1
  N  550  1  0.96831900  0.28569100  0.55249300  1
  N  562  1  0.04158700  0.72488500  0.55268600  1
  N  574  1  0.28591200  0.45744000  0.04158300  1
  N  586  1  0.72487800  0.45756900  0.96825300  1
