# generated using pymatgen
data_ErH6(C2O)6
_symmetry_space_group_name_H-M   'P 1'
_cell_length_a   10.92929000
_cell_length_b   10.95379855
_cell_length_c   18.32743000
_cell_angle_alpha   73.85157654
_cell_angle_beta   73.98610000
_cell_angle_gamma   61.74606928
_symmetry_Int_Tables_number   1
_chemical_formula_structural   ErH6(C2O)6
_chemical_formula_sum   'Er4 H24 C48 O24'
_cell_volume   1829.27982657
_cell_formula_units_Z   4
loop_
 _symmetry_equiv_pos_site_id
 _symmetry_equiv_pos_as_xyz
  1  'x, y, z'
loop_
 _atom_site_type_symbol
 _atom_site_label
 _atom_site_symmetry_multiplicity
 _atom_site_fract_x
 _atom_site_fract_y
 _atom_site_fract_z
 _atom_site_occupancy
  Er  Er0  1  0.93337000  0.06028000  0.10008000  1
  Er  Er1  1  0.93713000  0.06948000  0.39859000  1
  Er  Er2  1  0.06653000  0.93970000  0.89644000  1
  Er  Er3  1  0.06341000  0.93028000  0.59991000  1
  H  H4  1  0.02537000  0.34701000  0.78040000  1
  H  H5  1  0.04727000  0.57481000  0.71916000  1
  H  H6  1  0.86050000  0.48553000  0.99922000  1
  H  H7  1  0.88812000  0.70864000  0.93925000  1
  H  H8  1  0.71055000  0.96101000  0.89598000  1
  H  H9  1  0.48861000  0.07933000  0.11652000  1
  H  H10  1  0.65355000  0.97530000  0.71876000  1
  H  H11  1  0.42585000  0.95293000  0.77996000  1
  H  H12  1  0.51333000  0.14076000  0.49991000  1
  H  H13  1  0.29091000  0.11158000  0.55979000  1
  H  H14  1  0.04047000  0.28873000  0.60351000  1
  H  H15  1  0.92286000  0.51010000  0.38215000  1
  H  H16  1  0.97540000  0.65285000  0.21784000  1
  H  H17  1  0.95306000  0.42552000  0.27960000  1
  H  H18  1  0.14040000  0.51267000  0.99951000  1
  H  H19  1  0.11176000  0.29009000  0.05991000  1
  H  H20  1  0.28946000  0.03835000  0.10304000  1
  H  H21  1  0.51124000  0.92009000  0.88255000  1
  H  H22  1  0.34602000  0.02510000  0.28122000  1
  H  H23  1  0.57376000  0.04717000  0.21950000  1
  H  H24  1  0.48785000  0.85951000  0.49962000  1
  H  H25  1  0.71001000  0.88895000  0.43925000  1
  H  H26  1  0.95953000  0.71118000  0.39642000  1
  H  H27  1  0.07715000  0.48980000  0.61774000  1
  C  C28  1  0.99402000  0.42802000  0.81395000  1
  C  C29  1  0.00703000  0.55271000  0.78028000  1
  C  C30  1  0.73326000  0.04176000  0.01720000  1
  C  C31  1  0.90075000  0.50629000  0.93810000  1
  C  C32  1  0.97139000  0.65251000  0.82592000  1
  C  C33  1  0.91604000  0.63004000  0.90472000  1
  C  C34  1  0.61816000  0.97758000  0.94101000  1
  C  C35  1  0.94294000  0.40356000  0.89329000  1
  C  C36  1  0.49274000  0.04442000  0.06553000  1
  C  C37  1  0.99766000  0.78019000  0.79061000  1
  C  C38  1  0.94468000  0.26367000  0.93115000  1
  C  C39  1  0.61210000  0.02245000  0.00725000  1
  C  C40  1  0.57224000  0.00665000  0.68515000  1
  C  C41  1  0.44758000  0.99321000  0.71882000  1
  C  C42  1  0.96251000  0.26545000  0.48106000  1
  C  C43  1  0.49301000  0.10014000  0.56100000  1
  C  C44  1  0.34776000  0.02830000  0.67301000  1
  C  C45  1  0.36970000  0.08396000  0.59431000  1
  C  C46  1  0.02308000  0.38141000  0.55853000  1
  C  C47  1  0.59617000  0.05817000  0.60579000  1
  C  C48  1  0.95655000  0.50668000  0.43350000  1
  C  C49  1  0.22042000  0.00139000  0.70765000  1
  C  C50  1  0.73557000  0.05771000  0.56752000  1
  C  C51  1  0.97964000  0.38707000  0.49175000  1
  C  C52  1  0.00647000  0.57164000  0.18446000  1
  C  C53  1  0.99318000  0.44713000  0.21842000  1
  C  C54  1  0.26628000  0.95830000  0.98196000  1
  C  C55  1  0.09968000  0.49240000  0.06060000  1
  C  C56  1  0.02814000  0.34725000  0.17294000  1
  C  C57  1  0.08390000  0.36899000  0.09422000  1
  C  C58  1  0.38190000  0.02175000  0.05805000  1
  C  C59  1  0.05726000  0.59575000  0.10500000  1
  C  C60  1  0.50727000  0.95491000  0.93354000  1
  C  C61  1  0.00102000  0.22016000  0.20836000  1
  C  C62  1  0.05466000  0.73590000  0.06660000  1
  C  C63  1  0.38791000  0.97699000  0.99178000  1
  C  C64  1  0.42761000  0.99388000  0.31461000  1
  C  C65  1  0.55225000  0.00714000  0.28067000  1
  C  C66  1  0.03741000  0.73445000  0.51870000  1
  C  C67  1  0.50772000  0.90040000  0.43852000  1
  C  C68  1  0.65264000  0.97198000  0.32609000  1
  C  C69  1  0.63095000  0.91668000  0.40489000  1
  C  C70  1  0.97675000  0.61853000  0.44140000  1
  C  C71  1  0.40422000  0.94228000  0.39395000  1
  C  C72  1  0.04331000  0.49326000  0.56643000  1
  C  C73  1  0.78088000  0.99727000  0.29044000  1
  C  C74  1  0.26517000  0.94218000  0.43237000  1
  C  C75  1  0.02010000  0.61292000  0.50816000  1
  O  O76  1  0.89669000  0.24511000  0.00323000  1
  O  O77  1  0.72135000  0.08941000  0.07601000  1
  O  O78  1  0.84710000  0.00549000  0.96734000  1
  O  O79  1  0.04126000  0.80040000  0.71860000  1
  O  O80  1  0.00000000  0.16853000  0.88921000  1
  O  O81  1  0.97497000  0.86181000  0.83590000  1
  O  O82  1  0.75224000  0.10740000  0.49543000  1
  O  O83  1  0.91510000  0.27797000  0.42189000  1
  O  O84  1  0.99997000  0.15120000  0.53060000  1
  O  O85  1  0.19849000  0.96132000  0.78010000  1
  O  O86  1  0.83201000  0.00235000  0.60884000  1
  O  O87  1  0.14092000  0.01998000  0.66210000  1
  O  O88  1  0.10112000  0.75473000  0.99424000  1
  O  O89  1  0.27740000  0.91055000  0.92339000  1
  O  O90  1  0.15302000  0.99535000  0.03214000  1
  O  O91  1  0.96100000  0.19913000  0.28076000  1
  O  O92  1  0.00010000  0.83077000  0.10861000  1
  O  O93  1  0.01935000  0.13996000  0.16343000  1
  O  O94  1  0.24924000  0.89214000  0.50443000  1
  O  O95  1  0.08517000  0.72162000  0.57780000  1
  O  O96  1  0.99996000  0.84894000  0.46927000  1
  O  O97  1  0.80435000  0.03285000  0.21786000  1
  O  O98  1  0.16806000  0.99719000  0.39154000  1
  O  O99  1  0.86015000  0.98101000  0.33562000  1
