# generated using pymatgen
data_H8C12NO
_symmetry_space_group_name_H-M   'P 1'
_cell_length_a   8.97243333
_cell_length_b   26.91730000
_cell_length_c   26.91730000
_cell_angle_alpha   90.00000000
_cell_angle_beta   90.00000000
_cell_angle_gamma   90.00000000
_symmetry_Int_Tables_number   1
_chemical_formula_structural   H8C12NO
_chemical_formula_sum   'H128 C192 N16 O16'
_cell_volume   6500.89617229
_cell_formula_units_Z   16
loop_
 _symmetry_equiv_pos_site_id
 _symmetry_equiv_pos_as_xyz
  1  'x, y, z'
loop_
 _atom_site_type_symbol
 _atom_site_label
 _atom_site_symmetry_multiplicity
 _atom_site_fract_x
 _atom_site_fract_y
 _atom_site_fract_z
 _atom_site_occupancy
  C  1  1  0.96605500  0.00872700  0.02577200  1
  C  2  1  0.90170200  0.05354800  0.04456200  1
  C  3  1  0.79305700  0.05468300  0.08269500  1
  C  4  1  0.74367400  0.00910500  0.10301900  1
  C  5  1  0.79081900  0.96334600  0.08248200  1
  C  6  1  0.89889400  0.96418200  0.04413400  1
  C  9  1  0.08897400  0.00845600  0.98940300  1
  C  10  1  0.15561600  0.05299500  0.97078700  1
  C  11  1  0.26367000  0.05374600  0.93243300  1
  C  12  1  0.30867600  0.00793800  0.91153900  1
  C  13  1  0.26253300  0.96241300  0.93273700  1
  C  14  1  0.15441000  0.96362100  0.97103600  1
  C  21  1  0.46602800  0.50785500  0.99085600  1
  C  22  1  0.40181000  0.46299900  0.97209100  1
  C  23  1  0.29320990  0.46179900  0.93394800  1
  C  24  1  0.24367990  0.50735000  0.91359700  1
  C  25  1  0.29069290  0.55314200  0.93410100  1
  C  26  1  0.39876800  0.55236500  0.97245100  1
  C  29  1  0.58896200  0.50818600  0.02721600  1
  C  30  1  0.65564300  0.46367900  0.04590900  1
  C  31  1  0.76365200  0.46300300  0.08427800  1
  C  32  1  0.80866700  0.50885100  0.10508000  1
  C  33  1  0.76247000  0.55433800  0.08381100  1
  C  34  1  0.65431700  0.55306000  0.04552300  1
  C  41  1  0.71922900  0.23985700  0.75738900  1
  C  42  1  0.65362500  0.22073800  0.80190700  1
  C  43  1  0.53813700  0.18483600  0.80219700  1
  C  44  1  0.48965400  0.16498900  0.75626700  1
  C  45  1  0.54205800  0.18478700  0.71087600  1
  C  46  1  0.65207100  0.22239500  0.71245900  1
  C  49  1  0.84305400  0.27588900  0.75749700  1
  C  50  1  0.90809100  0.29509100  0.80210400  1
  C  51  1  0.02200392  0.33155800  0.80247200  1
  C  52  1  0.06585790  0.35260800  0.75658700  1
  C  53  1  0.01852692  0.33166900  0.71111800  1
  C  54  1  0.91094700  0.29328300  0.71266000  1
  C  61  1  0.21903450  0.27672100  0.25920800  1
  C  62  1  0.15358950  0.29591100  0.21469400  1
  C  63  1  0.03808050  0.33180600  0.21441200  1
  C  64  1  0.98954300  0.35161100  0.26035500  1
  C  65  1  0.04182450  0.33176400  0.30573900  1
  C  66  1  0.15180750  0.29414800  0.30413900  1
  C  69  1  0.34289200  0.24070300  0.25910100  1
  C  70  1  0.40775500  0.22142700  0.21450100  1
  C  71  1  0.52174000  0.18498200  0.21414600  1
  C  72  1  0.56567200  0.16397700  0.26004600  1
  C  73  1  0.51841900  0.18496100  0.30550100  1
  C  74  1  0.41085400  0.22335200  0.30394300  1
  C  81  1  0.34380400  0.77603500  0.25861100  1
  C  82  1  0.40818100  0.79556500  0.21407600  1
  C  83  1  0.52243000  0.83190600  0.21377100  1
  C  84  1  0.56989600  0.85196400  0.25973200  1
  C  85  1  0.51978700  0.83151200  0.30513300  1
  C  86  1  0.41175700  0.79326200  0.30349400  1
  C  89  1  0.21988050  0.74004400  0.25858700  1
  C  90  1  0.15499350  0.72069200  0.21402700  1
  C  91  1  0.03937350  0.68483700  0.21375400  1
  C  92  1  0.99308600  0.66451200  0.25969600  1
  C  93  1  0.04199250  0.68522400  0.30507600  1
  C  94  1  0.15141750  0.72302100  0.30347200  1
  C  101  1  0.84364500  0.74056000  0.75801300  1
  C  102  1  0.90783300  0.72094800  0.80254600  1
  C  103  1  0.02210292  0.68461500  0.80283900  1
  C  104  1  0.06967090  0.66461300  0.75686200  1
  C  105  1  0.01968192  0.68512000  0.71147100  1
  C  106  1  0.91168200  0.72337400  0.71312800  1
  C  109  1  0.71972700  0.77654800  0.75803900  1
  C  110  1  0.65506500  0.79599600  0.80259100  1
  C  111  1  0.53942400  0.83184700  0.80285100  1
  C  112  1  0.49307100  0.85212400  0.75689500  1
  C  113  1  0.54182400  0.83134200  0.71152700  1
  C  114  1  0.65117100  0.79352200  0.71315000  1
  C  121  1  0.46530500  0.50843800  0.52544200  1
  C  122  1  0.39755300  0.55299700  0.54370200  1
  C  123  1  0.28145290  0.55358700  0.57932200  1
  C  124  1  0.23173390  0.50771700  0.59888500  1
  C  125  1  0.28384990  0.46222600  0.57916600  1
  C  126  1  0.39960200  0.46347800  0.54348600  1
  C  129  1  0.59024300  0.50876100  0.48980700  1
  C  130  1  0.65566400  0.55373600  0.47161800  1
  C  131  1  0.77192000  0.55491700  0.43612400  1
  C  132  1  0.82172900  0.50938200  0.41595500  1
  C  133  1  0.77519900  0.46356400  0.43639200  1
  C  134  1  0.65902100  0.46417300  0.47198200  1
  C  141  1  0.96528700  0.00817200  0.49117800  1
  C  142  1  0.89767900  0.96359800  0.47289200  1
  C  143  1  0.78153400  0.96298500  0.43729100  1
  C  144  1  0.73171600  0.00885000  0.41774200  1
  C  145  1  0.78379600  0.05434800  0.43744700  1
  C  146  1  0.89947300  0.05311900  0.47315200  1
  C  149  1  0.09024300  0.00787100  0.52680900  1
  C  150  1  0.15556800  0.96290700  0.54506900  1
  C  151  1  0.27180000  0.96175900  0.58057400  1
  C  152  1  0.32171400  0.00731400  0.60066500  1
  C  153  1  0.27525900  0.05311300  0.58016100  1
  C  154  1  0.15908700  0.05247000  0.54457100  1
  C  161  1  0.47991600  0.91106000  0.91442600  1
  C  162  1  0.55355400  0.87869000  0.88151000  1
  C  163  1  0.47119200  0.84998400  0.84743500  1
  C  164  1  0.31368900  0.85063000  0.85118400  1
  C  165  1  0.23745900  0.88501700  0.88200000  1
  C  166  1  0.32273700  0.91706000  0.91317000  1
  C  173  1  0.97969100  0.60577300  0.10207200  1
  C  174  1  0.05326050  0.63804600  0.13511000  1
  C  175  1  0.97091900  0.66677800  0.16918500  1
  C  176  1  0.81344900  0.66608000  0.16539800  1
  C  177  1  0.73725800  0.63174900  0.13453200  1
  C  178  1  0.82249700  0.59972900  0.10333000  1
  C  185  1  0.23572390  0.35162100  0.66016600  1
  C  186  1  0.30659600  0.38490400  0.62752900  1
  C  187  1  0.22120090  0.41681300  0.59737700  1
  C  188  1  0.06467290  0.41021500  0.59666400  1
  C  189  1  0.99067800  0.37976300  0.63190900  1
  C  190  1  0.07826590  0.35103900  0.66556000  1
  C  197  1  0.73551700  0.16500900  0.35649600  1
  C  198  1  0.80628700  0.13160600  0.38905400  1
  C  199  1  0.72091600  0.09973100  0.41926500  1
  C  200  1  0.56441500  0.10636900  0.41991900  1
  C  201  1  0.49047700  0.13687600  0.38472200  1
  C  202  1  0.57805600  0.16560900  0.35107800  1
  C  209  1  0.07531390  0.60523100  0.91480400  1
  C  210  1  0.00358692  0.63757100  0.88138700  1
  C  211  1  0.08788990  0.66603900  0.84765100  1
  C  212  1  0.24505090  0.66544800  0.85250600  1
  C  213  1  0.31934600  0.63054900  0.88327100  1
  C  214  1  0.23226790  0.59850300  0.91389800  1
  C  221  1  0.57568300  0.91116000  0.10169700  1
  C  222  1  0.50407300  0.87889800  0.13523000  1
  C  223  1  0.58840900  0.85042200  0.16897400  1
  C  224  1  0.74555800  0.85109500  0.16410700  1
  C  225  1  0.81978400  0.88596100  0.13330700  1
  C  226  1  0.73260700  0.91794000  0.10266500  1
  C  233  1  0.33121800  0.16728000  0.65613500  1
  C  234  1  0.25999800  0.13369600  0.62384700  1
  C  235  1  0.34380300  0.09792600  0.59773700  1
  C  236  1  0.50129100  0.10103000  0.60036400  1
  C  237  1  0.57457500  0.13208700  0.63521500  1
  C  238  1  0.48689100  0.16464400  0.66507700  1
  C  245  1  0.83111300  0.34931900  0.36051000  1
  C  246  1  0.75995000  0.38303600  0.39269100  1
  C  247  1  0.84389600  0.41877800  0.41879700  1
  C  248  1  0.00133346  0.41563500  0.41615900  1
  C  249  1  0.07452450  0.38449200  0.38137900  1
  C  250  1  0.98681300  0.35192000  0.35154500  1
  C  257  1  0.58047400  0.10848600  0.10043800  1
  C  258  1  0.50805100  0.14068100  0.13384200  1
  C  259  1  0.59097400  0.16709300  0.16959700  1
  C  260  1  0.74855500  0.16469100  0.16690900  1
  C  261  1  0.82307200  0.13021800  0.13575100  1
  C  262  1  0.73650700  0.10019100  0.10303400  1
  C  269  1  0.08089390  0.40794900  0.91626100  1
  C  270  1  0.00853092  0.37584700  0.88274000  1
  C  271  1  0.09144490  0.34938900  0.84699700  1
  C  272  1  0.24900790  0.35183800  0.84970900  1
  C  273  1  0.32352500  0.38626000  0.88090100  1
  C  274  1  0.23693890  0.41623000  0.91364200  1
  C  281  1  0.82606400  0.66681900  0.35718400  1
  C  282  1  0.75401000  0.63371800  0.38974100  1
  C  283  1  0.83791100  0.60003300  0.41841400  1
  C  284  1  0.99522800  0.60453200  0.41769000  1
  C  285  1  0.06991050  0.63520400  0.38282400  1
  C  286  1  0.98309000  0.66585300  0.35071300  1
  C  293  1  0.32598000  0.84978300  0.65940400  1
  C  294  1  0.25398000  0.88302600  0.62695700  1
  C  295  1  0.33800700  0.91666900  0.59827600  1
  C  296  1  0.49527000  0.91213000  0.59898600  1
  C  297  1  0.56986500  0.88137300  0.63378100  1
  C  298  1  0.48303600  0.85070500  0.66587900  1
  C  305  1  0.98277800  0.41294900  0.10407500  1
  C  306  1  0.05576850  0.38050600  0.13706000  1
  C  307  1  0.97250300  0.35032900  0.16957400  1
  C  308  1  0.81554300  0.34963700  0.16409100  1
  C  309  1  0.73953200  0.38439900  0.13361800  1
  C  310  1  0.82518500  0.41789800  0.10410000  1
  C  317  1  0.48256200  0.10385200  0.91265700  1
  C  318  1  0.55551300  0.13618200  0.87953400  1
  C  319  1  0.47230800  0.16639100  0.84701900  1
  C  320  1  0.31537800  0.16704100  0.85252500  1
  C  321  1  0.23939100  0.13235300  0.88307000  1
  C  322  1  0.32493900  0.09890700  0.91266500  1
  C  329  1  0.73245100  0.85030000  0.35868300  1
  C  330  1  0.80246500  0.88399200  0.39113800  1
  C  331  1  0.71668000  0.91790300  0.41892000  1
  C  332  1  0.55964500  0.91266800  0.41785700  1
  C  333  1  0.48712300  0.88188900  0.38256400  1
  C  334  1  0.57598300  0.85137300  0.35095400  1
  C  341  1  0.23224690  0.66632900  0.65788500  1
  C  342  1  0.30219500  0.63252200  0.62551900  1
  C  343  1  0.21641890  0.59864000  0.59767800  1
  C  344  1  0.05941690  0.60390400  0.59880000  1
  C  345  1  0.98694000  0.63474000  0.63403700  1
  C  346  1  0.07577290  0.66527000  0.66563800  1
  H  7  1  0.93497200  0.08723400  0.03153700  1
  H  16  1  0.12323400  0.93000300  0.98480000  1
  H  17  1  0.55501900  0.01033600  0.13573400  1
  H  18  1  0.33369300  0.00782600  0.84159100  1
  H  19  1  0.92975500  0.93043400  0.03061500  1
  H  20  1  0.12531900  0.08675900  0.98439200  1
  H  27  1  0.43527800  0.42933300  0.98510500  1
  H  36  1  0.62315300  0.58664800  0.03169300  1
  H  37  1  0.05508490  0.50606800  0.88085200  1
  H  38  1  0.83375600  0.50906200  0.17502500  1
  H  39  1  0.42942800  0.58613200  0.98598200  1
  H  40  1  0.62532800  0.42988700  0.03237900  1
  H  47  1  0.68812500  0.23288300  0.83579600  1
  H  56  1  0.88164000  0.27890700  0.67912700  1
  H  57  1  0.29879700  0.13363800  0.75394500  1
  H  58  1  0.08989090  0.42260900  0.75725200  1
  H  59  1  0.68443200  0.23587800  0.67887100  1
  H  60  1  0.87522300  0.28231300  0.83593300  1
  H  67  1  0.18825150  0.28382500  0.18080300  1
  H  76  1  0.38173300  0.23780700  0.33745700  1
  H  77  1  0.79877000  0.38302500  0.26269400  1
  H  78  1  0.58962400  0.09397300  0.25942800  1
  H  79  1  0.18397050  0.28058100  0.33771800  1
  H  80  1  0.37476700  0.23415400  0.18066400  1
  H  87  1  0.37352800  0.78346500  0.18019200  1
  H  96  1  0.18153150  0.73726500  0.33698400  1
  H  97  1  0.75784000  0.88539600  0.26180300  1
  H  98  1  0.96310700  0.59475100  0.25937100  1
  H  99  1  0.38128600  0.77912600  0.33701700  1
  H  100  1  0.18937650  0.73286200  0.18013900  1
  H  107  1  0.87300300  0.73298100  0.83643100  1
  H  116  1  0.68107200  0.77918200  0.67965500  1
  H  117  1  0.25755790  0.63114700  0.75477800  1
  H  118  1  0.46328100  0.92189300  0.75715900  1
  H  119  1  0.88142700  0.73760600  0.67962100  1
  H  120  1  0.68958600  0.78388500  0.83648700  1
  H  127  1  0.43113200  0.58686000  0.53127500  1
  H  136  1  0.62718800  0.43036900  0.48506300  1
  H  137  1  0.04198390  0.50634700  0.63139200  1
  H  138  1  0.85156400  0.50911400  0.34616100  1
  H  139  1  0.43446500  0.42982700  0.53087000  1
  H  140  1  0.62109200  0.58741000  0.48425700  1
  H  147  1  0.93141400  0.92973900  0.48528600  1
  H  156  1  0.12726900  0.08626000  0.53145300  1
  H  157  1  0.54197800  0.01024600  0.38522800  1
  H  158  1  0.35158800  0.00766700  0.67045600  1
  H  159  1  0.93420100  0.08677600  0.48579500  1
  H  160  1  0.12097800  0.92922300  0.53247100  1
  H  167  1  0.54393000  0.93494000  0.93499600  1
  H  168  1  0.66710400  0.88087100  0.87854900  1
  H  169  1  0.25322100  0.83052800  0.82589200  1
  H  171  1  0.03168900  0.86680600  0.85473500  1
  H  172  1  0.02831100  0.91237900  0.89575700  1
  H  179  1  0.04390950  0.58182900  0.08165300  1
  H  180  1  0.16679850  0.63583600  0.13809700  1
  H  181  1  0.75308600  0.68626000  0.19066400  1
  H  183  1  0.53146100  0.64997100  0.16176300  1
  H  184  1  0.52809800  0.60446500  0.12066200  1
  H  191  1  0.30123500  0.33258000  0.68484900  1
  H  192  1  0.41942000  0.38976700  0.63041500  1
  H  193  1  0.00215892  0.43370600  0.57512400  1
  H  195  1  0.78300000  0.40397000  0.61182900  1
  H  196  1  0.78197100  0.36516300  0.65925500  1
  H  203  1  0.80123800  0.18386700  0.33173700  1
  H  204  1  0.91909900  0.12671100  0.38613800  1
  H  205  1  0.50203300  0.08292700  0.44155600  1
  H  207  1  0.28277550  0.11275600  0.40486500  1
  H  208  1  0.28173750  0.15162900  0.35749100  1
  H  215  1  0.00997392  0.58189300  0.93552000  1
  H  216  1  0.89008500  0.63575400  0.87803600  1
  H  217  1  0.30698600  0.68594500  0.82794600  1
  H  219  1  0.52634600  0.64838500  0.85680500  1
  H  220  1  0.52732700  0.60231400  0.89726200  1
  H  227  1  0.51012400  0.93455000  0.08112400  1
  H  228  1  0.39057100  0.88071500  0.13860100  1
  H  229  1  0.80737900  0.83052800  0.18864300  1
  H  231  1  0.02682900  0.86815400  0.15975400  1
  H  232  1  0.02773200  0.91417300  0.11923000  1
  H  239  1  0.26543400  0.18932400  0.67808000  1
  H  240  1  0.14609400  0.13167200  0.62434500  1
  H  241  1  0.56300400  0.07491600  0.58179600  1
  H  243  1  0.78079200  0.10290200  0.62095700  1
  H  244  1  0.78054900  0.14503300  0.66551900  1
  H  251  1  0.76506800  0.32743000  0.33850500  1
  H  252  1  0.64604600  0.38511200  0.39217100  1
  H  253  1  0.06296850  0.44170400  0.43482800  1
  H  255  1  0.28082250  0.41360000  0.39566300  1
  H  256  1  0.28053450  0.37138400  0.35117900  1
  H  263  1  0.51547600  0.08628400  0.07839200  1
  H  264  1  0.39413800  0.13995600  0.13572900  1
  H  265  1  0.80950900  0.18336900  0.19314600  1
  H  267  1  0.02887800  0.14508800  0.16492200  1
  H  268  1  0.02991900  0.10075100  0.12252600  1
  H  275  1  0.01568292  0.43022500  0.93815700  1
  H  276  1  0.89462100  0.37660500  0.88082300  1
  H  277  1  0.30985100  0.33307200  0.82349900  1
  H  279  1  0.52935500  0.37141000  0.85174500  1
  H  280  1  0.53036900  0.41568000  0.89421900  1
  H  287  1  0.76100000  0.68707800  0.33333333  1
  H  288  1  0.64058600  0.63025200  0.38765000  1
  H  289  1  0.05678250  0.57952600  0.43779200  1
  H  291  1  0.27647850  0.60834800  0.40070100  1
  H  292  1  0.27823950  0.64876800  0.35462600  1
  H  299  1  0.26070600  0.82969200  0.68330700  1
  H  300  1  0.14056200  0.88654800  0.62908900  1
  H  301  1  0.55669800  0.93709500  0.57878300  1
  H  303  1  0.77649900  0.90812900  0.61584500  1
  H  304  1  0.77823600  0.86761200  0.66184100  1
  H  311  1  0.04695150  0.43759900  0.08449500  1
  H  312  1  0.16884750  0.38345200  0.14116300  1
  H  313  1  0.75446600  0.32817500  0.18806300  1
  H  315  1  0.53318900  0.36412100  0.15887200  1
  H  316  1  0.52980200  0.41109200  0.11950000  1
  H  323  1  0.54692400  0.07914100  0.93209100  1
  H  324  1  0.66857400  0.13319000  0.87540600  1
  H  325  1  0.25444200  0.18857200  0.82857000  1
  H  327  1  0.03303000  0.15264400  0.85784100  1
  H  328  1  0.02961900  0.10578700  0.89735100  1
  H  335  1  0.79893100  0.82954000  0.33574600  1
  H  336  1  0.91600000  0.88745000  0.38977500  1
  H  337  1  0.49663000  0.93711400  0.43811500  1
  H  339  1  0.27922950  0.90828100  0.39934500  1
  H  340  1  0.28048950  0.86782400  0.35327700  1
  H  347  1  0.29896100  0.68692200  0.68089600  1
  H  348  1  0.41571800  0.62903300  0.62690500  1
  H  349  1  0.99651000  0.57950800  0.57844100  1
  H  351  1  0.77900100  0.60841800  0.61720800  1
  H  352  1  0.78025800  0.64894600  0.66321600  1
  N  170  1  0.08667900  0.88847900  0.87717800  1
  N  182  1  0.58646300  0.62831600  0.13930100  1
  N  194  1  0.83932500  0.38292400  0.63450600  1
  N  206  1  0.33911200  0.13378400  0.38217700  1
  N  218  1  0.47019800  0.62675200  0.87895800  1
  N  230  1  0.97063600  0.88976900  0.13758800  1
  N  242  1  0.72433800  0.12626100  0.64118500  1
  N  254  1  0.22432950  0.39022800  0.37545700  1
  N  266  1  0.97299700  0.12473400  0.14151500  1
  N  278  1  0.47346200  0.39172900  0.87518300  1
  N  290  1  0.22069650  0.63054200  0.37899700  1
  N  302  1  0.72068100  0.88593500  0.63754100  1
  N  314  1  0.58828100  0.38669900  0.13736200  1
  N  326  1  0.08812200  0.13008800  0.87937400  1
  N  338  1  0.33644800  0.88616100  0.37798700  1
  N  350  1  0.83623800  0.63053400  0.63856600  1
  O  8  1  0.66033100  0.00925700  0.14567700  1
  O  15  1  0.39979800  0.00760300  0.87074400  1
  O  28  1  0.16040290  0.50712300  0.87092600  1
  O  35  1  0.89983400  0.50926300  0.14586400  1
  O  48  1  0.40334700  0.12296900  0.75579500  1
  O  55  1  0.15637090  0.39357200  0.75604800  1
  O  68  1  0.90335600  0.39365700  0.26082600  1
  O  75  1  0.65612800  0.12300300  0.26060600  1
  O  88  1  0.65223700  0.89486900  0.26023600  1
  O  95  1  0.89913200  0.62441900  0.26036300  1
  O  108  1  0.15194590  0.62169600  0.75634900  1
  O  115  1  0.39923700  0.89224700  0.75620000  1
  O  128  1  0.14721790  0.50735300  0.64134900  1
  O  135  1  0.91561700  0.50975700  0.37581700  1
  O  148  1  0.64721200  0.00917300  0.37527500  1
  O  155  1  0.41562000  0.00697200  0.64079900  1
