# generated using pymatgen
data_H36C43N12
_symmetry_space_group_name_H-M   'P 1'
_cell_length_a   33.35810000
_cell_length_b   33.35810000
_cell_length_c   46.84720000
_cell_angle_alpha   90.00000000
_cell_angle_beta   90.00000000
_cell_angle_gamma   90.00000000
_symmetry_Int_Tables_number   1
_chemical_formula_structural   H36C43N12
_chemical_formula_sum   'H288 C344 N96'
_cell_volume   52129.82311239
_cell_formula_units_Z   8
loop_
 _symmetry_equiv_pos_site_id
 _symmetry_equiv_pos_as_xyz
  1  'x, y, z'
loop_
 _atom_site_type_symbol
 _atom_site_label
 _atom_site_symmetry_multiplicity
 _atom_site_fract_x
 _atom_site_fract_y
 _atom_site_fract_z
 _atom_site_occupancy
  H  25  1  0.27035900  0.97888200  0.19430600  1
  H  26  1  0.22267800  0.95279600  0.16351200  1
  H  27  1  0.13401000  0.95307700  0.09140500  1
  H  28  1  0.08639000  0.97880400  0.06099100  1
  H  29  1  0.11671300  0.09709400  0.08656500  1
  H  30  1  0.23881600  0.09679800  0.16924200  1
  H  31  1  0.11825400  0.05750700  0.16901500  1
  H  32  1  0.08520300  0.17435100  0.19478600  1
  H  33  1  0.13301000  0.20158700  0.16378400  1
  H  34  1  0.23832600  0.05757500  0.08629600  1
  H  35  1  0.22336900  0.20164900  0.09161700  1
  H  36  1  0.27128400  0.17454800  0.06068200  1
  H  39  1  0.19799400  0.96735000  0.11463000  1
  H  40  1  0.15835200  0.96743700  0.14040900  1
  H  42  1  0.15853600  0.18739100  0.11459000  1
  H  43  1  0.19771300  0.18746300  0.14067500  1
  H  72  1  0.58538300  0.17440800  0.69472000  1
  H  73  1  0.63331500  0.20147500  0.66375100  1
  H  74  1  0.72272000  0.20136500  0.59157000  1
  H  75  1  0.77030400  0.17545000  0.56101100  1
  H  76  1  0.73941200  0.05731200  0.58638900  1
  H  77  1  0.61818200  0.05744800  0.66903000  1
  H  78  1  0.73791600  0.09668300  0.66922900  1
  H  79  1  0.77102900  0.97973100  0.69469000  1
  H  80  1  0.72330200  0.95264300  0.66350800  1
  H  81  1  0.61662900  0.09704900  0.58666900  1
  H  82  1  0.63383000  0.95299400  0.59132400  1
  H  83  1  0.58629200  0.97882200  0.56092800  1
  H  86  1  0.65854100  0.18713700  0.61467700  1
  H  87  1  0.69797000  0.18704700  0.64059700  1
  H  89  1  0.69779400  0.96693600  0.61461100  1
  H  90  1  0.65832800  0.96729000  0.64049500  1
  H  119  1  0.08693100  0.47896500  0.56071200  1
  H  120  1  0.13425300  0.45328400  0.59110500  1
  H  121  1  0.22245000  0.45273800  0.66352500  1
  H  122  1  0.27019400  0.47852800  0.69416300  1
  H  123  1  0.23928200  0.59673300  0.66906900  1
  H  124  1  0.11606200  0.59729000  0.58718800  1
  H  125  1  0.23903000  0.55751000  0.58652400  1
  H  126  1  0.27048100  0.67494800  0.56064800  1
  H  127  1  0.22249300  0.70149300  0.59133300  1
  H  128  1  0.11714400  0.55740800  0.66897900  1
  H  129  1  0.13371100  0.70147200  0.66369400  1
  H  130  1  0.08606500  0.67552900  0.69425300  1
  H  133  1  0.15810600  0.46755300  0.64033500  1
  H  134  1  0.19792200  0.46729500  0.61469800  1
  H  136  1  0.19790000  0.68717800  0.64053600  1
  H  137  1  0.15833700  0.68702000  0.61470500  1
  H  166  1  0.76937700  0.67548400  0.06078500  1
  H  167  1  0.72195300  0.70102500  0.09128900  1
  H  168  1  0.63447800  0.70086600  0.16413100  1
  H  169  1  0.58718500  0.67527700  0.19460800  1
  H  170  1  0.61603800  0.55689200  0.16812400  1
  H  171  1  0.74017600  0.55706600  0.08686900  1
  H  172  1  0.61663200  0.59691600  0.08672200  1
  H  173  1  0.58663000  0.47872900  0.06068400  1
  H  174  1  0.63398600  0.45286100  0.09119400  1
  H  175  1  0.73847000  0.59649600  0.16891900  1
  H  176  1  0.72283700  0.45249200  0.16376500  1
  H  177  1  0.77081300  0.47941500  0.19468600  1
  H  180  1  0.69818600  0.68661200  0.14041100  1
  H  181  1  0.65815100  0.68652200  0.11494900  1
  H  183  1  0.65816900  0.46718100  0.14049700  1
  H  184  1  0.69776100  0.46675900  0.11470800  1
  H  213  1  0.84047200  0.41167200  0.30143500  1
  H  214  1  0.80838400  0.36862100  0.33483500  1
  H  215  1  0.80832700  0.28620600  0.42029000  1
  H  216  1  0.84027400  0.24277700  0.45351100  1
  H  217  1  0.95174600  0.26808600  0.41586300  1
  H  218  1  0.95195900  0.38571400  0.33883800  1
  H  219  1  0.90437300  0.26843400  0.33883300  1
  H  220  1  0.01587000  0.24250000  0.30144000  1
  H  221  1  0.04794100  0.28554300  0.33484600  1
  H  222  1  0.90455000  0.38605900  0.41585200  1
  H  223  1  0.04796500  0.36796700  0.42030500  1
  H  224  1  0.01599900  0.41141400  0.45351100  1
  H  227  1  0.81923000  0.34834400  0.38920100  1
  H  228  1  0.81906800  0.30640200  0.36589200  1
  H  230  1  0.03707900  0.30581400  0.38921400  1
  H  231  1  0.03724800  0.34775900  0.36590900  1
  H  260  1  0.01603100  0.74264600  0.80157400  1
  H  261  1  0.04803000  0.78603300  0.83479500  1
  H  262  1  0.04799300  0.86813600  0.92041400  1
  H  263  1  0.01597400  0.91147700  0.95366200  1
  H  264  1  0.90456200  0.88615200  0.91593500  1
  H  265  1  0.90455900  0.76821700  0.83914100  1
  H  266  1  0.95197700  0.88582900  0.83888200  1
  H  267  1  0.84048400  0.91164500  0.80144600  1
  H  268  1  0.80842300  0.86863000  0.83486900  1
  H  269  1  0.95181800  0.76824400  0.91594400  1
  H  270  1  0.80837800  0.78622500  0.92032000  1
  H  271  1  0.84034600  0.74279000  0.95353200  1
  H  274  1  0.03720400  0.80611800  0.88921600  1
  H  275  1  0.03726700  0.84811700  0.86595600  1
  H  277  1  0.81926600  0.84840700  0.88924800  1
  H  278  1  0.81913100  0.80645700  0.86594700  1
  H  307  1  0.34050500  0.24254900  0.95379900  1
  H  308  1  0.30841000  0.28556300  0.92037900  1
  H  309  1  0.30829600  0.36796100  0.83492100  1
  H  310  1  0.34024700  0.41139900  0.80170400  1
  H  311  1  0.45175500  0.38587300  0.83922400  1
  H  312  1  0.45195000  0.26827100  0.91626200  1
  H  313  1  0.40455200  0.38587300  0.91602700  1
  H  314  1  0.51605400  0.41142300  0.95354500  1
  H  315  1  0.54800700  0.36798500  0.92033500  1
  H  316  1  0.40437800  0.26826400  0.83898700  1
  H  317  1  0.54791700  0.28557600  0.83487600  1
  H  318  1  0.51582600  0.24254900  0.80145400  1
  H  321  1  0.31918100  0.30576600  0.86597300  1
  H  322  1  0.31911200  0.34770200  0.88928700  1
  H  324  1  0.53720600  0.34771100  0.86596800  1
  H  325  1  0.53713400  0.30577800  0.88928700  1
  H  354  1  0.51602400  0.91152200  0.45368600  1
  H  355  1  0.54802800  0.86815100  0.42044800  1
  H  356  1  0.54796800  0.78603600  0.33482000  1
  H  357  1  0.51592800  0.74266100  0.30159800  1
  H  358  1  0.40452800  0.76805800  0.33932400  1
  H  359  1  0.40456100  0.88598400  0.41610400  1
  H  360  1  0.45199500  0.76838800  0.41635100  1
  H  361  1  0.34052200  0.74252300  0.45380300  1
  H  362  1  0.30843400  0.78556800  0.42039000  1
  H  363  1  0.45178500  0.88599600  0.33929700  1
  H  364  1  0.30835000  0.86794400  0.33492700  1
  H  365  1  0.34029200  0.91138700  0.30171100  1
  H  368  1  0.53720600  0.84806900  0.36602200  1
  H  369  1  0.53724800  0.80607000  0.38928000  1
  H  371  1  0.31925300  0.80579400  0.36600900  1
  H  372  1  0.31913000  0.84774500  0.38931000  1
  H  384  1  0.03450100  0.00510900  0.93190400  1
  H  385  1  0.99203300  0.98154700  0.93022400  1
  H  387  1  0.09757300  0.03277200  0.98749100  1
  H  388  1  0.08497400  0.00406600  0.96097700  1
  H  390  1  0.91742500  0.95667500  0.01986300  1
  H  391  1  0.92498200  0.98611000  0.04669300  1
  H  393  1  0.99530100  0.06310400  0.06082700  1
  H  394  1  0.95755000  0.03306300  0.06395900  1
  H  396  1  0.07185300  0.08013800  0.01793800  1
  H  398  1  0.91491600  0.97530600  0.97191100  1
  H  406  1  0.82167900  0.14925800  0.43187800  1
  H  407  1  0.86411900  0.17278200  0.43016900  1
  H  409  1  0.75877700  0.12130500  0.48758500  1
  H  410  1  0.77123000  0.15001400  0.46100900  1
  H  412  1  0.93893400  0.19750600  0.51983700  1
  H  413  1  0.93139500  0.16801900  0.54664500  1
  H  415  1  0.86086900  0.09124100  0.56086800  1
  H  416  1  0.89878200  0.12108600  0.56392900  1
  H  418  1  0.78596400  0.07301800  0.51763400  1
  H  420  1  0.94135000  0.17900300  0.47187200  1
  H  428  1  0.32171400  0.50493800  0.82334900  1
  H  429  1  0.36423200  0.48145400  0.82506300  1
  H  431  1  0.25886600  0.53286200  0.76761200  1
  H  432  1  0.27119000  0.50422800  0.79429300  1
  H  434  1  0.43898400  0.45669500  0.73542500  1
  H  435  1  0.43135500  0.48610900  0.70858700  1
  H  437  1  0.36069100  0.56275900  0.69431700  1
  H  438  1  0.39876600  0.53310800  0.69133700  1
  H  440  1  0.28662500  0.58157000  0.73760200  1
  H  442  1  0.44138500  0.47515200  0.78339600  1
  H  450  1  0.53431000  0.64892400  0.32339400  1
  H  451  1  0.49188900  0.67255800  0.32504600  1
  H  453  1  0.59774000  0.62209400  0.26788800  1
  H  454  1  0.58473300  0.65057600  0.29435300  1
  H  456  1  0.41746900  0.69761400  0.23542300  1
  H  457  1  0.42498200  0.66818500  0.20858100  1
  H  459  1  0.49475200  0.59068900  0.19466300  1
  H  460  1  0.45744700  0.62121000  0.19131700  1
  H  462  1  0.57419300  0.57657900  0.23720300  1
  H  464  1  0.41484900  0.67888100  0.28335300  1
  H  472  1  0.39971900  0.62159900  0.56494900  1
  H  473  1  0.36104500  0.59262000  0.56228100  1
  H  475  1  0.44032100  0.69757500  0.52055800  1
  H  476  1  0.43274600  0.66812200  0.54738800  1
  H  478  1  0.25993300  0.62166500  0.48887900  1
  H  479  1  0.27214700  0.65009900  0.46205700  1
  H  481  1  0.36527500  0.67228300  0.43091800  1
  H  482  1  0.32269200  0.64891500  0.43287700  1
  H  484  1  0.44246800  0.67991200  0.47265600  1
  H  486  1  0.29195700  0.57012800  0.51825300  1
  H  494  1  0.89967200  0.53266400  0.19032600  1
  H  495  1  0.86066200  0.56122100  0.19284500  1
  H  497  1  0.94037600  0.45666200  0.23469100  1
  H  498  1  0.93270200  0.48607000  0.20784300  1
  H  500  1  0.75988000  0.53263100  0.26637700  1
  H  501  1  0.77200900  0.50425200  0.29325100  1
  H  503  1  0.86522200  0.48188500  0.32432200  1
  H  504  1  0.82255800  0.50505800  0.32240800  1
  H  506  1  0.94242900  0.47427700  0.28258500  1
  H  508  1  0.79403700  0.58491600  0.23713700  1
  H  516  1  0.45670400  0.12154600  0.69031900  1
  H  517  1  0.49584300  0.09314800  0.69275400  1
  H  519  1  0.41601800  0.19753500  0.73469500  1
  H  520  1  0.42368700  0.16815600  0.70782900  1
  H  522  1  0.59646300  0.12135500  0.76641300  1
  H  523  1  0.58437600  0.14976800  0.79327900  1
  H  525  1  0.49122300  0.17235300  0.82435900  1
  H  526  1  0.53382800  0.14912900  0.82239100  1
  H  528  1  0.41395000  0.17987800  0.78256500  1
  H  530  1  0.56186000  0.06899200  0.73718600  1
  H  538  1  0.03436900  0.50521100  0.43185300  1
  H  539  1  0.99198800  0.48151400  0.43020100  1
  H  541  1  0.09772600  0.53227500  0.48730800  1
  H  542  1  0.08478000  0.50367900  0.46089200  1
  H  544  1  0.91748500  0.45652400  0.51978800  1
  H  545  1  0.92494900  0.48599500  0.54661500  1
  H  547  1  0.99471300  0.56347300  0.56056300  1
  H  548  1  0.95743900  0.53292200  0.56391000  1
  H  550  1  0.07438900  0.57758900  0.51818900  1
  H  552  1  0.91492500  0.47517000  0.47185700  1
  H  560  1  0.82196700  0.64908300  0.93183400  1
  H  561  1  0.86440000  0.67270200  0.93017100  1
  H  563  1  0.75872600  0.62180600  0.98737200  1
  H  564  1  0.77153300  0.65042900  0.96089800  1
  H  566  1  0.93897300  0.69760200  0.01979000  1
  H  567  1  0.93145800  0.66815800  0.04661500  1
  H  569  1  0.86139700  0.59092000  0.06064100  1
  H  570  1  0.89886600  0.62127500  0.06391600  1
  H  572  1  0.78307700  0.57556300  0.01808700  1
  H  574  1  0.94146400  0.67901800  0.97183000  1
  H  582  1  0.32160700  0.00482100  0.32334700  1
  H  583  1  0.36409100  0.98137000  0.32508700  1
  H  585  1  0.25882100  0.03304300  0.26759800  1
  H  586  1  0.27110800  0.00436500  0.29425000  1
  H  588  1  0.43900800  0.95670800  0.23540800  1
  H  589  1  0.43136700  0.98613400  0.20857600  1
  H  591  1  0.36034400  0.06240400  0.19414400  1
  H  592  1  0.39867900  0.03305200  0.19128300  1
  H  594  1  0.28803700  0.08264300  0.23769600  1
  H  596  1  0.44137000  0.97519500  0.28336800  1
  H  604  1  0.39966800  0.12154100  0.06491600  1
  H  605  1  0.36062300  0.09302800  0.06244200  1
  H  607  1  0.44028800  0.19756500  0.02054500  1
  H  608  1  0.43266800  0.16815000  0.04739900  1
  H  610  1  0.25991800  0.12121700  0.98880400  1
  H  611  1  0.27197400  0.14970300  0.96197000  1
  H  613  1  0.36509800  0.17238100  0.93088400  1
  H  614  1  0.32251500  0.14911700  0.93284300  1
  H  616  1  0.44237500  0.17986600  0.97267100  1
  H  618  1  0.29422600  0.06903500  0.01810500  1
  H  626  1  0.89955800  0.03258800  0.69027400  1
  H  627  1  0.86034700  0.06087500  0.69265200  1
  H  629  1  0.94038200  0.95672600  0.73468400  1
  H  630  1  0.93269300  0.98613100  0.70784200  1
  H  632  1  0.75992200  0.03289800  0.76630400  1
  H  633  1  0.77194900  0.00435900  0.79316800  1
  H  635  1  0.86504200  0.98175400  0.82432700  1
  H  636  1  0.82242600  0.00495900  0.82236900  1
  H  638  1  0.94231500  0.97435600  0.78257000  1
  H  640  1  0.79516700  0.08560300  0.73710500  1
  H  648  1  0.53446600  0.00512800  0.43190400  1
  H  649  1  0.49202400  0.98151700  0.43024300  1
  H  651  1  0.59757500  0.03276800  0.48746600  1
  H  652  1  0.58493700  0.00405000  0.46097300  1
  H  654  1  0.41743300  0.95668400  0.51988200  1
  H  655  1  0.42496400  0.98614000  0.54670100  1
  H  657  1  0.49519200  0.06322200  0.56078900  1
  H  658  1  0.45754000  0.03307100  0.56397000  1
  H  660  1  0.57225300  0.07983200  0.51796500  1
  H  662  1  0.41493300  0.97532100  0.47191300  1
  H  670  1  0.03462300  0.64923000  0.82335500  1
  H  671  1  0.99216200  0.67272600  0.82505700  1
  H  673  1  0.09755200  0.62128400  0.76764700  1
  H  674  1  0.08509700  0.64996400  0.79424200  1
  H  676  1  0.91740700  0.69745800  0.73535900  1
  H  677  1  0.92501500  0.66802900  0.70852700  1
  H  679  1  0.99561000  0.59129500  0.69430600  1
  H  680  1  0.95758600  0.62100900  0.69129000  1
  H  682  1  0.07006400  0.57276300  0.73760900  1
  H  684  1  0.91494600  0.67885400  0.78332700  1
  H  692  1  0.95672900  0.12154700  0.19031100  1
  H  693  1  0.99587100  0.09316000  0.19274500  1
  H  695  1  0.91601300  0.19751800  0.23468800  1
  H  696  1  0.92368400  0.16813700  0.20782300  1
  H  698  1  0.09645500  0.12131900  0.26642400  1
  H  699  1  0.08437900  0.14974400  0.29328800  1
  H  701  1  0.99123000  0.17241100  0.32435000  1
  H  702  1  0.03382000  0.14915300  0.32239500  1
  H  704  1  0.91396600  0.17985100  0.28257400  1
  H  706  1  0.06173200  0.06877900  0.23718000  1
  H  714  1  0.53447800  0.50512400  0.93190400  1
  H  715  1  0.49204500  0.48149000  0.93021100  1
  H  717  1  0.59764100  0.53239200  0.98756200  1
  H  718  1  0.58494900  0.50383500  0.96099400  1
  H  720  1  0.41743000  0.45660800  0.01982500  1
  H  721  1  0.42493100  0.48610600  0.04663900  1
  H  723  1  0.49518600  0.56313100  0.06076800  1
  H  724  1  0.45753700  0.53298500  0.06395200  1
  H  726  1  0.57192900  0.57975900  0.01772700  1
  H  728  1  0.41493000  0.47518200  0.97186200  1
  C  1  1  0.20587800  0.10304000  0.10823500  1
  C  2  1  0.20333600  0.14566000  0.10857800  1
  C  3  1  0.15301400  0.14564800  0.14672500  1
  C  4  1  0.15058000  0.10302600  0.14708300  1
  C  5  1  0.12141400  0.08777600  0.16674400  1
  C  6  1  0.09675200  0.11330300  0.18355200  1
  C  7  1  0.10112700  0.15512600  0.18198800  1
  C  8  1  0.12985400  0.17099600  0.16416900  1
  C  9  1  0.22654900  0.17106100  0.09121200  1
  C  10  1  0.25532000  0.15528000  0.07340900  1
  C  11  1  0.25974400  0.11377000  0.07171100  1
  C  12  1  0.23509200  0.08784600  0.08856800  1
  C  13  1  0.20575600  0.05169600  0.14725200  1
  C  14  1  0.20304200  0.00908700  0.14676400  1
  C  15  1  0.15353400  0.00930800  0.10827700  1
  C  16  1  0.15060800  0.05191000  0.10791900  1
  C  17  1  0.13093500  0.98369400  0.09082600  1
  C  18  1  0.10222600  0.99915600  0.07309700  1
  C  19  1  0.09634200  0.04059700  0.07154300  1
  C  20  1  0.12093500  0.06689300  0.08832500  1
  C  21  1  0.23508800  0.06658200  0.16706400  1
  C  22  1  0.25980100  0.04029700  0.18370300  1
  C  23  1  0.25452700  0.99884400  0.18194800  1
  C  24  1  0.22579200  0.98339700  0.16413700  1
  C  37  1  0.17820100  0.07738300  0.12763500  1
  C  38  1  0.17821600  0.98648800  0.12752200  1
  C  41  1  0.17814800  0.16834500  0.12764000  1
  C  48  1  0.65054000  0.05172100  0.60788700  1
  C  49  1  0.65344800  0.00911600  0.60826300  1
  C  50  1  0.70327900  0.00871700  0.64664500  1
  C  51  1  0.70570800  0.05133200  0.64705900  1
  C  52  1  0.73474400  0.06642200  0.66688300  1
  C  53  1  0.75946700  0.04054400  0.68369300  1
  C  54  1  0.75511100  0.99899100  0.68193200  1
  C  55  1  0.72641900  0.98323800  0.66402500  1
  C  56  1  0.63082300  0.98361000  0.59076300  1
  C  57  1  0.60215300  0.99916200  0.57303300  1
  C  58  1  0.59627700  0.04061300  0.57151500  1
  C  59  1  0.62085900  0.06683900  0.58834700  1
  C  60  1  0.65064800  0.10281600  0.64705700  1
  C  61  1  0.65321100  0.14542300  0.64676900  1
  C  62  1  0.70311200  0.14518700  0.60844200  1
  C  63  1  0.70591400  0.10257800  0.60797400  1
  C  64  1  0.72580800  0.17075700  0.59100600  1
  C  65  1  0.75447200  0.15525300  0.57322300  1
  C  66  1  0.75997000  0.11379800  0.57149400  1
  C  67  1  0.73544200  0.08753000  0.58831700  1
  C  68  1  0.62143700  0.08771300  0.66675100  1
  C  69  1  0.59662800  0.11363200  0.68350100  1
  C  70  1  0.60123200  0.15514800  0.68191900  1
  C  71  1  0.63010100  0.17088700  0.66417200  1
  C  84  1  0.67820000  0.07710600  0.62752500  1
  C  85  1  0.67823000  0.16800400  0.62762300  1
  C  88  1  0.67817300  0.98620600  0.62751000  1
  C  95  1  0.15058300  0.60267100  0.64736000  1
  C  96  1  0.15337900  0.64526700  0.64689700  1
  C  97  1  0.20307300  0.64538400  0.60847200  1
  C  98  1  0.20591400  0.60280300  0.60822800  1
  C  99  1  0.23538000  0.58775100  0.58863300  1
  C  100  1  0.26013100  0.61387700  0.57195100  1
  C  101  1  0.25476400  0.65532700  0.57330600  1
  C  102  1  0.22585800  0.67091600  0.59098100  1
  C  103  1  0.13065000  0.67086200  0.66429100  1
  C  104  1  0.10191700  0.65536900  0.68203400  1
  C  105  1  0.09650700  0.61391000  0.68379100  1
  C  106  1  0.12109000  0.58762600  0.66703200  1
  C  107  1  0.15063600  0.55199400  0.60790000  1
  C  108  1  0.15366900  0.50941700  0.60815200  1
  C  109  1  0.20292800  0.50906300  0.64681600  1
  C  110  1  0.20581300  0.55164600  0.64731100  1
  C  111  1  0.22560600  0.48333600  0.66417000  1
  C  112  1  0.25439400  0.49870900  0.68193600  1
  C  113  1  0.25981900  0.54015300  0.68377600  1
  C  114  1  0.23531400  0.56653000  0.66703200  1
  C  115  1  0.12079200  0.56712100  0.58845800  1
  C  116  1  0.09630800  0.54092000  0.57150500  1
  C  117  1  0.10279200  0.49948500  0.57269800  1
  C  118  1  0.13133800  0.48391500  0.59048600  1
  C  131  1  0.17820700  0.57725600  0.62772400  1
  C  132  1  0.17812400  0.48652000  0.62751000  1
  C  135  1  0.17815800  0.66801400  0.62764900  1
  C  142  1  0.70583700  0.55113700  0.14701900  1
  C  143  1  0.70316000  0.50855900  0.14671800  1
  C  144  1  0.65348600  0.50894900  0.10822900  1
  C  145  1  0.65054900  0.55152900  0.10787600  1
  C  146  1  0.62090700  0.56670400  0.08833200  1
  C  147  1  0.59624100  0.54050100  0.07154600  1
  C  148  1  0.60242300  0.49906800  0.07283700  1
  C  149  1  0.63096400  0.48347700  0.09065200  1
  C  150  1  0.72613700  0.48306900  0.16416500  1
  C  151  1  0.75500900  0.49876300  0.18191400  1
  C  152  1  0.75986500  0.54025800  0.18342700  1
  C  153  1  0.73511600  0.56623600  0.16667800  1
  C  154  1  0.70580700  0.60221600  0.10789500  1
  C  155  1  0.70272500  0.64477800  0.10826200  1
  C  156  1  0.65379200  0.64467600  0.14711900  1
  C  157  1  0.65070500  0.60210500  0.14741100  1
  C  158  1  0.63155500  0.67023800  0.16480600  1
  C  159  1  0.60303400  0.65472500  0.18264400  1
  C  160  1  0.59641500  0.61330700  0.18380800  1
  C  161  1  0.62084700  0.58705000  0.16686400  1
  C  162  1  0.73560700  0.58723900  0.08838000  1
  C  163  1  0.76010800  0.61356200  0.07155300  1
  C  164  1  0.75363300  0.65497600  0.07284100  1
  C  165  1  0.72505200  0.67041200  0.09067600  1
  C  178  1  0.67818500  0.57677700  0.12756500  1
  C  179  1  0.67820600  0.66746500  0.12768300  1
  C  182  1  0.67809800  0.48605800  0.12755200  1
  C  189  1  0.95268800  0.35373100  0.39740300  1
  C  190  1  0.99503100  0.35037000  0.39847400  1
  C  191  1  0.99500100  0.30344600  0.35654000  1
  C  192  1  0.95262800  0.30034600  0.35749200  1
  C  193  1  0.93469800  0.27270900  0.33805200  1
  C  194  1  0.95735200  0.25046400  0.31783300  1
  C  195  1  0.99870000  0.25744400  0.31599300  1
  C  196  1  0.01741100  0.28279100  0.33564400  1
  C  197  1  0.01745900  0.37092000  0.41941500  1
  C  198  1  0.99881400  0.39648200  0.43895500  1
  C  199  1  0.95753800  0.40376300  0.43695900  1
  C  200  1  0.93483300  0.38155900  0.41674000  1
  C  201  1  0.90369200  0.35380900  0.35749200  1
  C  202  1  0.86131900  0.35071800  0.35653800  1
  C  203  1  0.86127400  0.30378500  0.39846300  1
  C  204  1  0.90362000  0.30041800  0.39739800  1
  C  205  1  0.83883300  0.28324800  0.41940400  1
  C  206  1  0.85746700  0.25769100  0.43895300  1
  C  207  1  0.89874300  0.25039800  0.43696300  1
  C  208  1  0.92146000  0.27259300  0.41674600  1
  C  209  1  0.92163100  0.38145700  0.33806300  1
  C  210  1  0.89897700  0.40372700  0.31785900  1
  C  211  1  0.85762300  0.39679700  0.31603800  1
  C  212  1  0.83891000  0.37139100  0.33564900  1
  C  225  1  0.92815700  0.32707500  0.37744200  1
  C  226  1  0.83833200  0.32732000  0.37752700  1
  C  229  1  0.01798100  0.32683800  0.37753800  1
  C  236  1  0.90367700  0.80054500  0.89747500  1
  C  237  1  0.86132800  0.80387300  0.89852500  1
  C  238  1  0.86136700  0.85078500  0.85658900  1
  C  239  1  0.90374000  0.85389300  0.85754500  1
  C  240  1  0.92165800  0.88153000  0.83809700  1
  C  241  1  0.89899800  0.90374300  0.81786100  1
  C  242  1  0.85765600  0.89673100  0.81601200  1
  C  243  1  0.83895200  0.87140000  0.83567400  1
  C  244  1  0.83888600  0.78330200  0.91944900  1
  C  245  1  0.85752400  0.75767400  0.93894800  1
  C  246  1  0.89882100  0.75048200  0.93701400  1
  C  247  1  0.92152900  0.77271700  0.91681500  1
  C  248  1  0.95273000  0.80048500  0.85759700  1
  C  249  1  0.99508800  0.80373500  0.85657600  1
  C  250  1  0.99507600  0.85056300  0.89854700  1
  C  251  1  0.95272700  0.85388100  0.89747500  1
  C  252  1  0.01748600  0.87107700  0.91951300  1
  C  253  1  0.99882000  0.89663800  0.93904000  1
  C  254  1  0.95753200  0.90386000  0.93706600  1
  C  255  1  0.93485100  0.88167400  0.91682500  1
  C  256  1  0.93485700  0.77265700  0.83827400  1
  C  257  1  0.95756200  0.75036500  0.81811100  1
  C  258  1  0.99885900  0.75755700  0.81614700  1
  C  259  1  0.01751600  0.78314300  0.83565900  1
  C  272  1  0.92821400  0.82720400  0.87752100  1
  C  273  1  0.01805300  0.82713200  0.87757400  1
  C  276  1  0.83838300  0.82739000  0.87758100  1
  C  283  1  0.45262700  0.30019700  0.85764100  1
  C  284  1  0.49499400  0.30334100  0.85665500  1
  C  285  1  0.49504800  0.35029200  0.89857200  1
  C  286  1  0.45269600  0.35358700  0.89755000  1
  C  287  1  0.43484700  0.38142100  0.91688300  1
  C  288  1  0.45756100  0.40369100  0.93705900  1
  C  289  1  0.49886200  0.39651500  0.93898000  1
  C  290  1  0.51749600  0.37089300  0.91947600  1
  C  291  1  0.51739700  0.28274500  0.83572300  1
  C  292  1  0.49868800  0.25735900  0.81610000  1
  C  293  1  0.45734600  0.25036900  0.81794000  1
  C  294  1  0.43469700  0.27255900  0.83819700  1
  C  295  1  0.40369400  0.30019400  0.89760700  1
  C  296  1  0.36132700  0.30333500  0.89859800  1
  C  297  1  0.36126100  0.35027700  0.85668100  1
  C  298  1  0.40361700  0.35357500  0.85769900  1
  C  299  1  0.33880800  0.37088100  0.83578300  1
  C  300  1  0.35743300  0.39650300  0.81627700  1
  C  301  1  0.39873300  0.40369100  0.81820200  1
  C  302  1  0.42145900  0.38142100  0.83837000  1
  C  303  1  0.42163000  0.27256600  0.91705600  1
  C  304  1  0.39899100  0.25038600  0.93732400  1
  C  305  1  0.35764600  0.25736700  0.93916200  1
  C  306  1  0.33893100  0.28274300  0.91953400  1
  C  319  1  0.42815900  0.32688300  0.87762500  1
  C  320  1  0.33832800  0.32676300  0.87763200  1
  C  323  1  0.51798700  0.32677200  0.87762300  1
  C  330  1  0.40365800  0.85366800  0.35776500  1
  C  331  1  0.36130900  0.85032900  0.35672100  1
  C  332  1  0.36136600  0.80341400  0.39866000  1
  C  333  1  0.40373900  0.80031700  0.39769700  1
  C  334  1  0.42167200  0.77267500  0.41713900  1
  C  335  1  0.39901800  0.75043400  0.43736400  1
  C  336  1  0.35767000  0.75740700  0.43920000  1
  C  337  1  0.33896100  0.78278900  0.41957500  1
  C  338  1  0.33885600  0.87090000  0.33580700  1
  C  339  1  0.35747800  0.89652200  0.31629800  1
  C  340  1  0.39876600  0.90375800  0.31825000  1
  C  341  1  0.42149500  0.88151500  0.33843200  1
  C  342  1  0.45272600  0.85372800  0.39763700  1
  C  343  1  0.49508400  0.85046700  0.39866000  1
  C  344  1  0.49506000  0.80364200  0.35668500  1
  C  345  1  0.45270800  0.80033800  0.35775900  1
  C  346  1  0.51746000  0.78310100  0.33572500  1
  C  347  1  0.49878400  0.75752400  0.31621500  1
  C  348  1  0.45749500  0.75030200  0.31821100  1
  C  349  1  0.43482000  0.77252200  0.33843200  1
  C  350  1  0.43485300  0.88153300  0.41697700  1
  C  351  1  0.45755800  0.90379400  0.43715900  1
  C  352  1  0.49885300  0.89659400  0.43912100  1
  C  353  1  0.51751100  0.87103500  0.41959200  1
  C  366  1  0.42820400  0.82701200  0.37771700  1
  C  367  1  0.51804400  0.82706000  0.37766200  1
  C  370  1  0.33837300  0.82681100  0.37767200  1
  C  377  1  0.02729800  0.03559700  0.01383900  1
  C  378  1  0.03771400  0.01814500  0.98698300  1
  C  379  1  0.00822400  0.99658400  0.97100100  1
  C  380  1  0.97291700  0.98229400  0.98478700  1
  C  381  1  0.96519700  0.99466000  0.01361700  1
  C  382  1  0.99056200  0.02381900  0.02716100  1
  C  395  1  0.05515100  0.06029200  0.02825200  1
  C  397  1  0.94176100  0.96301200  0.96940900  1
  C  399  1  0.82900900  0.11874700  0.51383200  1
  C  400  1  0.81857100  0.13613100  0.48697900  1
  C  401  1  0.84804200  0.15770300  0.47100100  1
  C  402  1  0.88336700  0.17198200  0.48477200  1
  C  403  1  0.89111700  0.15958400  0.51359500  1
  C  404  1  0.86574300  0.13045100  0.52715600  1
  C  417  1  0.80137800  0.09370600  0.52811000  1
  C  419  1  0.91449900  0.19128300  0.46937900  1
  C  421  1  0.32898100  0.53526400  0.74142100  1
  C  422  1  0.31856400  0.51796300  0.76829800  1
  C  423  1  0.34805900  0.49641800  0.78427300  1
  C  424  1  0.38341500  0.48219400  0.77049400  1
  C  425  1  0.39113400  0.49457200  0.74166200  1
  C  426  1  0.36571900  0.52364400  0.72808600  1
  C  439  1  0.30139600  0.56034300  0.72720000  1
  C  441  1  0.41453100  0.46288200  0.78588300  1
  C  443  1  0.52727700  0.61842200  0.24140000  1
  C  444  1  0.53767400  0.63603600  0.26825700  1
  C  445  1  0.50813100  0.65752100  0.28426500  1
  C  446  1  0.47285600  0.67189900  0.27049000  1
  C  447  1  0.46515800  0.65953000  0.24166400  1
  C  448  1  0.49047100  0.63028700  0.22814800  1
  C  461  1  0.55568700  0.59448700  0.22664700  1
  C  463  1  0.44169700  0.69116200  0.28587200  1
  C  465  1  0.38456000  0.67216600  0.48555100  1
  C  466  1  0.39235400  0.65983900  0.51440400  1
  C  467  1  0.36683400  0.63099400  0.52813000  1
  C  468  1  0.33009000  0.61959100  0.51479500  1
  C  469  1  0.31968800  0.63654900  0.48788000  1
  C  470  1  0.34917700  0.65790200  0.47182100  1
  C  483  1  0.41543700  0.69176500  0.47011100  1
  C  485  1  0.30292700  0.59375900  0.52844100  1
  C  487  1  0.88450400  0.48193600  0.26968500  1
  C  488  1  0.89229200  0.49424500  0.24082300  1
  C  489  1  0.86667600  0.52295200  0.22704900  1
  C  490  1  0.82984200  0.53408800  0.24033700  1
  C  491  1  0.81954800  0.51739400  0.26733700  1
  C  492  1  0.84908800  0.49614300  0.28340900  1
  C  505  1  0.91540800  0.46240900  0.28513800  1
  C  507  1  0.80294900  0.56042100  0.22697400  1
  C  509  1  0.47190000  0.17227900  0.76967500  1
  C  510  1  0.46409600  0.15997500  0.74080800  1
  C  511  1  0.48975100  0.13132700  0.72700200  1
  C  512  1  0.52660600  0.12022500  0.74027300  1
  C  513  1  0.53684900  0.13680300  0.76731600  1
  C  514  1  0.50731200  0.15805600  0.78339100  1
  C  527  1  0.44096300  0.19175800  0.78513800  1
  C  529  1  0.55336100  0.09363900  0.72703200  1
  C  531  1  0.02728800  0.53574600  0.51384500  1
  C  532  1  0.03769800  0.51814600  0.48698500  1
  C  533  1  0.00819100  0.49660100  0.47098000  1
  C  534  1  0.97291700  0.48220300  0.48474400  1
  C  535  1  0.96518800  0.49460200  0.51356100  1
  C  536  1  0.99047800  0.52386000  0.52708400  1
  C  549  1  0.05564100  0.55975200  0.52858200  1
  C  551  1  0.94177900  0.46290300  0.46934700  1
  C  553  1  0.82911400  0.61853900  0.01379100  1
  C  554  1  0.81869700  0.63609000  0.98694000  1
  C  555  1  0.84820100  0.65763200  0.97094600  1
  C  556  1  0.88348400  0.67196800  0.98472900  1
  C  557  1  0.89121600  0.65958700  0.01355200  1
  C  558  1  0.86588400  0.63037700  0.02707900  1
  C  571  1  0.80091100  0.59437700  0.02843300  1
  C  573  1  0.91461300  0.69130600  0.96935300  1
  C  575  1  0.32888500  0.03500300  0.24136100  1
  C  576  1  0.31851600  0.01787200  0.26826800  1
  C  577  1  0.34801700  0.99636200  0.28424100  1
  C  578  1  0.38337000  0.98212600  0.27047300  1
  C  579  1  0.39110100  0.99451000  0.24163400  1
  C  580  1  0.36562600  0.02348600  0.22801400  1
  C  593  1  0.30153700  0.06048800  0.22739700  1
  C  595  1  0.41452800  0.96289800  0.28587000  1
  C  597  1  0.38443100  0.17227000  0.98556400  1
  C  598  1  0.39224900  0.15995700  0.01442500  1
  C  599  1  0.36663000  0.13126200  0.02821700  1
  C  600  1  0.32980200  0.12009400  0.01493800  1
  C  601  1  0.31952000  0.13672000  0.98791200  1
  C  602  1  0.34903000  0.15802600  0.97184500  1
  C  615  1  0.41536500  0.19175400  0.97010300  1
  C  617  1  0.30302900  0.09358700  0.02824400  1
  C  619  1  0.88437500  0.98187100  0.76964700  1
  C  620  1  0.89219900  0.99419500  0.74078700  1
  C  621  1  0.86654400  0.02283600  0.72698000  1
  C  622  1  0.82971300  0.03396800  0.74026800  1
  C  623  1  0.81943400  0.01739000  0.76730500  1
  C  624  1  0.84895600  0.99608000  0.78336600  1
  C  637  1  0.91532400  0.96240400  0.78510100  1
  C  639  1  0.80304500  0.06070100  0.72705100  1
  C  641  1  0.52727400  0.03568900  0.51383600  1
  C  642  1  0.53770100  0.01819200  0.48698700  1
  C  643  1  0.50821800  0.99660800  0.47101400  1
  C  644  1  0.47292200  0.98230300  0.48480600  1
  C  645  1  0.46520000  0.99468000  0.51363100  1
  C  646  1  0.49054000  0.02387500  0.52715800  1
  C  659  1  0.55517200  0.06032600  0.52829000  1
  C  661  1  0.44177200  0.96300300  0.46943900  1
  C  663  1  0.02735600  0.61877500  0.74139100  1
  C  664  1  0.03776600  0.63611700  0.76825700  1
  C  665  1  0.00826800  0.65765300  0.78422800  1
  C  666  1  0.97294400  0.67190800  0.77044300  1
  C  667  1  0.96522400  0.65954200  0.74160900  1
  C  668  1  0.99063100  0.63044300  0.72804600  1
  C  681  1  0.05497100  0.59371100  0.72716000  1
  C  683  1  0.94178500  0.69116200  0.78582100  1
  C  685  1  0.97190900  0.17228700  0.26966400  1
  C  686  1  0.96410600  0.15997700  0.24080000  1
  C  687  1  0.98976700  0.13132700  0.22700000  1
  C  688  1  0.02662400  0.12020500  0.24028300  1
  C  689  1  0.03685200  0.13679900  0.26732200  1
  C  690  1  0.00731600  0.15806800  0.28338700  1
  C  703  1  0.94097200  0.19176000  0.28512100  1
  C  705  1  0.05349900  0.09323300  0.22707400  1
  C  707  1  0.52726200  0.53559600  0.01381600  1
  C  708  1  0.53771000  0.51806800  0.98698500  1
  C  709  1  0.50821500  0.49652600  0.97099500  1
  C  710  1  0.47291300  0.48219100  0.98476500  1
  C  711  1  0.46517600  0.49461100  0.01358400  1
  C  712  1  0.49051300  0.52380300  0.02712100  1
  C  725  1  0.55523500  0.56017200  0.02829500  1
  C  727  1  0.44178100  0.46289100  0.96937700  1
  N  44  1  0.07050400  0.04520300  0.05071300  1
  N  45  1  0.28184100  0.10390000  0.04972300  1
  N  46  1  0.07431700  0.10413100  0.20553600  1
  N  47  1  0.28353500  0.04687600  0.20545000  1
  N  91  1  0.78507100  0.10852400  0.55031200  1
  N  92  1  0.57017600  0.04511400  0.55083100  1
  N  93  1  0.78159600  0.05061300  0.70563400  1
  N  94  1  0.57467200  0.10361800  0.70552800  1
  N  138  1  0.28457800  0.54573800  0.70511400  1
  N  139  1  0.07156900  0.60844200  0.70503700  1
  N  140  1  0.28309400  0.60581000  0.55006500  1
  N  141  1  0.06853900  0.54453300  0.55179000  1
  N  185  1  0.56855400  0.60973700  0.20345200  1
  N  186  1  0.78202800  0.54982100  0.20544300  1
  N  187  1  0.57017000  0.54497600  0.05084500  1
  N  188  1  0.78699800  0.60965600  0.05130000  1
  N  232  1  0.91589600  0.22107900  0.45183100  1
  N  233  1  0.94037300  0.43309100  0.45181400  1
  N  234  1  0.94001000  0.22142700  0.30279100  1
  N  235  1  0.91633700  0.43274300  0.30280800  1
  N  279  1  0.94033100  0.93318700  0.95189000  1
  N  280  1  0.91600100  0.72114000  0.95183900  1
  N  281  1  0.91631900  0.93276800  0.80279700  1
  N  282  1  0.94036100  0.72101100  0.80331800  1
  N  326  1  0.41591300  0.43303700  0.80338600  1
  N  327  1  0.43999700  0.22138200  0.80284600  1
  N  328  1  0.44038400  0.43304600  0.95187300  1
  N  329  1  0.41633900  0.22138800  0.95240300  1
  N  373  1  0.44026700  0.72098700  0.30339100  1
  N  374  1  0.41593700  0.93308800  0.30340600  1
  N  375  1  0.41636000  0.72142800  0.45243500  1
  N  376  1  0.44034800  0.93314800  0.45194600  1
  N  383  1  0.01327100  0.99167400  0.94224800  1
  N  386  1  0.07596000  0.02089600  0.97658800  1
  N  389  1  0.93257000  0.97903200  0.02752600  1
  N  392  1  0.98080400  0.04044600  0.05300000  1
  N  405  1  0.84300500  0.16251400  0.44225100  1
  N  408  1  0.78031900  0.13323900  0.47662600  1
  N  411  1  0.92377700  0.17515100  0.52749400  1
  N  414  1  0.87547400  0.11380100  0.55299400  1
  N  427  1  0.34298700  0.49154100  0.81302400  1
  N  430  1  0.28032700  0.52094600  0.77867400  1
  N  433  1  0.42379700  0.47902500  0.72776000  1
  N  436  1  0.37542300  0.54032700  0.70225500  1
  N  449  1  0.51312800  0.66241100  0.31303300  1
  N  452  1  0.57593100  0.63367100  0.27872100  1
  N  455  1  0.43254200  0.67521100  0.22776000  1
  N  458  1  0.48057800  0.61364900  0.20234400  1
  N  471  1  0.37628900  0.61451300  0.55407400  1
  N  474  1  0.42510500  0.67528900  0.52824500  1
  N  477  1  0.28136600  0.63347000  0.47771000  1
  N  480  1  0.34403300  0.66244700  0.44305700  1
  N  493  1  0.87611600  0.53953800  0.20113700  1
  N  496  1  0.92510800  0.47891100  0.22700000  1
  N  499  1  0.78127800  0.52075100  0.27754900  1
  N  502  1  0.84396800  0.49172100  0.31218100  1
  N  515  1  0.48032000  0.11475100  0.70108600  1
  N  518  1  0.43123200  0.17524700  0.72700400  1
  N  521  1  0.57508300  0.13329800  0.77756800  1
  N  524  1  0.51237000  0.16241800  0.81216800  1
  N  537  1  0.01320600  0.49169700  0.44221600  1
  N  540  1  0.07594100  0.52059800  0.47650700  1
  N  543  1  0.93255200  0.47893500  0.52745100  1
  N  546  1  0.98055800  0.54050400  0.55288000  1
  N  559  1  0.84316700  0.66255200  0.94219100  1
  N  562  1  0.78043900  0.63355100  0.97651300  1
  N  565  1  0.92383700  0.67524100  0.02745600  1
  N  568  1  0.87570200  0.61376300  0.05290900  1
  N  581  1  0.34297200  0.99160500  0.31299400  1
  N  584  1  0.28028700  0.02102700  0.27860400  1
  N  587  1  0.42380000  0.97902000  0.22774300  1
  N  590  1  0.37524600  0.04013400  0.20215300  1
  N  603  1  0.37608200  0.11469100  0.05413300  1
  N  606  1  0.42509600  0.17525800  0.02823200  1
  N  609  1  0.28128400  0.13321100  0.97766300  1
  N  612  1  0.34396100  0.16241500  0.94307000  1
  N  625  1  0.87593600  0.03936500  0.70103600  1
  N  628  1  0.92506000  0.97893000  0.72698300  1
  N  631  1  0.78122100  0.02108400  0.77759600  1
  N  634  1  0.84389600  0.99170100  0.81214000  1
  N  647  1  0.51325400  0.99168000  0.44225900  1
  N  650  1  0.57594300  0.02090400  0.47657900  1
  N  653  1  0.43257500  0.97904700  0.52754100  1
  N  656  1  0.48075800  0.04050500  0.55298900  1
  N  669  1  0.01328500  0.66245900  0.81298100  1
  N  672  1  0.07601100  0.63321000  0.77861200  1
  N  675  1  0.93257900  0.67511500  0.72769800  1
  N  678  1  0.98093600  0.61379600  0.70220200  1
  N  691  1  0.98034200  0.11475200  0.20108100  1
  N  694  1  0.93123900  0.17523800  0.22699500  1
  N  697  1  0.07508100  0.13327700  0.27757700  1
  N  700  1  0.01236900  0.16244300  0.31216600  1
  N  713  1  0.51326900  0.49163700  0.94224000  1
  N  716  1  0.57598500  0.52066700  0.97662000  1
  N  719  1  0.43252400  0.47900100  0.02748000  1
  N  722  1  0.48072800  0.54044100  0.05294900  1
