# generated using pymatgen
data_ZnH20C26NO4
_symmetry_space_group_name_H-M   'P 1'
_cell_length_a   13.14413000
_cell_length_b   13.14240000
_cell_length_c   16.06827000
_cell_angle_alpha   92.04012000
_cell_angle_beta   92.04537000
_cell_angle_gamma   108.42469000
_symmetry_Int_Tables_number   1
_chemical_formula_structural   ZnH20C26NO4
_chemical_formula_sum   'Zn4 H80 C104 N4 O16'
_cell_volume   2628.53954479
_cell_formula_units_Z   4
loop_
 _symmetry_equiv_pos_site_id
 _symmetry_equiv_pos_as_xyz
  1  'x, y, z'
loop_
 _atom_site_type_symbol
 _atom_site_label
 _atom_site_symmetry_multiplicity
 _atom_site_fract_x
 _atom_site_fract_y
 _atom_site_fract_z
 _atom_site_occupancy
  Zn  Zn0  1  0.56032000  0.57003000  0.44003000  1
  Zn  Zn1  1  0.43968000  0.42996000  0.55997000  1
  Zn  Zn2  1  0.42997000  0.43967000  0.05997000  1
  Zn  Zn3  1  0.57002000  0.56033000  0.94003000  1
  H  H4  1  0.77578000  0.81675000  0.08167000  1
  H  H5  1  0.98774000  0.73631000  0.44970000  1
  H  H6  1  0.20454000  0.90971000  0.43230000  1
  H  H7  1  0.61392000  0.02969000  0.66037000  1
  H  H8  1  0.76717000  0.74203000  0.45263000  1
  H  H9  1  0.01225000  0.26368000  0.55030000  1
  H  H10  1  0.43687000  0.95279000  0.90178000  1
  H  H11  1  0.50112000  0.82643000  0.86531000  1
  H  H12  1  0.18322000  0.22425000  0.41832000  1
  H  H13  1  0.92806000  0.94008000  0.22665000  1
  H  H14  1  0.00338000  0.80905000  0.14618000  1
  H  H15  1  0.25649000  0.01914000  0.93980000  1
  H  H16  1  0.32407000  0.68886000  0.16982000  1
  H  H17  1  0.19092000  0.99663000  0.35384000  1
  H  H18  1  0.79004000  0.10586000  0.01340000  1
  H  H19  1  0.85333000  0.31100000  0.74383000  1
  H  H20  1  0.35562000  0.24960000  0.83847000  1
  H  H21  1  0.38607000  0.97031000  0.33962000  1
  H  H22  1  0.95283000  0.43687000  0.40182000  1
  H  H23  1  0.04716000  0.56312000  0.59818000  1
  H  H24  1  0.31110000  0.67594000  0.33015000  1
  H  H25  1  0.94010000  0.92805000  0.72665000  1
  H  H26  1  0.81677000  0.77575000  0.58168000  1
  H  H27  1  0.13109000  0.39408000  0.92853000  1
  H  H28  1  0.20995000  0.89414000  0.98660000  1
  H  H29  1  0.68889000  0.32406000  0.66985000  1
  H  H30  1  0.89416000  0.21002000  0.48657000  1
  H  H31  1  0.11769000  0.43043000  0.47842000  1
  H  H32  1  0.67592000  0.31114000  0.83018000  1
  H  H33  1  0.49887000  0.17357000  0.13469000  1
  H  H34  1  0.74204000  0.76720000  0.95263000  1
  H  H35  1  0.48258000  0.66741000  0.77392000  1
  H  H36  1  0.82645000  0.50114000  0.36532000  1
  H  H37  1  0.43043000  0.11765000  0.97841000  1
  H  H38  1  0.74350000  0.98086000  0.06019000  1
  H  H39  1  0.36772000  0.46813000  0.23734000  1
  H  H40  1  0.23282000  0.25796000  0.54736000  1
  H  H41  1  0.31102000  0.85331000  0.24383000  1
  H  H42  1  0.79545000  0.09029000  0.56769000  1
  H  H43  1  0.13269000  0.10962000  0.14022000  1
  H  H44  1  0.86214000  0.10309000  0.85282000  1
  H  H45  1  0.51741000  0.33258000  0.22608000  1
  H  H46  1  0.73636000  0.98775000  0.94969000  1
  H  H47  1  0.75039000  0.64435000  0.66154000  1
  H  H48  1  0.53188000  0.63229000  0.26264000  1
  H  H49  1  0.89036000  0.86729000  0.35978000  1
  H  H50  1  0.68897000  0.14669000  0.75617000  1
  H  H51  1  0.10583000  0.78997000  0.51342000  1
  H  H52  1  0.05990000  0.07195000  0.27335000  1
  H  H53  1  0.33254000  0.51740000  0.72606000  1
  H  H54  1  0.17354000  0.49886000  0.63468000  1
  H  H55  1  0.09027000  0.79543000  0.06771000  1
  H  H56  1  0.99662000  0.19095000  0.85382000  1
  H  H57  1  0.63227000  0.53187000  0.76266000  1
  H  H58  1  0.88230000  0.56957000  0.52158000  1
  H  H59  1  0.64438000  0.75040000  0.16152000  1
  H  H60  1  0.66746000  0.48260000  0.27394000  1
  H  H61  1  0.07193000  0.05992000  0.77335000  1
  H  H62  1  0.98084000  0.74347000  0.56021000  1
  H  H63  1  0.14666000  0.68900000  0.25616000  1
  H  H64  1  0.56312000  0.04721000  0.09822000  1
  H  H65  1  0.25795000  0.23280000  0.04736000  1
  H  H66  1  0.46812000  0.36770000  0.73735000  1
  H  H67  1  0.22422000  0.18325000  0.91833000  1
  H  H68  1  0.13785000  0.89690000  0.14717000  1
  H  H69  1  0.02964000  0.61393000  0.16035000  1
  H  H70  1  0.97035000  0.38607000  0.83964000  1
  H  H71  1  0.39407000  0.13106000  0.42853000  1
  H  H72  1  0.10963000  0.13271000  0.64022000  1
  H  H73  1  0.90972000  0.20457000  0.93229000  1
  H  H74  1  0.60593000  0.86893000  0.57147000  1
  H  H75  1  0.89693000  0.13786000  0.64715000  1
  H  H76  1  0.01915000  0.25653000  0.43979000  1
  H  H77  1  0.86891000  0.60592000  0.07146000  1
  H  H78  1  0.86730000  0.89037000  0.85978000  1
  H  H79  1  0.10307000  0.86214000  0.35284000  1
  H  H80  1  0.56957000  0.88234000  0.02158000  1
  H  H81  1  0.80907000  0.00337000  0.64616000  1
  H  H82  1  0.24961000  0.35565000  0.33846000  1
  H  H83  1  0.26363000  0.01225000  0.05031000  1
  C  C84  1  0.24876000  0.32426000  0.27483000  1
  C  C85  1  0.12290000  0.48617000  0.42916000  1
  C  C86  1  0.41115000  0.04910000  0.31351000  1
  C  C87  1  0.45701000  0.24216000  0.33370000  1
  C  C88  1  0.07242000  0.05991000  0.94393000  1
  C  C89  1  0.77530000  0.44980000  0.59271000  1
  C  C90  1  0.50913000  0.96937000  0.11363000  1
  C  C91  1  0.25599000  0.25331000  0.61235000  1
  C  C92  1  0.16269000  0.47761000  0.69936000  1
  C  C93  1  0.13973000  0.63060000  0.30374000  1
  C  C94  1  0.05990000  0.07244000  0.44393000  1
  C  C95  1  0.58884000  0.95090000  0.68649000  1
  C  C96  1  0.96858000  0.07005000  0.94674000  1
  C  C97  1  0.23202000  0.62450000  0.34537000  1
  C  C98  1  0.18440000  0.18797000  0.16461000  1
  C  C99  1  0.86095000  0.58268000  0.13579000  1
  C  C100  1  0.05895000  0.44115000  0.73011000  1
  C  C101  1  0.18351000  0.21983000  0.24898000  1
  C  C102  1  0.33838000  0.46809000  0.89029000  1
  C  C103  1  0.55019000  0.22469000  0.90730000  1
  C  C104  1  0.51383000  0.87711000  0.07083000  1
  C  C105  1  0.14338000  0.11718000  0.80436000  1
  C  C106  1  0.06668000  0.85392000  0.10679000  1
  C  C107  1  0.32424000  0.24876000  0.77484000  1
  C  C108  1  0.47762000  0.16272000  0.19937000  1
  C  C109  1  0.44980000  0.77531000  0.09269000  1
  C  C110  1  0.61201000  0.68519000  0.28141000  1
  C  C111  1  0.99034000  0.10367000  0.49692000  1
  C  C112  1  0.46554000  0.67598000  0.05494000  1
  C  C113  1  0.02106000  0.78589000  0.50707000  1
  C  C114  1  0.74400000  0.74668000  0.38765000  1
  C  C115  1  0.00966000  0.89633000  0.50308000  1
  C  C116  1  0.53191000  0.66162000  0.60970000  1
  C  C117  1  0.92995000  0.03142000  0.55324000  1
  C  C118  1  0.24215000  0.45701000  0.83370000  1
  C  C119  1  0.04911000  0.41115000  0.81351000  1
  C  C120  1  0.56125000  0.03731000  0.82116000  1
  C  C121  1  0.95088000  0.58884000  0.18648000  1
  C  C122  1  0.25331000  0.25598000  0.11234000  1
  C  C123  1  0.92757000  0.94009000  0.05607000  1
  C  C124  1  0.52238000  0.83728000  0.80063000  1
  C  C125  1  0.41731000  0.13902000  0.36421000  1
  C  C126  1  0.78592000  0.02107000  0.00706000  1
  C  C127  1  0.03731000  0.56125000  0.32116000  1
  C  C128  1  0.84740000  0.87529000  0.11172000  1
  C  C129  1  0.15259000  0.12471000  0.88827000  1
  C  C130  1  0.67575000  0.75124000  0.22516000  1
  C  C131  1  0.94010000  0.92756000  0.55607000  1
  C  C132  1  0.94105000  0.55885000  0.26989000  1
  C  C133  1  0.67597000  0.46554000  0.55495000  1
  C  C134  1  0.38799000  0.31481000  0.71859000  1
  C  C135  1  0.51286000  0.74687000  0.74924000  1
  C  C136  1  0.78017000  0.81648000  0.25101000  1
  C  C137  1  0.76798000  0.37550000  0.65463000  1
  C  C138  1  0.03141000  0.92994000  0.05325000  1
  C  C139  1  0.53444000  0.32402000  0.94506000  1
  C  C140  1  0.81560000  0.81203000  0.83539000  1
  C  C141  1  0.12469000  0.15262000  0.38827000  1
  C  C142  1  0.07005000  0.96858000  0.44676000  1
  C  C143  1  0.74689000  0.51287000  0.24925000  1
  C  C144  1  0.83730000  0.52239000  0.30064000  1
  C  C145  1  0.62449000  0.23203000  0.84539000  1
  C  C146  1  0.21982000  0.18352000  0.74899000  1
  C  C147  1  0.55884000  0.94104000  0.76989000  1
  C  C148  1  0.22469000  0.55020000  0.40729000  1
  C  C149  1  0.10365000  0.99034000  0.99693000  1
  C  C150  1  0.36940000  0.86025000  0.19625000  1
  C  C151  1  0.37550000  0.76796000  0.15461000  1
  C  C152  1  0.81648000  0.78017000  0.75101000  1
  C  C153  1  0.31482000  0.38800000  0.21857000  1
  C  C154  1  0.75784000  0.54299000  0.16630000  1
  C  C155  1  0.66161000  0.53191000  0.10971000  1
  C  C156  1  0.81202000  0.81559000  0.33539000  1
  C  C157  1  0.85661000  0.88282000  0.19564000  1
  C  C158  1  0.32403000  0.53446000  0.44505000  1
  C  C159  1  0.14606000  0.93332000  0.39322000  1
  C  C160  1  0.46809000  0.33838000  0.39030000  1
  C  C161  1  0.25311000  0.48713000  0.75075000  1
  C  C162  1  0.96934000  0.50913000  0.61362000  1
  C  C163  1  0.75123000  0.67574000  0.72517000  1
  C  C164  1  0.87531000  0.84738000  0.61173000  1
  C  C165  1  0.49087000  0.03063000  0.88637000  1
  C  C166  1  0.48714000  0.25313000  0.25076000  1
  C  C167  1  0.58268000  0.86097000  0.63579000  1
  C  C168  1  0.86026000  0.36940000  0.69626000  1
  C  C169  1  0.13904000  0.41731000  0.86421000  1
  C  C170  1  0.48616000  0.12288000  0.92916000  1
  C  C171  1  0.43874000  0.96269000  0.17884000  1
  C  C172  1  0.97893000  0.21411000  0.49293000  1
  C  C173  1  0.18797000  0.18441000  0.66461000  1
  C  C174  1  0.93332000  0.14608000  0.89321000  1
  C  C175  1  0.89634000  0.00965000  0.00307000  1
  C  C176  1  0.03065000  0.49087000  0.38638000  1
  C  C177  1  0.21407000  0.97893000  0.99294000  1
  C  C178  1  0.87709000  0.51383000  0.57083000  1
  C  C179  1  0.96269000  0.43875000  0.67884000  1
  C  C180  1  0.88283000  0.85660000  0.69564000  1
  C  C181  1  0.63059000  0.13975000  0.80375000  1
  C  C182  1  0.74668000  0.74402000  0.88765000  1
  C  C183  1  0.85393000  0.06668000  0.60677000  1
  C  C184  1  0.44115000  0.05895000  0.23011000  1
  C  C185  1  0.68518000  0.61200000  0.78142000  1
  C  C186  1  0.54298000  0.75784000  0.66630000  1
  C  C187  1  0.11716000  0.14339000  0.30435000  1
  N  N188  1  0.68080000  0.64597000  0.86123000  1
  N  N189  1  0.35403000  0.31919000  0.63878000  1
  N  N190  1  0.64596000  0.68081000  0.36122000  1
  N  N191  1  0.31920000  0.35402000  0.13877000  1
  O  O192  1  0.41613000  0.58799000  0.08776000  1
  O  O193  1  0.58386000  0.41200000  0.91224000  1
  O  O194  1  0.42979000  0.52478000  0.86643000  1
  O  O195  1  0.67829000  0.58002000  0.04152000  1
  O  O196  1  0.58001000  0.67830000  0.54152000  1
  O  O197  1  0.47522000  0.57020000  0.63356000  1
  O  O198  1  0.41199000  0.58390000  0.41223000  1
  O  O199  1  0.31275000  0.47054000  0.50443000  1
  O  O200  1  0.58800000  0.41610000  0.58777000  1
  O  O201  1  0.41998000  0.32169000  0.45848000  1
  O  O202  1  0.47053000  0.31273000  0.00443000  1
  O  O203  1  0.52477000  0.42980000  0.36644000  1
  O  O204  1  0.32171000  0.41998000  0.95847000  1
  O  O205  1  0.57021000  0.47522000  0.13357000  1
  O  O206  1  0.68725000  0.52946000  0.49557000  1
  O  O207  1  0.52946000  0.68727000  0.99557000  1
