# generated using pymatgen
data_GdH24C44S4(NO3)4
_symmetry_space_group_name_H-M   'P 1'
_cell_length_a   9.94430000
_cell_length_b   15.31567000
_cell_length_c   15.31579000
_cell_angle_alpha   89.99955000
_cell_angle_beta   90.00000000
_cell_angle_gamma   89.99866000
_symmetry_Int_Tables_number   1
_chemical_formula_structural   GdH24C44S4(NO3)4
_chemical_formula_sum   'Gd2 H48 C88 S8 N8 O24'
_cell_volume   2332.65021627
_cell_formula_units_Z   2
loop_
 _symmetry_equiv_pos_site_id
 _symmetry_equiv_pos_as_xyz
  1  'x, y, z'
loop_
 _atom_site_type_symbol
 _atom_site_label
 _atom_site_symmetry_multiplicity
 _atom_site_fract_x
 _atom_site_fract_y
 _atom_site_fract_z
 _atom_site_occupancy
  Gd  Gd0  1  0.74947000  0.49998000  0.49999000  1
  Gd  Gd1  1  0.24939000  0.49998000  0.50000000  1
  H  H2  1  0.78251000  0.58222000  0.73749000  1
  H  H3  1  0.78329000  0.71816000  0.82456000  1
  H  H4  1  0.78249000  0.41778000  0.26251000  1
  H  H5  1  0.78328000  0.28183000  0.17544000  1
  H  H6  1  0.78207000  0.26264000  0.58178000  1
  H  H7  1  0.78234000  0.17376000  0.71654000  1
  H  H8  1  0.78211000  0.73735000  0.41823000  1
  H  H9  1  0.78238000  0.82622000  0.28348000  1
  H  H10  1  0.71657000  0.41808000  0.73713000  1
  H  H11  1  0.71637000  0.28208000  0.82399000  1
  H  H12  1  0.71657000  0.58192000  0.26288000  1
  H  H13  1  0.71638000  0.71792000  0.17602000  1
  H  H14  1  0.71687000  0.73717000  0.58140000  1
  H  H15  1  0.71748000  0.82634000  0.71593000  1
  H  H16  1  0.71681000  0.26283000  0.41863000  1
  H  H17  1  0.71748000  0.17366000  0.28409000  1
  H  H18  1  0.21686000  0.41859000  0.26284000  1
  H  H19  1  0.21735000  0.28384000  0.17398000  1
  H  H20  1  0.21689000  0.58141000  0.73716000  1
  H  H21  1  0.21736000  0.71616000  0.82602000  1
  H  H22  1  0.21651000  0.73729000  0.41814000  1
  H  H23  1  0.21642000  0.82435000  0.28222000  1
  H  H24  1  0.21644000  0.26271000  0.58184000  1
  H  H25  1  0.21644000  0.17565000  0.71778000  1
  H  H26  1  0.28212000  0.58178000  0.26265000  1
  H  H27  1  0.28223000  0.71631000  0.17344000  1
  H  H28  1  0.28212000  0.41823000  0.73735000  1
  H  H29  1  0.28225000  0.28370000  0.82656000  1
  H  H30  1  0.28239000  0.26267000  0.41773000  1
  H  H31  1  0.28332000  0.17579000  0.28171000  1
  H  H32  1  0.28243000  0.73731000  0.58228000  1
  H  H33  1  0.28335000  0.82420000  0.71829000  1
  H  H34  1  0.00706000  0.83831000  0.69427000  1
  H  H35  1  0.00696000  0.01060000  0.65487000  1
  H  H36  1  0.00705000  0.16169000  0.30574000  1
  H  H37  1  0.00696000  0.98940000  0.34513000  1
  H  H38  1  0.99288000  0.30574000  0.83832000  1
  H  H39  1  0.99296000  0.34512000  0.01060000  1
  H  H40  1  0.99288000  0.69427000  0.16168000  1
  H  H41  1  0.99296000  0.65488000  0.98940000  1
  H  H42  1  0.49184000  0.16170000  0.69472000  1
  H  H43  1  0.49090000  0.98938000  0.65549000  1
  H  H44  1  0.49183000  0.83830000  0.30529000  1
  H  H45  1  0.49090000  0.01063000  0.34453000  1
  H  H46  1  0.50811000  0.69472000  0.83830000  1
  H  H47  1  0.50908000  0.65548000  0.01062000  1
  H  H48  1  0.50810000  0.30529000  0.16171000  1
  H  H49  1  0.50909000  0.34452000  0.98938000  1
  C  C50  1  0.87755000  0.61100000  0.75739000  1
  C  C51  1  0.87821000  0.68841000  0.80549000  1
  C  C52  1  0.87753000  0.38899000  0.24261000  1
  C  C53  1  0.87820000  0.31158000  0.19451000  1
  C  C54  1  0.87699000  0.24233000  0.61053000  1
  C  C55  1  0.87744000  0.19311000  0.68726000  1
  C  C56  1  0.87703000  0.75766000  0.38949000  1
  C  C57  1  0.87747000  0.80689000  0.31277000  1
  C  C58  1  0.62159000  0.38934000  0.75728000  1
  C  C59  1  0.62130000  0.31177000  0.80509000  1
  C  C60  1  0.62159000  0.61066000  0.24273000  1
  C  C61  1  0.62130000  0.68824000  0.19493000  1
  C  C62  1  0.62209000  0.75778000  0.61014000  1
  C  C63  1  0.62215000  0.80696000  0.68689000  1
  C  C64  1  0.62207000  0.24221000  0.38986000  1
  C  C65  1  0.62214000  0.19304000  0.31311000  1
  C  C66  1  0.12209000  0.38973000  0.24242000  1
  C  C67  1  0.12207000  0.31297000  0.19322000  1
  C  C68  1  0.12210000  0.61027000  0.75758000  1
  C  C69  1  0.12208000  0.68702000  0.80678000  1
  C  C70  1  0.12159000  0.75730000  0.38925000  1
  C  C71  1  0.12133000  0.80539000  0.31182000  1
  C  C72  1  0.12156000  0.24270000  0.61076000  1
  C  C73  1  0.12133000  0.19462000  0.68819000  1
  C  C74  1  0.37702000  0.61040000  0.24214000  1
  C  C75  1  0.37740000  0.68712000  0.19293000  1
  C  C76  1  0.37703000  0.38961000  0.75787000  1
  C  C77  1  0.37741000  0.31289000  0.80708000  1
  C  C78  1  0.37749000  0.24262000  0.38908000  1
  C  C79  1  0.37822000  0.19481000  0.31153000  1
  C  C80  1  0.37753000  0.75737000  0.61091000  1
  C  C81  1  0.37825000  0.80519000  0.68846000  1
  C  C82  1  0.99957000  0.57226000  0.73385000  1
  C  C83  1  0.00035000  0.72689000  0.83039000  1
  C  C84  1  0.00050000  0.80975000  0.88149000  1
  C  C85  1  0.99137000  0.88895000  0.83426000  1
  C  C86  1  0.00014000  0.89360000  0.73836000  1
  C  C87  1  0.99970000  0.97999000  0.71848000  1
  C  C88  1  0.99082000  0.02649000  0.80247000  1
  C  C89  1  0.99954000  0.42773000  0.26614000  1
  C  C90  1  0.00035000  0.27311000  0.16961000  1
  C  C91  1  0.00050000  0.19026000  0.11851000  1
  C  C92  1  0.99136000  0.11105000  0.16574000  1
  C  C93  1  0.00014000  0.10641000  0.26164000  1
  C  C94  1  0.99970000  0.02001000  0.28152000  1
  C  C95  1  0.99082000  0.97351000  0.19753000  1
  C  C96  1  0.99923000  0.26615000  0.57228000  1
  C  C97  1  0.99940000  0.16962000  0.72690000  1
  C  C98  1  0.99956000  0.11851000  0.80974000  1
  C  C99  1  0.00866000  0.16574000  0.88895000  1
  C  C100  1  0.99984000  0.26164000  0.89360000  1
  C  C101  1  0.00028000  0.28152000  0.97999000  1
  C  C102  1  0.00918000  0.19753000  0.02649000  1
  C  C103  1  0.99928000  0.73384000  0.42775000  1
  C  C104  1  0.99941000  0.83039000  0.27312000  1
  C  C105  1  0.99956000  0.88149000  0.19026000  1
  C  C106  1  0.00865000  0.83426000  0.11105000  1
  C  C107  1  0.99983000  0.73836000  0.10640000  1
  C  C108  1  0.00027000  0.71848000  0.02001000  1
  C  C109  1  0.00918000  0.80247000  0.97351000  1
  C  C110  1  0.49926000  0.42791000  0.73404000  1
  C  C111  1  0.49941000  0.27310000  0.83032000  1
  C  C112  1  0.49990000  0.19026000  0.88154000  1
  C  C113  1  0.51047000  0.11103000  0.83450000  1
  C  C114  1  0.50036000  0.10640000  0.73869000  1
  C  C115  1  0.50051000  0.02003000  0.71888000  1
  C  C116  1  0.51047000  0.97347000  0.80267000  1
  C  C117  1  0.49925000  0.57210000  0.26598000  1
  C  C118  1  0.49940000  0.72692000  0.16970000  1
  C  C119  1  0.49990000  0.80975000  0.11847000  1
  C  C120  1  0.51047000  0.88897000  0.16551000  1
  C  C121  1  0.50035000  0.89361000  0.26132000  1
  C  C122  1  0.50051000  0.97997000  0.28113000  1
  C  C123  1  0.51047000  0.02653000  0.19734000  1
  C  C124  1  0.49959000  0.73405000  0.57208000  1
  C  C125  1  0.50035000  0.83031000  0.72691000  1
  C  C126  1  0.50016000  0.88153000  0.80975000  1
  C  C127  1  0.48958000  0.83450000  0.88897000  1
  C  C128  1  0.49965000  0.73869000  0.89361000  1
  C  C129  1  0.49951000  0.71888000  0.97997000  1
  C  C130  1  0.48959000  0.80268000  0.02653000  1
  C  C131  1  0.49955000  0.26592000  0.42790000  1
  C  C132  1  0.50034000  0.16970000  0.27310000  1
  C  C133  1  0.50016000  0.11848000  0.19027000  1
  C  C134  1  0.48958000  0.16551000  0.11104000  1
  C  C135  1  0.49965000  0.26132000  0.10640000  1
  C  C136  1  0.49951000  0.28112000  0.02004000  1
  C  C137  1  0.48959000  0.19733000  0.97348000  1
  S  S138  1  0.99862000  0.46749000  0.68245000  1
  S  S139  1  0.99862000  0.53250000  0.31752000  1
  S  S140  1  0.99868000  0.31753000  0.46751000  1
  S  S141  1  0.99875000  0.68241000  0.53251000  1
  S  S142  1  0.49873000  0.53246000  0.68243000  1
  S  S143  1  0.49870000  0.46756000  0.31759000  1
  S  S144  1  0.49863000  0.68245000  0.46754000  1
  S  S145  1  0.49858000  0.31747000  0.53246000  1
  N  N146  1  0.97918000  0.96993000  0.87085000  1
  N  N147  1  0.97918000  0.03008000  0.12916000  1
  N  N148  1  0.02090000  0.12916000  0.96992000  1
  N  N149  1  0.02089000  0.87084000  0.03008000  1
  N  N150  1  0.52369000  0.03005000  0.87100000  1
  N  N151  1  0.52369000  0.96996000  0.12901000  1
  N  N152  1  0.47642000  0.87101000  0.96996000  1
  N  N153  1  0.47642000  0.12900000  0.03006000  1
  O  O154  1  0.87408000  0.46218000  0.62855000  1
  O  O155  1  0.87395000  0.53780000  0.37134000  1
  O  O156  1  0.87399000  0.37133000  0.46226000  1
  O  O157  1  0.87423000  0.62843000  0.53777000  1
  O  O158  1  0.62136000  0.53773000  0.62702000  1
  O  O159  1  0.62135000  0.46228000  0.37298000  1
  O  O160  1  0.62119000  0.62694000  0.46224000  1
  O  O161  1  0.62101000  0.37311000  0.53773000  1
  O  O162  1  0.12112000  0.53789000  0.37305000  1
  O  O163  1  0.12122000  0.46210000  0.62697000  1
  O  O164  1  0.12136000  0.62698000  0.53796000  1
  O  O165  1  0.12117000  0.37306000  0.46208000  1
  O  O166  1  0.37416000  0.46238000  0.37144000  1
  O  O167  1  0.37416000  0.53762000  0.62855000  1
  O  O168  1  0.37373000  0.37102000  0.53757000  1
  O  O169  1  0.37397000  0.62872000  0.46240000  1
  O  O170  1  0.99988000  0.40473000  0.75440000  1
  O  O171  1  0.99990000  0.59527000  0.24558000  1
  O  O172  1  0.99997000  0.24560000  0.40474000  1
  O  O173  1  0.99991000  0.75436000  0.59526000  1
  O  O174  1  0.49991000  0.59536000  0.75426000  1
  O  O175  1  0.49991000  0.40463000  0.24574000  1
  O  O176  1  0.49993000  0.75428000  0.40464000  1
  O  O177  1  0.50001000  0.24569000  0.59538000  1
