# generated using pymatgen
data_Ni6H53C83N7O27
_symmetry_space_group_name_H-M   'P 1'
_cell_length_a   10.94231000
_cell_length_b   22.07149000
_cell_length_c   28.50529000
_cell_angle_alpha   101.16882000
_cell_angle_beta   99.70076000
_cell_angle_gamma   100.64252000
_symmetry_Int_Tables_number   1
_chemical_formula_structural   Ni6H53C83N7O27
_chemical_formula_sum   'Ni12 H106 C166 N14 O54'
_cell_volume   6487.15302656
_cell_formula_units_Z   2
loop_
 _symmetry_equiv_pos_site_id
 _symmetry_equiv_pos_as_xyz
  1  'x, y, z'
loop_
 _atom_site_type_symbol
 _atom_site_label
 _atom_site_symmetry_multiplicity
 _atom_site_fract_x
 _atom_site_fract_y
 _atom_site_fract_z
 _atom_site_occupancy
  Ni  Ni1  1  0.39578000  0.89274000  0.18878000  1.0
  Ni  Ni2  1  0.30503000  0.02264000  0.16311000  1.0
  Ni  Ni3  1  0.34136000  0.20094000  0.51746000  1.0
  Ni  Ni4  1  0.25699000  0.33460000  0.49874000  1.0
  Ni  Ni5  1  0.20353000  0.64402000  0.83471000  1.0
  Ni  Ni6  1  0.28586000  0.51010000  0.85580000  1.0
  Ni  Ni7  1  0.60422000  0.10727000  0.81122000  1.0
  Ni  Ni8  1  0.69497000  0.97737000  0.83689000  1.0
  Ni  Ni9  1  0.65864000  0.79907000  0.48254000  1.0
  Ni  Ni10  1  0.74301000  0.66540000  0.50126000  1.0
  Ni  Ni11  1  0.79648000  0.35599000  0.16529000  1.0
  Ni  Ni12  1  0.71414000  0.48991000  0.14420000  1.0
  H  H1  1  0.92574000  0.97619000  0.19711000  1.0
  H  H2  1  0.05461000  0.80240000  0.18963000  1.0
  H  H3  1  0.66027000  0.80242000  0.18761000  1.0
  H  H4  1  0.90222000  0.59821000  0.22169000  1.0
  H  H5  1  0.96723000  0.71714000  0.23910000  1.0
  H  H6  1  0.66405000  0.70981000  0.11845000  1.0
  H  H7  1  0.61469000  0.59124000  0.10572000  1.0
  H  H8  1  0.45719000  0.58298000  0.15647000  1.0
  H  H9  1  0.07135000  0.58609000  0.16946000  1.0
  H  H10  1  0.18878000  0.40914000  0.14338000  1.0
  H  H11  1  0.45369000  0.78299000  0.12820000  1.0
  H  H12  1  0.41019000  0.66483000  0.11524000  1.0
  H  H13  1  0.19467000  0.68228000  0.22890000  1.0
  H  H14  1  0.24673000  0.79968000  0.23663000  1.0
  H  H15  1  0.35567000  0.79407000  0.03325000  1.0
  H  H16  1  0.10456000  0.79052000  0.89944000  1.0
  H  H17  1  0.15072000  0.94191000  0.02623000  1.0
  H  H18  1  0.72422000  0.84716000  0.85270000  1.0
  H  H19  1  0.88549000  0.80219000  0.89985000  1.0
  H  H20  1  0.11318000  0.99281000  0.95546000  1.0
  H  H21  1  0.94374000  0.02939000  0.90535000  1.0
  H  H22  1  0.21061000  0.16917000  0.22405000  1.0
  H  H23  1  0.14634000  0.27117000  0.35939000  1.0
  H  H24  1  0.38742000  0.13791000  0.36056000  1.0
  H  H25  1  0.02979000  0.31038000  0.15605000  1.0
  H  H26  1  0.18203000  0.25932000  0.20131000  1.0
  H  H27  1  0.95317000  0.26228000  0.31098000  1.0
  H  H28  1  0.81295000  0.31442000  0.26153000  1.0
  H  H29  1  0.60959000  0.11058000  0.52561000  1.0
  H  H30  1  0.99479000  0.10949000  0.51057000  1.0
  H  H31  1  0.86918000  0.28448000  0.53190000  1.0
  H  H32  1  0.59754000  0.90881000  0.54592000  1.0
  H  H33  1  0.64669000  0.02706000  0.56217000  1.0
  H  H34  1  0.87908000  0.01288000  0.45378000  1.0
  H  H35  1  0.81946000  0.89548000  0.44213000  1.0
  H  H36  1  0.34554000  0.45201000  0.69682000  1.0
  H  H37  1  0.10564000  0.58540000  0.69500000  1.0
  H  H38  1  0.17046000  0.48297000  0.55977000  1.0
  H  H39  1  0.76644000  0.62490000  0.59804000  1.0
  H  H40  1  0.91164000  0.57553000  0.64757000  1.0
  H  H41  1  0.13158000  0.56947000  0.53480000  1.0
  H  H42  1  0.97585000  0.61861000  0.48996000  1.0
  H  H43  1  0.08499000  0.45423000  0.90694000  1.0
  H  H44  1  0.06022000  0.44975000  0.99219000  1.0
  H  H45  1  0.24260000  0.50739000  0.06249000  1.0
  H  H46  1  0.44193000  0.56524000  0.04388000  1.0
  H  H47  1  0.44985000  0.56520000  0.95628000  1.0
  H  H48  1  0.54590000  0.99636000  0.19942000  1.0
  H  H49  1  0.44930000  0.01920000  0.23826000  1.0
  H  H50  1  0.49364000  0.30492000  0.53726000  1.0
  H  H51  1  0.39470000  0.32686000  0.57426000  1.0
  H  H52  1  0.35416000  0.64273000  0.91115000  1.0
  H  H53  1  0.44068000  0.61594000  0.87042000  1.0
  H  H54  1  0.07426000  0.02382000  0.80289000  1.0
  H  H55  1  0.94539000  0.19761000  0.81037000  1.0
  H  H56  1  0.33973000  0.19758000  0.81239000  1.0
  H  H57  1  0.09778000  0.40180000  0.77831000  1.0
  H  H58  1  0.03278000  0.28287000  0.76090000  1.0
  H  H59  1  0.33595000  0.29020000  0.88155000  1.0
  H  H60  1  0.38531000  0.40877000  0.89428000  1.0
  H  H61  1  0.54281000  0.41703000  0.84352000  1.0
  H  H62  1  0.92865000  0.41391000  0.83053000  1.0
  H  H63  1  0.81122000  0.59086000  0.85662000  1.0
  H  H64  1  0.54631000  0.21701000  0.87180000  1.0
  H  H65  1  0.58981000  0.33518000  0.88476000  1.0
  H  H66  1  0.80533000  0.31773000  0.77110000  1.0
  H  H67  1  0.75327000  0.20033000  0.76337000  1.0
  H  H68  1  0.64433000  0.20593000  0.96675000  1.0
  H  H69  1  0.89544000  0.20948000  0.10056000  1.0
  H  H70  1  0.84928000  0.05810000  0.97377000  1.0
  H  H71  1  0.27578000  0.15285000  0.14730000  1.0
  H  H72  1  0.11451000  0.19782000  0.10015000  1.0
  H  H73  1  0.88682000  0.00719000  0.04454000  1.0
  H  H74  1  0.05626000  0.97062000  0.09465000  1.0
  H  H75  1  0.78939000  0.83084000  0.77595000  1.0
  H  H76  1  0.85366000  0.72884000  0.64061000  1.0
  H  H77  1  0.61258000  0.86210000  0.63944000  1.0
  H  H78  1  0.97021000  0.68962000  0.84395000  1.0
  H  H79  1  0.81797000  0.74068000  0.79869000  1.0
  H  H80  1  0.04683000  0.73773000  0.68902000  1.0
  H  H81  1  0.18705000  0.68559000  0.73847000  1.0
  H  H82  1  0.39041000  0.88943000  0.47439000  1.0
  H  H83  1  0.00521000  0.89051000  0.48943000  1.0
  H  H84  1  0.13082000  0.71553000  0.46810000  1.0
  H  H85  1  0.40246000  0.09119000  0.45408000  1.0
  H  H86  1  0.35331000  0.97295000  0.43783000  1.0
  H  H87  1  0.12092000  0.98712000  0.54622000  1.0
  H  H88  1  0.18055000  0.10453000  0.55787000  1.0
  H  H89  1  0.65446000  0.54800000  0.30318000  1.0
  H  H90  1  0.89437000  0.41461000  0.30500000  1.0
  H  H91  1  0.82954000  0.51703000  0.44023000  1.0
  H  H92  1  0.23356000  0.37511000  0.40196000  1.0
  H  H93  1  0.08836000  0.42448000  0.35243000  1.0
  H  H94  1  0.86842000  0.43054000  0.46520000  1.0
  H  H95  1  0.02416000  0.38139000  0.51004000  1.0
  H  H96  1  0.91501000  0.54578000  0.09306000  1.0
  H  H97  1  0.93978000  0.55026000  0.00781000  1.0
  H  H98  1  0.75740000  0.49262000  0.93751000  1.0
  H  H99  1  0.55807000  0.43477000  0.95612000  1.0
  H  H100  1  0.55015000  0.43481000  0.04372000  1.0
  H  H101  1  0.45411000  0.00365000  0.80058000  1.0
  H  H102  1  0.55070000  0.98081000  0.76174000  1.0
  H  H103  1  0.50636000  0.69509000  0.46274000  1.0
  H  H104  1  0.60530000  0.67314000  0.42574000  1.0
  H  H105  1  0.64584000  0.35728000  0.08885000  1.0
  H  H106  1  0.55932000  0.38407000  0.12957000  1.0
  C  C1  1  0.78214000  0.89273000  0.19350000  1.0
  C  C2  1  0.90582000  0.92549000  0.19513000  1.0
  C  C3  1  0.00394000  0.89253000  0.19457000  1.0
  C  C4  1  0.97758000  0.82698000  0.19127000  1.0
  C  C5  1  0.85327000  0.79340000  0.18727000  1.0
  C  C6  1  0.75680000  0.82693000  0.18881000  1.0
  C  C7  1  0.67219000  0.92457000  0.19685000  1.0
  C  C8  1  0.13749000  0.92422000  0.19425000  1.0
  C  C9  1  0.85385000  0.62523000  0.19956000  1.0
  C  C10  1  0.88926000  0.69108000  0.20875000  1.0
  C  C11  1  0.82145000  0.72366000  0.17973000  1.0
  C  C12  1  0.71918000  0.68703000  0.14228000  1.0
  C  C13  1  0.69161000  0.62147000  0.13475000  1.0
  C  C14  1  0.33300000  0.49274000  0.14855000  1.0
  C  C15  1  0.36103000  0.55898000  0.15633000  1.0
  C  C16  1  0.26852000  0.59367000  0.16428000  1.0
  C  C17  1  0.14623000  0.56081000  0.16430000  1.0
  C  C18  1  0.11652000  0.49462000  0.15667000  1.0
  C  C19  1  0.21064000  0.46050000  0.14924000  1.0
  C  C20  1  0.39830000  0.75839000  0.14996000  1.0
  C  C21  1  0.37378000  0.69290000  0.14319000  1.0
  C  C22  1  0.29836000  0.66324000  0.17122000  1.0
  C  C23  1  0.25167000  0.70250000  0.20555000  1.0
  C  C24  1  0.28106000  0.76776000  0.21042000  1.0
  C  C25  1  0.43689000  0.45918000  0.13780000  1.0
  C  C26  1  0.98230000  0.46306000  0.15649000  1.0
  C  C27  1  0.25865000  0.87147000  0.03493000  1.0
  C  C28  1  0.28925000  0.81526000  0.01256000  1.0
  C  C29  1  0.23483000  0.78693000  0.96320000  1.0
  C  C30  1  0.14509000  0.81324000  0.93765000  1.0
  C  C31  1  0.11185000  0.86847000  0.95968000  1.0
  C  C32  1  0.17236000  0.89835000  0.00811000  1.0
  C  C33  1  0.81179000  0.87748000  0.87607000  1.0
  C  C34  1  0.90255000  0.85291000  0.90204000  1.0
  C  C35  1  0.01421000  0.89374000  0.93193000  1.0
  C  C36  1  0.02806000  0.95876000  0.93366000  1.0
  C  C37  1  0.93404000  0.97963000  0.90599000  1.0
  C  C38  1  0.31026000  0.90360000  0.08803000  1.0
  C  C39  1  0.26851000  0.72918000  0.93477000  1.0
  C  C40  1  0.30615000  0.15010000  0.28942000  1.0
  C  C41  1  0.22722000  0.18131000  0.26369000  1.0
  C  C42  1  0.16677000  0.22457000  0.28796000  1.0
  C  C43  1  0.18971000  0.23724000  0.33905000  1.0
  C  C44  1  0.27020000  0.20733000  0.36551000  1.0
  C  C45  1  0.32703000  0.16260000  0.34063000  1.0
  C  C46  1  0.01667000  0.29820000  0.19032000  1.0
  C  C47  1  0.10017000  0.26951000  0.21569000  1.0
  C  C48  1  0.08058000  0.25558000  0.26030000  1.0
  C  C49  1  0.97493000  0.27233000  0.27704000  1.0
  C  C50  1  0.89549000  0.30095000  0.24956000  1.0
  C  C51  1  0.36069000  0.10176000  0.25984000  1.0
  C  C52  1  0.29098000  0.22593000  0.42029000  1.0
  C  C53  1  0.72919000  0.20053000  0.52967000  1.0
  C  C54  1  0.70493000  0.13475000  0.52486000  1.0
  C  C55  1  0.79846000  0.10062000  0.51718000  1.0
  C  C56  1  0.91941000  0.13418000  0.51611000  1.0
  C  C57  1  0.94690000  0.20030000  0.52253000  1.0
  C  C58  1  0.85059000  0.23347000  0.52838000  1.0
  C  C59  1  0.65833000  0.93405000  0.52610000  1.0
  C  C60  1  0.68630000  0.99985000  0.53482000  1.0
  C  C61  1  0.76796000  0.03081000  0.50933000  1.0
  C  C62  1  0.81716000  0.99218000  0.47541000  1.0
  C  C63  1  0.78379000  0.92663000  0.46840000  1.0
  C  C64  1  0.61928000  0.23223000  0.53378000  1.0
  C  C65  1  0.08005000  0.23238000  0.52142000  1.0
  C  C66  1  0.26370000  0.46348000  0.62536000  1.0
  C  C67  1  0.28578000  0.47673000  0.67660000  1.0
  C  C68  1  0.23053000  0.52223000  0.70142000  1.0
  C  C69  1  0.14886000  0.55138000  0.67474000  1.0
  C  C70  1  0.12449000  0.53802000  0.62353000  1.0
  C  C71  1  0.18555000  0.49491000  0.59941000  1.0
  C  C72  1  0.84854000  0.61174000  0.58547000  1.0
  C  C73  1  0.93079000  0.58450000  0.61302000  1.0
  C  C74  1  0.03576000  0.56773000  0.59564000  1.0
  C  C75  1  0.05118000  0.58002000  0.55012000  1.0
  C  C76  1  0.96507000  0.60756000  0.52479000  1.0
  C  C77  1  0.31418000  0.41319000  0.59587000  1.0
  C  C78  1  0.25400000  0.54134000  0.75642000  1.0
  C  C79  1  0.16082000  0.47845000  0.93854000  1.0
  C  C80  1  0.14791000  0.47631000  0.98601000  1.0
  C  C81  1  0.24918000  0.50823000  0.02495000  1.0
  C  C82  1  0.35988000  0.54082000  0.01472000  1.0
  C  C83  1  0.36550000  0.54104000  0.96628000  1.0
  C  C84  1  0.21786000  0.10727000  0.80649000  1.0
  C  C85  1  0.09418000  0.07452000  0.80486000  1.0
  C  C86  1  0.99606000  0.10748000  0.80543000  1.0
  C  C87  1  0.02242000  0.17303000  0.80873000  1.0
  C  C88  1  0.14673000  0.20661000  0.81273000  1.0
  C  C89  1  0.24321000  0.17308000  0.81119000  1.0
  C  C90  1  0.32781000  0.07544000  0.80315000  1.0
  C  C91  1  0.86251000  0.07579000  0.80575000  1.0
  C  C92  1  0.14615000  0.37477000  0.80044000  1.0
  C  C93  1  0.11074000  0.30892000  0.79125000  1.0
  C  C94  1  0.17855000  0.27634000  0.82027000  1.0
  C  C95  1  0.28083000  0.31298000  0.85772000  1.0
  C  C96  1  0.30839000  0.37853000  0.86524000  1.0
  C  C97  1  0.66700000  0.50726000  0.85145000  1.0
  C  C98  1  0.63898000  0.44103000  0.84367000  1.0
  C  C99  1  0.73148000  0.40633000  0.83572000  1.0
  C  C100  1  0.85377000  0.43920000  0.83569000  1.0
  C  C101  1  0.88348000  0.50539000  0.84333000  1.0
  C  C102  1  0.78936000  0.53950000  0.85076000  1.0
  C  C103  1  0.60170000  0.24162000  0.85004000  1.0
  C  C104  1  0.62622000  0.30710000  0.85681000  1.0
  C  C105  1  0.70164000  0.33677000  0.82878000  1.0
  C  C106  1  0.74833000  0.29751000  0.79445000  1.0
  C  C107  1  0.71895000  0.23224000  0.78958000  1.0
  C  C108  1  0.56311000  0.54083000  0.86220000  1.0
  C  C109  1  0.01770000  0.53695000  0.84351000  1.0
  C  C110  1  0.74136000  0.12854000  0.96507000  1.0
  C  C111  1  0.71076000  0.18475000  0.98743000  1.0
  C  C112  1  0.76517000  0.21307000  0.03680000  1.0
  C  C113  1  0.85491000  0.18677000  0.06234000  1.0
  C  C114  1  0.88815000  0.13154000  0.04032000  1.0
  C  C115  1  0.82764000  0.10165000  0.99189000  1.0
  C  C116  1  0.18822000  0.12253000  0.12392000  1.0
  C  C117  1  0.09745000  0.14710000  0.09796000  1.0
  C  C118  1  0.98580000  0.10627000  0.06806000  1.0
  C  C119  1  0.97194000  0.04125000  0.06634000  1.0
  C  C120  1  0.06596000  0.02038000  0.09401000  1.0
  C  C121  1  0.68974000  0.09641000  0.91197000  1.0
  C  C122  1  0.73149000  0.27083000  0.06523000  1.0
  C  C123  1  0.69385000  0.84990000  0.71058000  1.0
  C  C124  1  0.77279000  0.81869000  0.73630000  1.0
  C  C125  1  0.83323000  0.77544000  0.71204000  1.0
  C  C126  1  0.81029000  0.76277000  0.66095000  1.0
  C  C127  1  0.72980000  0.79267000  0.63449000  1.0
  C  C128  1  0.67297000  0.83740000  0.65937000  1.0
  C  C129  1  0.98333000  0.70180000  0.80967000  1.0
  C  C130  1  0.89983000  0.73050000  0.78431000  1.0
  C  C131  1  0.91942000  0.74443000  0.73970000  1.0
  C  C132  1  0.02508000  0.72767000  0.72296000  1.0
  C  C133  1  0.10451000  0.69905000  0.75043000  1.0
  C  C134  1  0.63931000  0.89825000  0.74015000  1.0
  C  C135  1  0.70902000  0.77408000  0.57970000  1.0
  C  C136  1  0.27081000  0.79948000  0.47033000  1.0
  C  C137  1  0.29507000  0.86526000  0.47514000  1.0
  C  C138  1  0.20154000  0.89939000  0.48282000  1.0
  C  C139  1  0.08059000  0.86583000  0.48388000  1.0
  C  C140  1  0.05310000  0.79970000  0.47747000  1.0
  C  C141  1  0.14941000  0.76653000  0.47162000  1.0
  C  C142  1  0.34167000  0.06596000  0.47389000  1.0
  C  C143  1  0.31370000  0.00016000  0.46518000  1.0
  C  C144  1  0.23205000  0.96920000  0.49067000  1.0
  C  C145  1  0.18284000  0.00783000  0.52459000  1.0
  C  C146  1  0.21621000  0.07338000  0.53160000  1.0
  C  C147  1  0.38072000  0.76778000  0.46622000  1.0
  C  C148  1  0.91996000  0.76763000  0.47858000  1.0
  C  C149  1  0.73630000  0.53653000  0.37463000  1.0
  C  C150  1  0.71422000  0.52328000  0.32339000  1.0
  C  C151  1  0.76948000  0.47778000  0.29858000  1.0
  C  C152  1  0.85115000  0.44863000  0.32526000  1.0
  C  C153  1  0.87552000  0.46199000  0.37647000  1.0
  C  C154  1  0.81445000  0.50510000  0.40059000  1.0
  C  C155  1  0.15147000  0.38827000  0.41453000  1.0
  C  C156  1  0.06921000  0.41551000  0.38698000  1.0
  C  C157  1  0.96424000  0.43228000  0.40436000  1.0
  C  C158  1  0.94883000  0.41999000  0.44988000  1.0
  C  C159  1  0.03494000  0.39244000  0.47521000  1.0
  C  C160  1  0.68582000  0.58682000  0.40413000  1.0
  C  C161  1  0.74602000  0.45867000  0.24357000  1.0
  C  C162  1  0.83919000  0.52156000  0.06146000  1.0
  C  C163  1  0.85209000  0.52370000  0.01399000  1.0
  C  C164  1  0.75082000  0.49177000  0.97505000  1.0
  C  C165  1  0.64012000  0.45919000  0.98528000  1.0
  C  C166  1  0.63450000  0.45897000  0.03371000  1.0
  N  N1  1  0.75772000  0.59063000  0.16261000  1.0
  N  N2  1  0.35262000  0.79556000  0.18297000  1.0
  N  N3  1  0.82647000  0.93998000  0.87782000  1.0
  N  N4  1  0.91560000  0.31410000  0.20683000  1.0
  N  N5  1  0.70623000  0.89752000  0.49341000  1.0
  N  N6  1  0.86487000  0.62359000  0.54198000  1.0
  N  N7  1  0.26749000  0.51040000  0.92867000  1.0
  N  N8  1  0.24228000  0.40938000  0.83739000  1.0
  N  N9  1  0.64739000  0.20445000  0.81703000  1.0
  N  N10  1  0.17353000  0.06003000  0.12218000  1.0
  N  N11  1  0.08440000  0.68590000  0.79317000  1.0
  N  N12  1  0.29377000  0.10248000  0.50659000  1.0
  N  N13  1  0.13513000  0.37642000  0.45802000  1.0
  N  N14  1  0.73252000  0.48960000  0.07133000  1.0
  O  O1  1  0.57440000  0.88748000  0.20388000  1.0
  O  O2  1  0.67886000  0.98089000  0.19267000  1.0
  O  O3  1  0.15670000  0.98016000  0.18727000  1.0
  O  O4  1  0.21968000  0.89060000  0.19934000  1.0
  O  O5  1  0.52729000  0.49387000  0.12465000  1.0
  O  O6  1  0.43018000  0.40256000  0.14117000  1.0
  O  O7  1  0.95147000  0.40266000  0.14612000  1.0
  O  O8  1  0.90941000  0.50005000  0.16676000  1.0
  O  O9  1  0.28588000  0.95782000  0.10157000  1.0
  O  O10  1  0.36965000  0.87399000  0.11509000  1.0
  O  O11  1  0.33346000  0.69661000  0.95585000  1.0
  O  O12  1  0.22446000  0.71898000  0.88838000  1.0
  O  O13  1  0.34600000  0.10265000  0.21400000  1.0
  O  O14  1  0.41279000  0.06381000  0.27970000  1.0
  O  O15  1  0.33924000  0.19091000  0.44534000  1.0
  O  O16  1  0.25539000  0.27623000  0.43685000  1.0
  O  O17  1  0.51837000  0.19418000  0.53757000  1.0
  O  O18  1  0.62931000  0.28977000  0.53249000  1.0
  O  O19  1  0.15925000  0.19670000  0.52074000  1.0
  O  O20  1  0.10318000  0.29089000  0.52058000  1.0
  O  O21  1  0.29718000  0.41292000  0.54986000  1.0
  O  O22  1  0.36397000  0.37465000  0.61576000  1.0
  O  O23  1  0.29805000  0.50543000  0.78123000  1.0
  O  O24  1  0.22436000  0.59381000  0.77279000  1.0
  O  O25  1  0.45279000  0.99261000  0.20399000  1.0
  O  O26  1  0.39944000  0.30040000  0.54016000  1.0
  O  O27  1  0.35080000  0.61517000  0.87728000  1.0
  O  O28  1  0.42560000  0.11252000  0.79612000  1.0
  O  O29  1  0.32114000  0.01912000  0.80733000  1.0
  O  O30  1  0.84330000  0.01984000  0.81273000  1.0
  O  O31  1  0.78033000  0.10941000  0.80065000  1.0
  O  O32  1  0.47271000  0.50614000  0.87535000  1.0
  O  O33  1  0.56983000  0.59745000  0.85883000  1.0
  O  O34  1  0.04853000  0.59735000  0.85387000  1.0
  O  O35  1  0.09060000  0.49995000  0.83324000  1.0
  O  O36  1  0.71413000  0.04219000  0.89843000  1.0
  O  O37  1  0.63035000  0.12602000  0.88491000  1.0
  O  O38  1  0.66654000  0.30339000  0.04415000  1.0
  O  O39  1  0.77554000  0.28103000  0.11162000  1.0
  O  O40  1  0.65401000  0.89735000  0.78600000  1.0
  O  O41  1  0.58722000  0.93619000  0.72030000  1.0
  O  O42  1  0.66076000  0.80910000  0.55465000  1.0
  O  O43  1  0.74461000  0.72377000  0.56315000  1.0
  O  O44  1  0.48163000  0.80583000  0.46243000  1.0
  O  O45  1  0.37069000  0.71024000  0.46750000  1.0
  O  O46  1  0.84076000  0.80331000  0.47926000  1.0
  O  O47  1  0.89682000  0.70912000  0.47942000  1.0
  O  O48  1  0.70282000  0.58709000  0.45013000  1.0
  O  O49  1  0.63603000  0.62536000  0.38424000  1.0
  O  O50  1  0.70195000  0.49457000  0.21877000  1.0
  O  O51  1  0.77569000  0.40620000  0.22721000  1.0
  O  O52  1  0.54722000  0.00739000  0.79601000  1.0
  O  O53  1  0.60056000  0.69961000  0.45984000  1.0
  O  O54  1  0.64920000  0.38484000  0.12272000  1.0
