# generated using pymatgen
data_CdH22C40(NO2)4
_symmetry_space_group_name_H-M   'P 1'
_cell_length_a   12.93835000
_cell_length_b   12.95314000
_cell_length_c   29.61607000
_cell_angle_alpha   89.97883000
_cell_angle_beta   89.97960000
_cell_angle_gamma   102.67926000
_symmetry_Int_Tables_number   1
_chemical_formula_structural   CdH22C40(NO2)4
_chemical_formula_sum   'Cd4 H88 C160 N16 O32'
_cell_volume   4842.38549456
_cell_formula_units_Z   4
loop_
 _symmetry_equiv_pos_site_id
 _symmetry_equiv_pos_as_xyz
  1  'x, y, z'
loop_
 _atom_site_type_symbol
 _atom_site_label
 _atom_site_symmetry_multiplicity
 _atom_site_fract_x
 _atom_site_fract_y
 _atom_site_fract_z
 _atom_site_occupancy
  Cd  Cd0  1  0.59566000  0.59560000  0.95631000  1
  Cd  Cd1  1  0.90438000  0.90422000  0.45627000  1
  Cd  Cd2  1  0.09564000  0.09578000  0.54373000  1
  Cd  Cd3  1  0.40435000  0.40439000  0.04369000  1
  H  H4  1  0.80880000  0.66700000  0.57964000  1
  H  H5  1  0.76076000  0.61608000  0.66953000  1
  H  H6  1  0.57990000  0.34330000  0.94031000  1
  H  H7  1  0.69535000  0.21020000  0.93774000  1
  H  H8  1  0.96390000  0.46943000  0.96064000  1
  H  H9  1  0.83752000  0.58956000  0.96439000  1
  H  H10  1  0.93267000  0.05772000  0.84655000  1
  H  H11  1  0.10131000  0.22280000  0.05548000  1
  H  H12  1  0.69119000  0.83299000  0.07961000  1
  H  H13  1  0.73917000  0.88386000  0.16948000  1
  H  H14  1  0.92001000  0.15653000  0.44026000  1
  H  H15  1  0.80470000  0.28973000  0.43790000  1
  H  H16  1  0.53607000  0.03051000  0.46090000  1
  H  H17  1  0.66232000  0.91030000  0.46445000  1
  H  H18  1  0.56724000  0.44199000  0.34670000  1
  H  H19  1  0.39871000  0.27741000  0.55582000  1
  H  H20  1  0.16613000  0.30868000  0.92026000  1
  H  H21  1  0.11571000  0.26048000  0.83040000  1
  H  H22  1  0.84367000  0.08029000  0.55984000  1
  H  H23  1  0.71021000  0.19547000  0.56213000  1
  H  H24  1  0.96983000  0.46373000  0.53906000  1
  H  H25  1  0.09024000  0.33751000  0.53586000  1
  H  H26  1  0.55799000  0.43289000  0.65329000  1
  H  H27  1  0.72285000  0.60117000  0.44417000  1
  H  H28  1  0.33383000  0.19134000  0.42025000  1
  H  H29  1  0.38435000  0.23956000  0.33037000  1
  H  H30  1  0.65634000  0.41975000  0.05985000  1
  H  H31  1  0.78976000  0.30452000  0.06219000  1
  H  H32  1  0.53024000  0.03630000  0.03921000  1
  H  H33  1  0.40983000  0.16251000  0.03590000  1
  H  H34  1  0.94222000  0.06732000  0.15340000  1
  H  H35  1  0.77708000  0.89872000  0.94447000  1
  H  H36  1  0.19122000  0.33301000  0.42036000  1
  H  H37  1  0.23925000  0.38391000  0.33046000  1
  H  H38  1  0.42011000  0.65669000  0.05969000  1
  H  H39  1  0.30466000  0.78979000  0.06226000  1
  H  H40  1  0.03611000  0.53056000  0.03936000  1
  H  H41  1  0.16249000  0.41043000  0.03561000  1
  H  H42  1  0.06733000  0.94227000  0.15344000  1
  H  H43  1  0.89870000  0.77719000  0.94452000  1
  H  H44  1  0.30881000  0.16699000  0.92039000  1
  H  H45  1  0.26083000  0.11613000  0.83052000  1
  H  H46  1  0.08000000  0.84346000  0.55973000  1
  H  H47  1  0.19530000  0.71026000  0.56210000  1
  H  H48  1  0.46393000  0.96948000  0.53910000  1
  H  H49  1  0.33769000  0.08969000  0.53554000  1
  H  H50  1  0.43277000  0.55800000  0.65329000  1
  H  H51  1  0.60129000  0.72258000  0.44418000  1
  H  H52  1  0.83387000  0.69131000  0.07974000  1
  H  H53  1  0.88429000  0.73951000  0.16960000  1
  H  H54  1  0.15634000  0.91970000  0.44016000  1
  H  H55  1  0.28980000  0.80452000  0.43787000  1
  H  H56  1  0.03018000  0.53626000  0.46094000  1
  H  H57  1  0.90977000  0.66249000  0.46414000  1
  H  H58  1  0.44202000  0.56711000  0.34670000  1
  H  H59  1  0.27716000  0.39882000  0.55583000  1
  H  H60  1  0.66618000  0.80866000  0.57974000  1
  H  H61  1  0.61566000  0.76043000  0.66962000  1
  H  H62  1  0.34366000  0.58024000  0.94015000  1
  H  H63  1  0.21025000  0.69547000  0.93780000  1
  H  H64  1  0.46977000  0.96368000  0.96079000  1
  H  H65  1  0.59018000  0.83748000  0.96410000  1
  H  H66  1  0.05779000  0.93267000  0.84660000  1
  H  H67  1  0.22292000  0.10127000  0.05553000  1
  H  H68  1  0.83579000  0.83556000  0.84440000  1
  H  H69  1  0.88590000  0.88623000  0.76535000  1
  H  H70  1  0.63336000  0.63368000  0.71873000  1
  H  H71  1  0.58597000  0.58482000  0.79807000  1
  H  H72  1  0.92614000  0.92596000  0.70357000  1
  H  H73  1  0.97002000  0.97027000  0.62399000  1
  H  H74  1  0.66401000  0.66373000  0.34435000  1
  H  H75  1  0.61381000  0.61370000  0.26530000  1
  H  H76  1  0.86643000  0.86634000  0.21875000  1
  H  H77  1  0.91385000  0.91472000  0.29808000  1
  H  H78  1  0.57387000  0.57403000  0.20367000  1
  H  H79  1  0.52995000  0.52965000  0.12411000  1
  H  H80  1  0.33601000  0.33626000  0.65565000  1
  H  H81  1  0.38620000  0.38629000  0.73470000  1
  H  H82  1  0.13358000  0.13365000  0.78125000  1
  H  H83  1  0.08616000  0.08527000  0.70191000  1
  H  H84  1  0.42614000  0.42596000  0.79633000  1
  H  H85  1  0.47005000  0.47033000  0.87588000  1
  H  H86  1  0.16421000  0.16443000  0.15559000  1
  H  H87  1  0.11411000  0.11376000  0.23465000  1
  H  H88  1  0.36664000  0.36631000  0.28126000  1
  H  H89  1  0.41404000  0.41517000  0.20193000  1
  H  H90  1  0.07387000  0.07403000  0.29643000  1
  H  H91  1  0.02999000  0.02973000  0.37601000  1
  C  C92  1  0.79597000  0.72206000  0.60547000  1
  C  C93  1  0.76918000  0.69460000  0.65515000  1
  C  C94  1  0.66526000  0.36713000  0.94487000  1
  C  C95  1  0.72935000  0.29376000  0.94305000  1
  C  C96  1  0.83800000  0.33015000  0.94966000  1
  C  C97  1  0.87943000  0.43786000  0.95653000  1
  C  C98  1  0.80915000  0.50516000  0.95850000  1
  C  C99  1  0.90748000  0.19242000  0.91093000  1
  C  C100  1  0.97743000  0.11632000  0.91286000  1
  C  C101  1  0.98263000  0.05196000  0.87562000  1
  C  C102  1  0.04103000  0.11151000  0.95130000  1
  C  C103  1  0.03793000  0.17704000  0.98939000  1
  C  C104  1  0.10238000  0.17169000  0.02646000  1
  C  C105  1  0.96826000  0.25329000  0.98970000  1
  C  C106  1  0.70408000  0.77793000  0.10546000  1
  C  C107  1  0.73073000  0.80532000  0.15513000  1
  C  C108  1  0.83465000  0.13272000  0.44487000  1
  C  C109  1  0.77061000  0.20615000  0.44315000  1
  C  C110  1  0.66196000  0.16977000  0.44982000  1
  C  C111  1  0.62052000  0.06206000  0.45670000  1
  C  C112  1  0.69076000  0.99469000  0.45856000  1
  C  C113  1  0.59246000  0.30751000  0.41112000  1
  C  C114  1  0.52248000  0.38357000  0.41305000  1
  C  C115  1  0.51730000  0.44789000  0.37577000  1
  C  C116  1  0.45890000  0.38840000  0.45151000  1
  C  C117  1  0.46204000  0.32291000  0.48964000  1
  C  C118  1  0.39764000  0.32838000  0.52673000  1
  C  C119  1  0.53176000  0.24667000  0.48995000  1
  C  C120  1  0.22143000  0.29598000  0.89446000  1
  C  C121  1  0.19432000  0.26916000  0.84480000  1
  C  C122  1  0.86735000  0.16555000  0.55527000  1
  C  C123  1  0.79389000  0.22956000  0.55690000  1
  C  C124  1  0.83035000  0.33805000  0.55017000  1
  C  C125  1  0.93822000  0.37940000  0.54332000  1
  C  C126  1  0.00568000  0.30925000  0.54160000  1
  C  C127  1  0.69253000  0.40754000  0.58887000  1
  C  C128  1  0.61642000  0.47753000  0.58694000  1
  C  C129  1  0.55208000  0.48277000  0.62423000  1
  C  C130  1  0.61161000  0.54106000  0.54848000  1
  C  C131  1  0.67712000  0.53783000  0.51035000  1
  C  C132  1  0.67177000  0.60215000  0.47324000  1
  C  C133  1  0.75338000  0.46814000  0.51003000  1
  C  C134  1  0.27854000  0.20400000  0.39446000  1
  C  C135  1  0.30576000  0.23091000  0.34480000  1
  C  C136  1  0.63263000  0.33449000  0.05530000  1
  C  C137  1  0.70610000  0.27048000  0.05696000  1
  C  C138  1  0.66968000  0.16199000  0.05026000  1
  C  C139  1  0.56182000  0.12064000  0.04343000  1
  C  C140  1  0.49436000  0.19080000  0.04167000  1
  C  C141  1  0.80749000  0.09253000  0.08901000  1
  C  C142  1  0.88363000  0.02257000  0.08710000  1
  C  C143  1  0.94800000  0.01736000  0.12436000  1
  C  C144  1  0.88846000  0.95900000  0.04868000  1
  C  C145  1  0.82295000  0.96215000  0.01056000  1
  C  C146  1  0.82823000  0.89775000  0.97350000  1
  C  C147  1  0.74669000  0.03184000  0.01020000  1
  C  C148  1  0.20404000  0.27793000  0.39452000  1
  C  C149  1  0.23084000  0.30539000  0.34485000  1
  C  C150  1  0.33475000  0.63286000  0.05513000  1
  C  C151  1  0.27066000  0.70623000  0.05695000  1
  C  C152  1  0.16201000  0.66984000  0.05033000  1
  C  C153  1  0.12057000  0.56213000  0.04346000  1
  C  C154  1  0.19086000  0.49482000  0.04150000  1
  C  C155  1  0.09253000  0.80757000  0.08907000  1
  C  C156  1  0.02257000  0.88367000  0.08714000  1
  C  C157  1  0.01738000  0.94803000  0.12438000  1
  C  C158  1  0.95898000  0.88848000  0.04870000  1
  C  C159  1  0.96208000  0.82295000  0.01061000  1
  C  C160  1  0.89763000  0.82829000  0.97354000  1
  C  C161  1  0.03175000  0.74669000  0.01030000  1
  C  C162  1  0.29592000  0.22205000  0.89454000  1
  C  C163  1  0.26927000  0.19467000  0.84487000  1
  C  C164  1  0.16535000  0.86728000  0.55513000  1
  C  C165  1  0.22939000  0.79385000  0.55684000  1
  C  C166  1  0.33805000  0.83022000  0.55018000  1
  C  C167  1  0.37949000  0.93793000  0.54330000  1
  C  C168  1  0.30925000  0.00530000  0.54144000  1
  C  C169  1  0.40755000  0.69248000  0.58888000  1
  C  C170  1  0.47753000  0.61642000  0.58695000  1
  C  C171  1  0.48270000  0.55210000  0.62423000  1
  C  C172  1  0.54111000  0.61160000  0.54849000  1
  C  C173  1  0.53796000  0.67708000  0.51036000  1
  C  C174  1  0.60237000  0.67161000  0.47326000  1
  C  C175  1  0.46825000  0.75332000  0.51005000  1
  C  C176  1  0.77858000  0.70401000  0.10554000  1
  C  C177  1  0.80569000  0.73083000  0.15520000  1
  C  C178  1  0.13266000  0.83444000  0.44473000  1
  C  C179  1  0.20612000  0.77044000  0.44310000  1
  C  C180  1  0.16966000  0.66194000  0.44983000  1
  C  C181  1  0.06179000  0.62059000  0.45668000  1
  C  C182  1  0.99433000  0.69075000  0.45839000  1
  C  C183  1  0.30747000  0.59245000  0.41112000  1
  C  C184  1  0.38358000  0.52246000  0.41306000  1
  C  C185  1  0.44792000  0.51722000  0.37577000  1
  C  C186  1  0.38840000  0.45893000  0.45151000  1
  C  C187  1  0.32289000  0.46216000  0.48964000  1
  C  C188  1  0.32824000  0.39785000  0.52675000  1
  C  C189  1  0.24663000  0.53185000  0.48997000  1
  C  C190  1  0.72147000  0.79600000  0.60554000  1
  C  C191  1  0.69425000  0.76908000  0.65520000  1
  C  C192  1  0.36737000  0.66550000  0.94470000  1
  C  C193  1  0.29391000  0.72951000  0.94304000  1
  C  C194  1  0.33033000  0.83800000  0.94973000  1
  C  C195  1  0.43818000  0.87935000  0.95657000  1
  C  C196  1  0.50565000  0.80919000  0.95833000  1
  C  C197  1  0.19251000  0.90746000  0.91099000  1
  C  C198  1  0.11638000  0.97742000  0.91290000  1
  C  C199  1  0.05201000  0.98263000  0.87563000  1
  C  C200  1  0.11154000  0.04099000  0.95132000  1
  C  C201  1  0.17706000  0.03784000  0.98943000  1
  C  C202  1  0.17177000  0.10224000  0.02649000  1
  C  C203  1  0.25332000  0.96815000  0.98980000  1
  C  C204  1  0.67652000  0.67630000  0.87366000  1
  C  C205  1  0.70792000  0.70708000  0.82617000  1
  C  C206  1  0.79237000  0.79197000  0.81638000  1
  C  C207  1  0.81997000  0.81986000  0.77174000  1
  C  C208  1  0.67892000  0.67870000  0.74584000  1
  C  C209  1  0.65153000  0.65066000  0.79025000  1
  C  C210  1  0.76389000  0.76387000  0.73541000  1
  C  C211  1  0.79206000  0.79225000  0.68707000  1
  C  C212  1  0.88067000  0.88086000  0.67654000  1
  C  C213  1  0.90499000  0.90543000  0.63319000  1
  C  C214  1  0.84158000  0.84216000  0.59805000  1
  C  C215  1  0.86675000  0.86832000  0.54919000  1
  C  C216  1  0.82376000  0.82284000  0.37369000  1
  C  C217  1  0.79222000  0.79209000  0.32621000  1
  C  C218  1  0.70756000  0.70746000  0.31637000  1
  C  C219  1  0.67981000  0.67995000  0.27172000  1
  C  C220  1  0.82088000  0.82116000  0.24585000  1
  C  C221  1  0.84837000  0.84885000  0.29027000  1
  C  C222  1  0.73594000  0.73603000  0.23539000  1
  C  C223  1  0.70783000  0.70768000  0.18707000  1
  C  C224  1  0.61926000  0.61907000  0.17657000  1
  C  C225  1  0.59501000  0.59451000  0.13323000  1
  C  C226  1  0.65847000  0.65783000  0.09806000  1
  C  C227  1  0.63330000  0.63174000  0.04920000  1
  C  C228  1  0.17625000  0.17715000  0.62631000  1
  C  C229  1  0.20779000  0.20790000  0.67379000  1
  C  C230  1  0.29245000  0.29253000  0.68363000  1
  C  C231  1  0.32020000  0.32004000  0.72828000  1
  C  C232  1  0.17913000  0.17883000  0.75415000  1
  C  C233  1  0.15164000  0.15114000  0.70973000  1
  C  C234  1  0.26407000  0.26396000  0.76461000  1
  C  C235  1  0.29218000  0.29231000  0.81293000  1
  C  C236  1  0.38074000  0.38092000  0.82342000  1
  C  C237  1  0.40500000  0.40548000  0.86677000  1
  C  C238  1  0.34154000  0.34216000  0.90194000  1
  C  C239  1  0.36671000  0.36825000  0.95079000  1
  C  C240  1  0.32349000  0.32368000  0.12634000  1
  C  C241  1  0.29209000  0.29291000  0.17382000  1
  C  C242  1  0.20764000  0.20802000  0.18362000  1
  C  C243  1  0.18004000  0.18013000  0.22826000  1
  C  C244  1  0.32109000  0.32129000  0.25416000  1
  C  C245  1  0.34848000  0.34933000  0.20975000  1
  C  C246  1  0.23612000  0.23612000  0.26459000  1
  C  C247  1  0.20795000  0.20775000  0.31292000  1
  C  C248  1  0.11935000  0.11914000  0.32345000  1
  C  C249  1  0.09502000  0.09457000  0.36681000  1
  C  C250  1  0.15843000  0.15784000  0.40195000  1
  C  C251  1  0.13325000  0.13167000  0.45081000  1
  N  N252  1  0.70388000  0.47047000  0.95335000  1
  N  N253  1  0.90675000  0.25647000  0.95023000  1
  N  N254  1  0.79602000  0.02934000  0.45330000  1
  N  N255  1  0.59317000  0.24343000  0.45043000  1
  N  N256  1  0.97090000  0.20412000  0.54689000  1
  N  N257  1  0.75661000  0.40677000  0.54954000  1
  N  N258  1  0.52910000  0.29594000  0.04693000  1
  N  N259  1  0.74347000  0.09331000  0.04967000  1
  N  N260  1  0.29613000  0.52952000  0.04664000  1
  N  N261  1  0.09326000  0.74352000  0.04977000  1
  N  N262  1  0.20399000  0.97066000  0.54669000  1
  N  N263  1  0.40683000  0.75656000  0.54957000  1
  N  N264  1  0.02912000  0.79588000  0.45310000  1
  N  N265  1  0.24340000  0.59322000  0.45046000  1
  N  N266  1  0.47090000  0.70405000  0.95307000  1
  N  N267  1  0.25654000  0.90668000  0.95033000  1
  O  O268  1  0.85426000  0.20314000  0.87775000  1
  O  O269  1  0.96304000  0.31178000  0.02208000  1
  O  O270  1  0.64574000  0.29685000  0.37795000  1
  O  O271  1  0.53709000  0.18823000  0.52235000  1
  O  O272  1  0.70316000  0.35432000  0.62203000  1
  O  O273  1  0.81183000  0.46286000  0.47761000  1
  O  O274  1  0.79681000  0.14570000  0.12216000  1
  O  O275  1  0.68825000  0.03707000  0.97779000  1
  O  O276  1  0.14575000  0.79685000  0.12225000  1
  O  O277  1  0.03697000  0.68821000  0.97792000  1
  O  O278  1  0.35427000  0.70314000  0.62205000  1
  O  O279  1  0.46292000  0.81177000  0.47764000  1
  O  O280  1  0.29684000  0.64567000  0.37797000  1
  O  O281  1  0.18818000  0.53714000  0.52239000  1
  O  O282  1  0.20320000  0.85429000  0.87784000  1
  O  O283  1  0.31176000  0.96292000  0.02221000  1
  O  O284  1  0.81188000  0.81162000  0.51882000  1
  O  O285  1  0.94217000  0.94674000  0.53881000  1
  O  O286  1  0.72447000  0.72923000  0.90660000  1
  O  O287  1  0.59991000  0.59540000  0.87915000  1
  O  O288  1  0.68818000  0.68838000  0.01879000  1
  O  O289  1  0.55780000  0.55339000  0.03886000  1
  O  O290  1  0.77590000  0.77008000  0.40671000  1
  O  O291  1  0.90020000  0.90390000  0.37906000  1
  O  O292  1  0.31183000  0.31161000  0.98121000  1
  O  O293  1  0.44220000  0.44661000  0.96113000  1
  O  O294  1  0.22411000  0.22991000  0.59329000  1
  O  O295  1  0.09980000  0.09610000  0.62093000  1
  O  O296  1  0.18812000  0.18837000  0.48118000  1
  O  O297  1  0.05785000  0.05324000  0.46118000  1
  O  O298  1  0.27554000  0.27076000  0.09340000  1
  O  O299  1  0.40010000  0.40458000  0.12085000  1
