# generated using pymatgen
data_ZnHC5O4
_symmetry_space_group_name_H-M   'P 1'
_cell_length_a   6.39742000
_cell_length_b   7.47473000
_cell_length_c   8.17240000
_cell_angle_alpha   90.51500000
_cell_angle_beta   110.17916000
_cell_angle_gamma   92.00340000
_symmetry_Int_Tables_number   1
_chemical_formula_structural   ZnHC5O4
_chemical_formula_sum   'Zn2 H2 C10 O8'
_cell_volume   366.49177407
_cell_formula_units_Z   2
loop_
 _symmetry_equiv_pos_site_id
 _symmetry_equiv_pos_as_xyz
  1  'x, y, z'
loop_
 _atom_site_type_symbol
 _atom_site_label
 _atom_site_symmetry_multiplicity
 _atom_site_fract_x
 _atom_site_fract_y
 _atom_site_fract_z
 _atom_site_occupancy
  Zn  Zn1  1  0.50000000  0.00000000  0.50000000  1.0
  Zn  Zn2  1  1.00000000  0.50000000  0.50000000  1.0
  H  H1  1  0.55747000  0.17829000  0.96387000  1.0
  H  H2  1  0.44253000  0.82171000  0.03613000  1.0
  C  C1  1  0.53211000  0.31959000  0.98065000  1.0
  C  C2  1  0.56712000  0.39005000  0.14741000  1.0
  C  C3  1  0.53481000  0.57411000  0.16747000  1.0
  C  C4  1  0.56590000  0.66655000  0.33838000  1.0
  C  C5  1  0.62593000  0.26106000  0.29412000  1.0
  C  C6  1  0.46788000  0.68041000  0.01935000  1.0
  C  C7  1  0.43287000  0.60994000  0.85259000  1.0
  C  C8  1  0.46519000  0.42589000  0.83253000  1.0
  C  C9  1  0.43409000  0.33345000  0.66162000  1.0
  C  C10  1  0.37407000  0.73893000  0.70588000  1.0
  O  O1  1  0.48017000  0.13632000  0.28149000  1.0
  O  O2  1  0.81361000  0.27367000  0.41768000  1.0
  O  O3  1  0.42637000  0.78513000  0.33333333  1.0
  O  O4  1  0.72707000  0.63237000  0.47762000  1.0
  O  O5  1  0.51983000  0.86368000  0.71851000  1.0
  O  O6  1  0.18639000  0.72633000  0.58232000  1.0
  O  O7  1  0.57363000  0.21486000  0.66666667  1.0
  O  O8  1  0.27293000  0.36763000  0.52238000  1.0
