# generated using pymatgen
data_MgH4(C2O)4
_symmetry_space_group_name_H-M   'P 1'
_cell_length_a   14.50450000
_cell_length_b   16.82457000
_cell_length_c   18.73887000
_cell_angle_alpha   90.00000000
_cell_angle_beta   90.00000000
_cell_angle_gamma   90.00000000
_symmetry_Int_Tables_number   1
_chemical_formula_structural   MgH4(C2O)4
_chemical_formula_sum   'Mg16 H64 C128 O64'
_cell_volume   4572.88346596
_cell_formula_units_Z   16
loop_
 _symmetry_equiv_pos_site_id
 _symmetry_equiv_pos_as_xyz
  1  'x, y, z'
loop_
 _atom_site_type_symbol
 _atom_site_label
 _atom_site_symmetry_multiplicity
 _atom_site_fract_x
 _atom_site_fract_y
 _atom_site_fract_z
 _atom_site_occupancy
  Mg  Mg0  1  0.52671000  0.23707000  0.46371000  1
  Mg  Mg1  1  0.30499000  0.24221000  0.55992000  1
  Mg  Mg2  1  0.97329000  0.76293000  0.96371000  1
  Mg  Mg3  1  0.19501000  0.75779000  0.05993000  1
  Mg  Mg4  1  0.47329000  0.73707000  0.03628000  1
  Mg  Mg5  1  0.69500000  0.74221000  0.94007000  1
  Mg  Mg6  1  0.02671000  0.26293000  0.53628000  1
  Mg  Mg7  1  0.80499000  0.25779000  0.44007000  1
  Mg  Mg8  1  0.47329000  0.76293000  0.53628000  1
  Mg  Mg9  1  0.69500000  0.75779000  0.44007000  1
  Mg  Mg10  1  0.02671000  0.23707000  0.03628000  1
  Mg  Mg11  1  0.80499000  0.24221000  0.94007000  1
  Mg  Mg12  1  0.52671000  0.26293000  0.96371000  1
  Mg  Mg13  1  0.30499000  0.25779000  0.05993000  1
  Mg  Mg14  1  0.97329000  0.73707000  0.46371000  1
  Mg  Mg15  1  0.19501000  0.74221000  0.55992000  1
  H  H16  1  0.28922000  0.50466000  0.51708000  1
  H  H17  1  0.49562000  0.39351000  0.38572000  1
  H  H18  1  0.53740000  0.52547000  0.33496000  1
  H  H19  1  0.45774000  0.64789000  0.37817000  1
  H  H20  1  0.49360000  0.27530000  0.23683000  1
  H  H21  1  0.77172000  0.35219000  0.27603000  1
  H  H22  1  0.63979000  0.40640000  0.07504000  1
  H  H23  1  0.77472000  0.41961000  0.15685000  1
  H  H24  1  0.21078000  0.49533000  0.01708000  1
  H  H25  1  0.00438000  0.60649000  0.88572000  1
  H  H26  1  0.96259000  0.47453000  0.83495000  1
  H  H27  1  0.04226000  0.35210000  0.87817000  1
  H  H28  1  0.00639000  0.72470000  0.73683000  1
  H  H29  1  0.72828000  0.64780000  0.77602000  1
  H  H30  1  0.86021000  0.59360000  0.57504000  1
  H  H31  1  0.72528000  0.58038000  0.65684000  1
  H  H32  1  0.71078000  0.00467000  0.98291000  1
  H  H33  1  0.50438000  0.89351000  0.11428000  1
  H  H34  1  0.46259000  0.02547000  0.16504000  1
  H  H35  1  0.54225000  0.14790000  0.12182000  1
  H  H36  1  0.50639000  0.77530000  0.26317000  1
  H  H37  1  0.22828000  0.85219000  0.22397000  1
  H  H38  1  0.36021000  0.90639000  0.42496000  1
  H  H39  1  0.22528000  0.91961000  0.34315000  1
  H  H40  1  0.78922000  0.99533000  0.48291000  1
  H  H41  1  0.99562000  0.10649000  0.61428000  1
  H  H42  1  0.03741000  0.97453000  0.66504000  1
  H  H43  1  0.95774000  0.85210000  0.62182000  1
  H  H44  1  0.99361000  0.22470000  0.76317000  1
  H  H45  1  0.27172000  0.14781000  0.72397000  1
  H  H46  1  0.13979000  0.09360000  0.92496000  1
  H  H47  1  0.27472000  0.08038000  0.84315000  1
  H  H48  1  0.71078000  0.49533000  0.48291000  1
  H  H49  1  0.50438000  0.60649000  0.61428000  1
  H  H50  1  0.46259000  0.47453000  0.66504000  1
  H  H51  1  0.54225000  0.35210000  0.62182000  1
  H  H52  1  0.50639000  0.72470000  0.76317000  1
  H  H53  1  0.22828000  0.64780000  0.72397000  1
  H  H54  1  0.36021000  0.59360000  0.92496000  1
  H  H55  1  0.22528000  0.58038000  0.84315000  1
  H  H56  1  0.78922000  0.50466000  0.98291000  1
  H  H57  1  0.99562000  0.39351000  0.11428000  1
  H  H58  1  0.03741000  0.52547000  0.16504000  1
  H  H59  1  0.95774000  0.64789000  0.12182000  1
  H  H60  1  0.99361000  0.27530000  0.26317000  1
  H  H61  1  0.27172000  0.35219000  0.22397000  1
  H  H62  1  0.13979000  0.40640000  0.42496000  1
  H  H63  1  0.27472000  0.41961000  0.34315000  1
  H  H64  1  0.28922000  0.99533000  0.01708000  1
  H  H65  1  0.49562000  0.10649000  0.88572000  1
  H  H66  1  0.53740000  0.97453000  0.83495000  1
  H  H67  1  0.45774000  0.85210000  0.87817000  1
  H  H68  1  0.49360000  0.22470000  0.73683000  1
  H  H69  1  0.77172000  0.14781000  0.77602000  1
  H  H70  1  0.63979000  0.09360000  0.57504000  1
  H  H71  1  0.77472000  0.08038000  0.65684000  1
  H  H72  1  0.21078000  0.00467000  0.51708000  1
  H  H73  1  0.00438000  0.89351000  0.38572000  1
  H  H74  1  0.96259000  0.02547000  0.33496000  1
  H  H75  1  0.04226000  0.14790000  0.37817000  1
  H  H76  1  0.00639000  0.77530000  0.23683000  1
  H  H77  1  0.72828000  0.85219000  0.27603000  1
  H  H78  1  0.86021000  0.90639000  0.07504000  1
  H  H79  1  0.72528000  0.91961000  0.15685000  1
  C  C80  1  0.32137000  0.65622000  0.47847000  1
  C  C81  1  0.36831000  0.58392000  0.45011000  1
  C  C82  1  0.34385000  0.50968000  0.47764000  1
  C  C83  1  0.39148000  0.44137000  0.45609000  1
  C  C84  1  0.46086000  0.44707000  0.40410000  1
  C  C85  1  0.48381000  0.52113000  0.37536000  1
  C  C86  1  0.43908000  0.58972000  0.39923000  1
  C  C87  1  0.63208000  0.27099000  0.33486000  1
  C  C88  1  0.55523000  0.30634000  0.21908000  1
  C  C89  1  0.63250000  0.31023000  0.26354000  1
  C  C90  1  0.71209000  0.35059000  0.24074000  1
  C  C91  1  0.48115000  0.32550000  0.10003000  1
  C  C92  1  0.55862000  0.33984000  0.15066000  1
  C  C93  1  0.63795000  0.38084000  0.12837000  1
  C  C94  1  0.36689000  0.36447000  0.48986000  1
  C  C95  1  0.71371000  0.38731000  0.17400000  1
  C  C96  1  0.17863000  0.34378000  0.97847000  1
  C  C97  1  0.13169000  0.41608000  0.95011000  1
  C  C98  1  0.15615000  0.49032000  0.97764000  1
  C  C99  1  0.10852000  0.55863000  0.95609000  1
  C  C100  1  0.03914000  0.55292000  0.90410000  1
  C  C101  1  0.01619000  0.47887000  0.87536000  1
  C  C102  1  0.06092000  0.41028000  0.89923000  1
  C  C103  1  0.86792000  0.72901000  0.83486000  1
  C  C104  1  0.94477000  0.69365000  0.71907000  1
  C  C105  1  0.86750000  0.68977000  0.76354000  1
  C  C106  1  0.78791000  0.64940000  0.74074000  1
  C  C107  1  0.01885000  0.67449000  0.60002000  1
  C  C108  1  0.94138000  0.66015000  0.65066000  1
  C  C109  1  0.86205000  0.61916000  0.62837000  1
  C  C110  1  0.13311000  0.63553000  0.98986000  1
  C  C111  1  0.78629000  0.61269000  0.67399000  1
  C  C112  1  0.67862000  0.15622000  0.02153000  1
  C  C113  1  0.63169000  0.08392000  0.04989000  1
  C  C114  1  0.65615000  0.00968000  0.02236000  1
  C  C115  1  0.60851000  0.94136000  0.04391000  1
  C  C116  1  0.53914000  0.94707000  0.09590000  1
  C  C117  1  0.51619000  0.02113000  0.12464000  1
  C  C118  1  0.56092000  0.08972000  0.10077000  1
  C  C119  1  0.36792000  0.77099000  0.16514000  1
  C  C120  1  0.44477000  0.80634000  0.28092000  1
  C  C121  1  0.36750000  0.81022000  0.23645000  1
  C  C122  1  0.28791000  0.85059000  0.25926000  1
  C  C123  1  0.51885000  0.82550000  0.39997000  1
  C  C124  1  0.44138000  0.83984000  0.34934000  1
  C  C125  1  0.36205000  0.88084000  0.37163000  1
  C  C126  1  0.63311000  0.86447000  0.01014000  1
  C  C127  1  0.28629000  0.88731000  0.32600000  1
  C  C128  1  0.82137000  0.84378000  0.52153000  1
  C  C129  1  0.86831000  0.91608000  0.54989000  1
  C  C130  1  0.84385000  0.99032000  0.52235000  1
  C  C131  1  0.89148000  0.05863000  0.54391000  1
  C  C132  1  0.96086000  0.05293000  0.59590000  1
  C  C133  1  0.98381000  0.97887000  0.62464000  1
  C  C134  1  0.93908000  0.91028000  0.60077000  1
  C  C135  1  0.13208000  0.22901000  0.66514000  1
  C  C136  1  0.05523000  0.19365000  0.78092000  1
  C  C137  1  0.13250000  0.18977000  0.73645000  1
  C  C138  1  0.21209000  0.14941000  0.75925000  1
  C  C139  1  0.98115000  0.17449000  0.89997000  1
  C  C140  1  0.05862000  0.16015000  0.84933000  1
  C  C141  1  0.13795000  0.11916000  0.87163000  1
  C  C142  1  0.86689000  0.13553000  0.51014000  1
  C  C143  1  0.21371000  0.11269000  0.82600000  1
  C  C144  1  0.67862000  0.34378000  0.52153000  1
  C  C145  1  0.63169000  0.41608000  0.54989000  1
  C  C146  1  0.65615000  0.49032000  0.52235000  1
  C  C147  1  0.60851000  0.55863000  0.54391000  1
  C  C148  1  0.53914000  0.55292000  0.59590000  1
  C  C149  1  0.51619000  0.47887000  0.62464000  1
  C  C150  1  0.56092000  0.41028000  0.60077000  1
  C  C151  1  0.36792000  0.72901000  0.66514000  1
  C  C152  1  0.44477000  0.69365000  0.78092000  1
  C  C153  1  0.36750000  0.68977000  0.73645000  1
  C  C154  1  0.28791000  0.64940000  0.75925000  1
  C  C155  1  0.51885000  0.67449000  0.89997000  1
  C  C156  1  0.44138000  0.66015000  0.84933000  1
  C  C157  1  0.36205000  0.61916000  0.87163000  1
  C  C158  1  0.63311000  0.63553000  0.51014000  1
  C  C159  1  0.28629000  0.61269000  0.82600000  1
  C  C160  1  0.82137000  0.65622000  0.02153000  1
  C  C161  1  0.86831000  0.58392000  0.04989000  1
  C  C162  1  0.84385000  0.50968000  0.02236000  1
  C  C163  1  0.89148000  0.44137000  0.04391000  1
  C  C164  1  0.96086000  0.44707000  0.09590000  1
  C  C165  1  0.98381000  0.52113000  0.12464000  1
  C  C166  1  0.93908000  0.58972000  0.10077000  1
  C  C167  1  0.13208000  0.27099000  0.16514000  1
  C  C168  1  0.05523000  0.30634000  0.28092000  1
  C  C169  1  0.13250000  0.31023000  0.23645000  1
  C  C170  1  0.21209000  0.35059000  0.25926000  1
  C  C171  1  0.98115000  0.32550000  0.39997000  1
  C  C172  1  0.05862000  0.33984000  0.34934000  1
  C  C173  1  0.13795000  0.38084000  0.37163000  1
  C  C174  1  0.86689000  0.36447000  0.01014000  1
  C  C175  1  0.21371000  0.38731000  0.32600000  1
  C  C176  1  0.32137000  0.84378000  0.97847000  1
  C  C177  1  0.36831000  0.91608000  0.95011000  1
  C  C178  1  0.34385000  0.99032000  0.97764000  1
  C  C179  1  0.39148000  0.05863000  0.95609000  1
  C  C180  1  0.46086000  0.05293000  0.90410000  1
  C  C181  1  0.48381000  0.97887000  0.87536000  1
  C  C182  1  0.43908000  0.91028000  0.89923000  1
  C  C183  1  0.63208000  0.22901000  0.83486000  1
  C  C184  1  0.55523000  0.19365000  0.71907000  1
  C  C185  1  0.63250000  0.18977000  0.76354000  1
  C  C186  1  0.71209000  0.14941000  0.74074000  1
  C  C187  1  0.48115000  0.17449000  0.60002000  1
  C  C188  1  0.55862000  0.16015000  0.65066000  1
  C  C189  1  0.63795000  0.11916000  0.62837000  1
  C  C190  1  0.36689000  0.13553000  0.98986000  1
  C  C191  1  0.71371000  0.11269000  0.67399000  1
  C  C192  1  0.17863000  0.15622000  0.47847000  1
  C  C193  1  0.13169000  0.08392000  0.45011000  1
  C  C194  1  0.15615000  0.00968000  0.47764000  1
  C  C195  1  0.10852000  0.94136000  0.45609000  1
  C  C196  1  0.03914000  0.94707000  0.40410000  1
  C  C197  1  0.01619000  0.02113000  0.37536000  1
  C  C198  1  0.06092000  0.08972000  0.39923000  1
  C  C199  1  0.86792000  0.77099000  0.33486000  1
  C  C200  1  0.94477000  0.80634000  0.21908000  1
  C  C201  1  0.86750000  0.81022000  0.26354000  1
  C  C202  1  0.78791000  0.85059000  0.24074000  1
  C  C203  1  0.01885000  0.82550000  0.10003000  1
  C  C204  1  0.94138000  0.83984000  0.15066000  1
  C  C205  1  0.86205000  0.88084000  0.12837000  1
  C  C206  1  0.13311000  0.86447000  0.48986000  1
  C  C207  1  0.78629000  0.88731000  0.17400000  1
  O  O208  1  0.41230000  0.30042000  0.47503000  1
  O  O209  1  0.36717000  0.72136000  0.48217000  1
  O  O210  1  0.55395000  0.24971000  0.36125000  1
  O  O211  1  0.49136000  0.34527000  0.03418000  1
  O  O212  1  0.23838000  0.65046000  0.49966000  1
  O  O213  1  0.30056000  0.36104000  0.53401000  1
  O  O214  1  0.40921000  0.29053000  0.12388000  1
  O  O215  1  0.70867000  0.26160000  0.36586000  1
  O  O216  1  0.08770000  0.69958000  0.97503000  1
  O  O217  1  0.13283000  0.27864000  0.98216000  1
  O  O218  1  0.94605000  0.75029000  0.86125000  1
  O  O219  1  0.00864000  0.65472000  0.53418000  1
  O  O220  1  0.26162000  0.34954000  0.99966000  1
  O  O221  1  0.19944000  0.63896000  0.03402000  1
  O  O222  1  0.09079000  0.70947000  0.62388000  1
  O  O223  1  0.79133000  0.73840000  0.86585000  1
  O  O224  1  0.58770000  0.80042000  0.02496000  1
  O  O225  1  0.63283000  0.22136000  0.01783000  1
  O  O226  1  0.44605000  0.74971000  0.13875000  1
  O  O227  1  0.50864000  0.84527000  0.46581000  1
  O  O228  1  0.76162000  0.15046000  0.00034000  1
  O  O229  1  0.69944000  0.86103000  0.96598000  1
  O  O230  1  0.59079000  0.79053000  0.37612000  1
  O  O231  1  0.29133000  0.76160000  0.13414000  1
  O  O232  1  0.91230000  0.19958000  0.52496000  1
  O  O233  1  0.86717000  0.77864000  0.51783000  1
  O  O234  1  0.05395000  0.25029000  0.63875000  1
  O  O235  1  0.99136000  0.15473000  0.96581000  1
  O  O236  1  0.73838000  0.84954000  0.50034000  1
  O  O237  1  0.80056000  0.13896000  0.46598000  1
  O  O238  1  0.90921000  0.20947000  0.87611000  1
  O  O239  1  0.20867000  0.23840000  0.63414000  1
  O  O240  1  0.58770000  0.69958000  0.52496000  1
  O  O241  1  0.63283000  0.27864000  0.51783000  1
  O  O242  1  0.44605000  0.75029000  0.63875000  1
  O  O243  1  0.50864000  0.65472000  0.96581000  1
  O  O244  1  0.76162000  0.34954000  0.50034000  1
  O  O245  1  0.69944000  0.63896000  0.46598000  1
  O  O246  1  0.59079000  0.70947000  0.87611000  1
  O  O247  1  0.29133000  0.73840000  0.63414000  1
  O  O248  1  0.91230000  0.30042000  0.02496000  1
  O  O249  1  0.86717000  0.72136000  0.01783000  1
  O  O250  1  0.05395000  0.24971000  0.13875000  1
  O  O251  1  0.99136000  0.34527000  0.46581000  1
  O  O252  1  0.73838000  0.65046000  0.00034000  1
  O  O253  1  0.80056000  0.36104000  0.96598000  1
  O  O254  1  0.90921000  0.29053000  0.37612000  1
  O  O255  1  0.20867000  0.26160000  0.13414000  1
  O  O256  1  0.41230000  0.19958000  0.97503000  1
  O  O257  1  0.36717000  0.77864000  0.98216000  1
  O  O258  1  0.55395000  0.25029000  0.86125000  1
  O  O259  1  0.49136000  0.15473000  0.53418000  1
  O  O260  1  0.23838000  0.84954000  0.99966000  1
  O  O261  1  0.30056000  0.13896000  0.03402000  1
  O  O262  1  0.40921000  0.20947000  0.62388000  1
  O  O263  1  0.70867000  0.23840000  0.86585000  1
  O  O264  1  0.08770000  0.80042000  0.47503000  1
  O  O265  1  0.13283000  0.22136000  0.48217000  1
  O  O266  1  0.94605000  0.74971000  0.36125000  1
  O  O267  1  0.00864000  0.84527000  0.03418000  1
  O  O268  1  0.26162000  0.15046000  0.49966000  1
  O  O269  1  0.19944000  0.86103000  0.53401000  1
  O  O270  1  0.09079000  0.79053000  0.12388000  1
  O  O271  1  0.79133000  0.76160000  0.36586000  1
