# generated using pymatgen
data_V2H14C23O10
_symmetry_space_group_name_H-M   'P 1'
_cell_length_a   7.07697000
_cell_length_b   13.41729000
_cell_length_c   18.36531000
_cell_angle_alpha   110.23022000
_cell_angle_beta   90.00010000
_cell_angle_gamma   90.00039000
_symmetry_Int_Tables_number   1
_chemical_formula_structural   V2H14C23O10
_chemical_formula_sum   'V4 H28 C46 O20'
_cell_volume   1636.27812833
_cell_formula_units_Z   2
loop_
 _symmetry_equiv_pos_site_id
 _symmetry_equiv_pos_as_xyz
  1  'x, y, z'
loop_
 _atom_site_type_symbol
 _atom_site_label
 _atom_site_symmetry_multiplicity
 _atom_site_fract_x
 _atom_site_fract_y
 _atom_site_fract_z
 _atom_site_occupancy
  V  V0  1  0.93551000  0.99046000  0.50356000  1
  V  V1  1  0.43551000  0.00954000  0.49644000  1
  V  V2  1  0.35165000  0.00953000  0.99644000  1
  V  V3  1  0.85165000  0.99047000  0.00356000  1
  H  H4  1  0.20476000  0.34341000  0.48999000  1
  H  H5  1  0.70476000  0.65660000  0.51001000  1
  H  H6  1  0.11579000  0.30492000  0.70803000  1
  H  H7  1  0.61579000  0.69509000  0.29195000  1
  H  H8  1  0.10140000  0.37495000  0.82806000  1
  H  H9  1  0.60144000  0.62505000  0.17193000  1
  H  H10  1  0.24928000  0.77375000  0.81144000  1
  H  H11  1  0.74925000  0.22625000  0.18856000  1
  H  H12  1  0.10346000  0.87830000  0.62493000  1
  H  H13  1  0.13001000  0.76429000  0.53523000  1
  H  H14  1  0.89786000  0.80567000  0.57559000  1
  H  H15  1  0.99585000  0.64893000  0.60119000  1
  H  H16  1  0.96501000  0.76144000  0.68894000  1
  H  H17  1  0.31192000  0.79611000  0.69794000  1
  H  H18  1  0.35713000  0.68860000  0.61153000  1
  H  H19  1  0.60348000  0.12174000  0.37511000  1
  H  H20  1  0.62992000  0.23579000  0.46478000  1
  H  H21  1  0.39783000  0.19434000  0.42441000  1
  H  H22  1  0.49578000  0.35106000  0.39877000  1
  H  H23  1  0.46501000  0.23852000  0.31104000  1
  H  H24  1  0.81190000  0.20390000  0.30206000  1
  H  H25  1  0.85708000  0.31141000  0.38847000  1
  H  H26  1  0.26658000  0.52864000  0.55142000  1
  H  H27  1  0.76654000  0.47137000  0.44858000  1
  H  H28  1  0.05719000  0.66231000  0.01960000  1
  H  H29  1  0.55724000  0.33768000  0.98039000  1
  H  H30  1  0.04393000  0.46750000  0.96398000  1
  H  H31  1  0.54401000  0.53249000  0.03601000  1
  C  C32  1  0.65527000  0.99821000  0.63607000  1
  C  C33  1  0.15527000  0.00179000  0.36393000  1
  C  C34  1  0.65540000  0.79958000  0.44091000  1
  C  C35  1  0.15540000  0.20043000  0.55908000  1
  C  C36  1  0.23231000  0.48452000  0.58888000  1
  C  C37  1  0.73228000  0.51549000  0.41112000  1
  C  C38  1  0.15359000  0.31478000  0.59654000  1
  C  C39  1  0.65359000  0.68523000  0.40345000  1
  C  C40  1  0.09031000  0.62280000  0.95877000  1
  C  C41  1  0.59035000  0.37719000  0.04122000  1
  C  C42  1  0.08133000  0.51261000  0.92728000  1
  C  C43  1  0.58138000  0.48739000  0.07271000  1
  C  C44  1  0.11466000  0.46012000  0.84835000  1
  C  C45  1  0.61469000  0.53988000  0.15164000  1
  C  C46  1  0.16099000  0.51738000  0.79879000  1
  C  C47  1  0.66100000  0.48262000  0.20120000  1
  C  C48  1  0.18283000  0.62935000  0.83287000  1
  C  C49  1  0.68282000  0.37065000  0.16712000  1
  C  C50  1  0.17861000  0.46832000  0.71644000  1
  C  C51  1  0.67860000  0.53168000  0.28355000  1
  C  C52  1  0.22403000  0.53185000  0.67053000  1
  C  C53  1  0.72400000  0.46816000  0.32946000  1
  C  C54  1  0.25327000  0.64200000  0.70666000  1
  C  C55  1  0.75324000  0.35801000  0.29334000  1
  C  C56  1  0.23495000  0.68840000  0.78653000  1
  C  C57  1  0.73493000  0.31161000  0.21347000  1
  C  C58  1  0.14518000  0.35877000  0.67747000  1
  C  C59  1  0.64518000  0.64123000  0.32252000  1
  C  C60  1  0.19564000  0.37766000  0.55261000  1
  C  C61  1  0.69562000  0.62235000  0.44738000  1
  C  C62  1  0.14099000  0.68184000  0.91229000  1
  C  C63  1  0.64100000  0.31816000  0.08770000  1
  C  C64  1  0.14144000  0.00010000  0.21651000  1
  C  C65  1  0.64144000  0.99990000  0.78349000  1
  C  C66  1  0.14712000  0.00120000  0.28363000  1
  C  C67  1  0.64712000  0.99880000  0.71637000  1
  C  C68  1  0.63248000  0.20152000  0.05416000  1
  C  C69  1  0.13248000  0.79848000  0.94584000  1
  C  C70  1  0.63341000  0.00101000  0.86393000  1
  C  C71  1  0.13341000  0.99899000  0.13607000  1
  C  C72  1  0.25851000  0.71640000  0.66148000  1
  C  C73  1  0.05570000  0.72727000  0.63665000  1
  C  C74  1  0.04768000  0.79889000  0.58971000  1
  C  C75  1  0.75848000  0.28360000  0.33852000  1
  C  C76  1  0.55567000  0.27273000  0.36333000  1
  C  C77  1  0.54764000  0.20114000  0.41030000  1
  O  O78  1  0.49380000  0.84999000  0.45388000  1
  O  O79  1  0.99380000  0.15001000  0.54612000  1
  O  O80  1  0.82223000  0.99272000  0.60408000  1
  O  O81  1  0.32223000  0.00728000  0.39592000  1
  O  O82  1  0.82336000  0.84087000  0.45801000  1
  O  O83  1  0.32336000  0.15913000  0.54199000  1
  O  O84  1  0.99599000  0.99707000  0.39901000  1
  O  O85  1  0.49599000  0.00293000  0.60099000  1
  O  O86  1  0.66156000  0.05143000  0.48081000  1
  O  O87  1  0.16156000  0.94857000  0.51919000  1
  O  O88  1  0.79451000  0.99721000  0.89903000  1
  O  O89  1  0.29451000  0.00279000  0.10097000  1
  O  O90  1  0.46363000  0.15916000  0.04200000  1
  O  O91  1  0.96363000  0.84084000  0.95800000  1
  O  O92  1  0.46493000  0.00731000  0.89593000  1
  O  O93  1  0.96493000  0.99269000  0.10407000  1
  O  O94  1  0.29248000  0.84996000  0.95387000  1
  O  O95  1  0.79248000  0.15004000  0.04613000  1
  O  O96  1  0.62566000  0.94866000  0.01920000  1
  O  O97  1  0.12566000  0.05134000  0.98080000  1
