# generated using pymatgen
data_CuH16C9(SN4)2
_symmetry_space_group_name_H-M   'P 1'
_cell_length_a   13.52715000
_cell_length_b   13.61933000
_cell_length_c   24.77179000
_cell_angle_alpha   90.00000000
_cell_angle_beta   90.00000000
_cell_angle_gamma   104.09781000
_symmetry_Int_Tables_number   1
_chemical_formula_structural   CuH16C9(SN4)2
_chemical_formula_sum   'Cu8 H128 C72 S16 N64'
_cell_volume   4426.27136705
_cell_formula_units_Z   8
loop_
 _symmetry_equiv_pos_site_id
 _symmetry_equiv_pos_as_xyz
  1  'x, y, z'
loop_
 _atom_site_type_symbol
 _atom_site_label
 _atom_site_symmetry_multiplicity
 _atom_site_fract_x
 _atom_site_fract_y
 _atom_site_fract_z
 _atom_site_occupancy
  Cu  Cu0  1  0.46041000  0.28593000  0.75508000  1
  Cu  Cu1  1  0.43376000  0.02485000  0.79308000  1
  Cu  Cu2  1  0.53960000  0.21407000  0.25508000  1
  Cu  Cu3  1  0.56624000  0.47515000  0.29308000  1
  Cu  Cu4  1  0.53960000  0.71407000  0.24492000  1
  Cu  Cu5  1  0.56624000  0.97515000  0.20693000  1
  Cu  Cu6  1  0.46041000  0.78593000  0.74493000  1
  Cu  Cu7  1  0.43376000  0.52485000  0.70693000  1
  H  H8  1  0.69651000  0.25451000  0.63624000  1
  H  H9  1  0.69677000  0.38492000  0.64132000  1
  H  H10  1  0.80702000  0.35284000  0.56308000  1
  H  H11  1  0.69936000  0.26984000  0.53436000  1
  H  H12  1  0.61030000  0.41542000  0.53324000  1
  H  H13  1  0.72344000  0.49692000  0.55519000  1
  H  H14  1  0.70804000  0.37250000  0.45045000  1
  H  H15  1  0.80998000  0.47300000  0.46939000  1
  H  H16  1  0.68392000  0.58967000  0.46660000  1
  H  H17  1  0.70863000  0.53965000  0.40326000  1
  H  H18  1  0.56455000  0.08977000  0.56077000  1
  H  H19  1  0.51675000  0.96358000  0.58768000  1
  H  H20  1  0.43252000  0.02809000  0.55463000  1
  H  H21  1  0.47626000  0.28967000  0.49761000  1
  H  H22  1  0.42213000  0.16348000  0.47518000  1
  H  H23  1  0.55749000  0.20948000  0.48014000  1
  H  H24  1  0.24400000  0.08290000  0.84398000  1
  H  H25  1  0.27921000  0.21616000  0.83596000  1
  H  H26  1  0.09059000  0.21631000  0.83913000  1
  H  H27  1  0.13581000  0.17884000  0.90030000  1
  H  H28  1  0.05951000  0.00081000  0.88426000  1
  H  H29  1  0.03402000  0.02124000  0.81641000  1
  H  H30  1  0.87744000  0.99153000  0.87760000  1
  H  H31  1  0.93194000  0.10676000  0.91033000  1
  H  H32  1  0.93621000  0.19689000  0.81901000  1
  H  H33  1  0.81108000  0.13762000  0.84096000  1
  H  H34  1  0.03178000  0.19648000  0.71443000  1
  H  H35  1  0.03790000  0.28825000  0.66199000  1
  H  H36  1  0.02476000  0.32296000  0.73069000  1
  H  H37  1  0.79324000  0.85678000  0.71994000  1
  H  H38  1  0.67348000  0.76648000  0.72930000  1
  H  H39  1  0.68885000  0.85052000  0.67314000  1
  H  H40  1  0.30350000  0.24549000  0.13624000  1
  H  H41  1  0.30324000  0.11508000  0.14132000  1
  H  H42  1  0.19298000  0.14716000  0.06308000  1
  H  H43  1  0.30064000  0.23016000  0.03436000  1
  H  H44  1  0.38971000  0.08458000  0.03324000  1
  H  H45  1  0.27656000  0.00308000  0.05518000  1
  H  H46  1  0.29197000  0.12750000  0.95045000  1
  H  H47  1  0.19002000  0.02700000  0.96939000  1
  H  H48  1  0.31609000  0.91032000  0.96660000  1
  H  H49  1  0.29138000  0.96035000  0.90326000  1
  H  H50  1  0.43546000  0.41023000  0.06076000  1
  H  H51  1  0.48326000  0.53641000  0.08768000  1
  H  H52  1  0.56749000  0.47190000  0.05463000  1
  H  H53  1  0.52374000  0.21033000  0.99761000  1
  H  H54  1  0.57787000  0.33652000  0.97518000  1
  H  H55  1  0.44252000  0.29052000  0.98014000  1
  H  H56  1  0.75600000  0.41709000  0.34398000  1
  H  H57  1  0.72079000  0.28383000  0.33596000  1
  H  H58  1  0.90941000  0.28369000  0.33913000  1
  H  H59  1  0.86420000  0.32116000  0.40030000  1
  H  H60  1  0.94050000  0.49918000  0.38426000  1
  H  H61  1  0.96598000  0.47876000  0.31641000  1
  H  H62  1  0.12256000  0.50847000  0.37760000  1
  H  H63  1  0.06806000  0.39324000  0.41033000  1
  H  H64  1  0.06380000  0.30311000  0.31901000  1
  H  H65  1  0.18893000  0.36238000  0.34096000  1
  H  H66  1  0.96823000  0.30352000  0.21443000  1
  H  H67  1  0.96210000  0.21175000  0.16199000  1
  H  H68  1  0.97525000  0.17704000  0.23069000  1
  H  H69  1  0.20676000  0.64321000  0.21994000  1
  H  H70  1  0.32652000  0.73352000  0.22930000  1
  H  H71  1  0.31116000  0.64948000  0.17314000  1
  H  H72  1  0.30350000  0.74548000  0.36376000  1
  H  H73  1  0.30324000  0.61508000  0.35868000  1
  H  H74  1  0.19298000  0.64716000  0.43692000  1
  H  H75  1  0.30065000  0.73016000  0.46564000  1
  H  H76  1  0.38971000  0.58458000  0.46676000  1
  H  H77  1  0.27656000  0.50308000  0.44482000  1
  H  H78  1  0.29197000  0.62749000  0.54956000  1
  H  H79  1  0.19002000  0.52700000  0.53062000  1
  H  H80  1  0.31608000  0.41033000  0.53341000  1
  H  H81  1  0.29138000  0.46035000  0.59674000  1
  H  H82  1  0.43546000  0.91023000  0.43924000  1
  H  H83  1  0.48325000  0.03642000  0.41232000  1
  H  H84  1  0.56749000  0.97190000  0.44537000  1
  H  H85  1  0.52374000  0.71033000  0.50239000  1
  H  H86  1  0.57787000  0.83652000  0.52483000  1
  H  H87  1  0.44252000  0.79051000  0.51987000  1
  H  H88  1  0.75600000  0.91709000  0.15602000  1
  H  H89  1  0.72080000  0.78383000  0.16404000  1
  H  H90  1  0.90941000  0.78369000  0.16087000  1
  H  H91  1  0.86420000  0.82116000  0.09970000  1
  H  H92  1  0.94050000  0.99918000  0.11574000  1
  H  H93  1  0.96598000  0.97876000  0.18359000  1
  H  H94  1  0.12256000  0.00847000  0.12240000  1
  H  H95  1  0.06806000  0.89324000  0.08967000  1
  H  H96  1  0.06380000  0.80310000  0.18099000  1
  H  H97  1  0.18893000  0.86238000  0.15904000  1
  H  H98  1  0.96823000  0.80352000  0.28557000  1
  H  H99  1  0.96210000  0.71175000  0.33801000  1
  H  H100  1  0.97525000  0.67704000  0.26931000  1
  H  H101  1  0.20676000  0.14322000  0.28006000  1
  H  H102  1  0.32652000  0.23352000  0.27070000  1
  H  H103  1  0.31116000  0.14948000  0.32686000  1
  H  H104  1  0.69651000  0.75451000  0.86376000  1
  H  H105  1  0.69677000  0.88492000  0.85868000  1
  H  H106  1  0.80702000  0.85284000  0.93692000  1
  H  H107  1  0.69936000  0.76983000  0.96564000  1
  H  H108  1  0.61030000  0.91542000  0.96676000  1
  H  H109  1  0.72344000  0.99691000  0.94482000  1
  H  H110  1  0.70804000  0.87250000  0.04956000  1
  H  H111  1  0.80998000  0.97300000  0.03061000  1
  H  H112  1  0.68392000  0.08967000  0.03340000  1
  H  H113  1  0.70863000  0.03965000  0.09674000  1
  H  H114  1  0.56455000  0.58977000  0.93924000  1
  H  H115  1  0.51675000  0.46358000  0.91232000  1
  H  H116  1  0.43252000  0.52809000  0.94537000  1
  H  H117  1  0.47627000  0.78967000  0.00239000  1
  H  H118  1  0.42214000  0.66348000  0.02483000  1
  H  H119  1  0.55749000  0.70948000  0.01986000  1
  H  H120  1  0.24400000  0.58290000  0.65602000  1
  H  H121  1  0.27921000  0.71616000  0.66404000  1
  H  H122  1  0.09059000  0.71631000  0.66087000  1
  H  H123  1  0.13581000  0.67884000  0.59970000  1
  H  H124  1  0.05951000  0.50082000  0.61574000  1
  H  H125  1  0.03403000  0.52123000  0.68359000  1
  H  H126  1  0.87744000  0.49153000  0.62240000  1
  H  H127  1  0.93194000  0.60676000  0.58967000  1
  H  H128  1  0.93621000  0.69689000  0.68099000  1
  H  H129  1  0.81108000  0.63762000  0.65904000  1
  H  H130  1  0.03178000  0.69648000  0.78557000  1
  H  H131  1  0.03790000  0.78825000  0.83801000  1
  H  H132  1  0.02476000  0.82296000  0.76931000  1
  H  H133  1  0.79324000  0.35678000  0.78006000  1
  H  H134  1  0.67348000  0.26648000  0.77070000  1
  H  H135  1  0.68884000  0.35052000  0.82686000  1
  C  C136  1  0.49679000  0.17697000  0.64971000  1
  C  C137  1  0.67576000  0.31768000  0.61550000  1
  C  C138  1  0.72345000  0.33827000  0.55942000  1
  C  C139  1  0.69359000  0.42753000  0.53167000  1
  C  C140  1  0.72654000  0.44479000  0.47255000  1
  C  C141  1  0.67627000  0.51920000  0.44354000  1
  C  C142  1  0.52552000  0.36571000  0.39721000  1
  C  C143  1  0.50022000  0.03750000  0.58061000  1
  C  C144  1  0.48577000  0.23022000  0.46983000  1
  C  C145  1  0.23344000  0.25346000  0.73418000  1
  C  C146  1  0.21719000  0.14839000  0.83015000  1
  C  C147  1  0.11860000  0.15527000  0.85807000  1
  C  C148  1  0.03661000  0.05499000  0.85692000  1
  C  C149  1  0.92975000  0.06630000  0.87164000  1
  C  C150  1  0.88446000  0.12371000  0.82885000  1
  C  C151  1  0.72864000  0.00715000  0.77023000  1
  C  C152  1  0.05956000  0.27651000  0.70377000  1
  C  C153  1  0.71044000  0.84341000  0.71560000  1
  C  C154  1  0.50322000  0.32303000  0.14971000  1
  C  C155  1  0.32425000  0.18232000  0.11550000  1
  C  C156  1  0.27655000  0.16173000  0.05942000  1
  C  C157  1  0.30641000  0.07247000  0.03167000  1
  C  C158  1  0.27346000  0.05521000  0.97255000  1
  C  C159  1  0.32374000  0.98080000  0.94354000  1
  C  C160  1  0.47449000  0.13428000  0.89721000  1
  C  C161  1  0.49978000  0.46250000  0.08061000  1
  C  C162  1  0.51423000  0.26978000  0.96983000  1
  C  C163  1  0.76656000  0.24654000  0.23418000  1
  C  C164  1  0.78282000  0.35161000  0.33014000  1
  C  C165  1  0.88140000  0.34473000  0.35806000  1
  C  C166  1  0.96340000  0.44501000  0.35692000  1
  C  C167  1  0.07026000  0.43370000  0.37164000  1
  C  C168  1  0.11555000  0.37628000  0.32885000  1
  C  C169  1  0.27137000  0.49285000  0.27023000  1
  C  C170  1  0.94045000  0.22349000  0.20376000  1
  C  C171  1  0.28957000  0.65658000  0.21560000  1
  C  C172  1  0.50322000  0.82303000  0.35029000  1
  C  C173  1  0.32425000  0.68231000  0.38450000  1
  C  C174  1  0.27655000  0.66173000  0.44058000  1
  C  C175  1  0.30641000  0.57247000  0.46833000  1
  C  C176  1  0.27346000  0.55521000  0.52745000  1
  C  C177  1  0.32374000  0.48080000  0.55646000  1
  C  C178  1  0.47449000  0.63428000  0.60279000  1
  C  C179  1  0.49978000  0.96249000  0.41939000  1
  C  C180  1  0.51424000  0.76978000  0.53017000  1
  C  C181  1  0.76656000  0.74654000  0.26582000  1
  C  C182  1  0.78282000  0.85161000  0.16986000  1
  C  C183  1  0.88141000  0.84473000  0.14194000  1
  C  C184  1  0.96340000  0.94501000  0.14308000  1
  C  C185  1  0.07026000  0.93370000  0.12837000  1
  C  C186  1  0.11555000  0.87628000  0.17115000  1
  C  C187  1  0.27137000  0.99284000  0.22977000  1
  C  C188  1  0.94045000  0.72348000  0.29624000  1
  C  C189  1  0.28957000  0.15659000  0.28440000  1
  C  C190  1  0.49679000  0.67697000  0.85030000  1
  C  C191  1  0.67576000  0.81768000  0.88450000  1
  C  C192  1  0.72345000  0.83827000  0.94059000  1
  C  C193  1  0.69359000  0.92753000  0.96833000  1
  C  C194  1  0.72654000  0.94479000  0.02745000  1
  C  C195  1  0.67627000  0.01920000  0.05646000  1
  C  C196  1  0.52552000  0.86571000  0.10279000  1
  C  C197  1  0.50022000  0.53750000  0.91939000  1
  C  C198  1  0.48577000  0.73022000  0.03017000  1
  C  C199  1  0.23344000  0.75346000  0.76582000  1
  C  C200  1  0.21719000  0.64839000  0.66986000  1
  C  C201  1  0.11860000  0.65527000  0.64194000  1
  C  C202  1  0.03661000  0.55499000  0.64308000  1
  C  C203  1  0.92975000  0.56630000  0.62837000  1
  C  C204  1  0.88446000  0.62371000  0.67115000  1
  C  C205  1  0.72864000  0.50715000  0.72977000  1
  C  C206  1  0.05956000  0.77651000  0.79624000  1
  C  C207  1  0.71043000  0.34341000  0.78440000  1
  S  S208  1  0.53239000  0.28444000  0.61101000  1
  S  S209  1  0.53578000  0.47375000  0.43496000  1
  S  S210  1  0.20346000  0.12884000  0.75630000  1
  S  S211  1  0.86022000  0.05457000  0.76437000  1
  S  S212  1  0.46761000  0.21556000  0.11101000  1
  S  S213  1  0.46422000  0.02625000  0.93496000  1
  S  S214  1  0.79654000  0.37116000  0.25630000  1
  S  S215  1  0.13979000  0.44543000  0.26437000  1
  S  S216  1  0.46761000  0.71556000  0.38899000  1
  S  S217  1  0.46422000  0.52624000  0.56504000  1
  S  S218  1  0.79654000  0.87116000  0.24371000  1
  S  S219  1  0.13979000  0.94543000  0.23563000  1
  S  S220  1  0.53239000  0.78444000  0.88900000  1
  S  S221  1  0.53578000  0.97375000  0.06504000  1
  S  S222  1  0.20346000  0.62884000  0.74371000  1
  S  S223  1  0.86022000  0.55457000  0.73563000  1
  N  N224  1  0.46935000  0.17263000  0.70225000  1
  N  N225  1  0.43787000  0.07392000  0.71564000  1
  N  N226  1  0.44426000  0.01350000  0.67456000  1
  N  N227  1  0.48318000  0.07772000  0.63275000  1
  N  N228  1  0.54418000  0.36023000  0.34407000  1
  N  N229  1  0.52330000  0.26149000  0.33007000  1
  N  N230  1  0.48928000  0.20084000  0.37242000  1
  N  N231  1  0.48624000  0.26696000  0.41523000  1
  N  N232  1  0.32752000  0.31566000  0.73194000  1
  N  N233  1  0.32015000  0.40175000  0.70708000  1
  N  N234  1  0.22437000  0.39812000  0.69202000  1
  N  N235  1  0.16899000  0.30359000  0.70862000  1
  N  N236  1  0.66348000  0.05103000  0.79501000  1
  N  N237  1  0.56964000  0.98729000  0.78928000  1
  N  N238  1  0.57439000  0.90597000  0.75951000  1
  N  N239  1  0.67683000  0.91641000  0.74879000  1
  N  N240  1  0.53066000  0.32737000  0.20225000  1
  N  N241  1  0.56213000  0.42608000  0.21564000  1
  N  N242  1  0.55574000  0.48650000  0.17456000  1
  N  N243  1  0.51682000  0.42227000  0.13275000  1
  N  N244  1  0.45582000  0.13977000  0.84407000  1
  N  N245  1  0.47671000  0.23850000  0.83007000  1
  N  N246  1  0.51072000  0.29916000  0.87242000  1
  N  N247  1  0.51376000  0.23304000  0.91523000  1
  N  N248  1  0.67248000  0.18434000  0.23194000  1
  N  N249  1  0.67986000  0.09825000  0.20708000  1
  N  N250  1  0.77563000  0.10188000  0.19202000  1
  N  N251  1  0.83102000  0.19641000  0.20861000  1
  N  N252  1  0.33652000  0.44897000  0.29501000  1
  N  N253  1  0.43037000  0.51271000  0.28928000  1
  N  N254  1  0.42562000  0.59403000  0.25951000  1
  N  N255  1  0.32318000  0.58359000  0.24879000  1
  N  N256  1  0.53066000  0.82737000  0.29775000  1
  N  N257  1  0.56213000  0.92608000  0.28436000  1
  N  N258  1  0.55574000  0.98650000  0.32544000  1
  N  N259  1  0.51683000  0.92227000  0.36725000  1
  N  N260  1  0.45582000  0.63977000  0.65593000  1
  N  N261  1  0.47671000  0.73850000  0.66994000  1
  N  N262  1  0.51073000  0.79916000  0.62758000  1
  N  N263  1  0.51376000  0.73304000  0.58477000  1
  N  N264  1  0.67248000  0.68434000  0.26806000  1
  N  N265  1  0.67986000  0.59825000  0.29292000  1
  N  N266  1  0.77564000  0.60188000  0.30798000  1
  N  N267  1  0.83102000  0.69641000  0.29139000  1
  N  N268  1  0.33653000  0.94897000  0.20499000  1
  N  N269  1  0.43037000  0.01271000  0.21072000  1
  N  N270  1  0.42562000  0.09403000  0.24049000  1
  N  N271  1  0.32318000  0.08359000  0.25121000  1
  N  N272  1  0.46935000  0.67263000  0.79775000  1
  N  N273  1  0.43787000  0.57392000  0.78436000  1
  N  N274  1  0.44426000  0.51350000  0.82544000  1
  N  N275  1  0.48318000  0.57772000  0.86725000  1
  N  N276  1  0.54418000  0.86023000  0.15593000  1
  N  N277  1  0.52330000  0.76149000  0.16993000  1
  N  N278  1  0.48928000  0.70084000  0.12758000  1
  N  N279  1  0.48624000  0.76696000  0.08477000  1
  N  N280  1  0.32753000  0.81566000  0.76806000  1
  N  N281  1  0.32015000  0.90175000  0.79292000  1
  N  N282  1  0.22437000  0.89812000  0.80798000  1
  N  N283  1  0.16899000  0.80359000  0.79139000  1
  N  N284  1  0.66348000  0.55103000  0.70499000  1
  N  N285  1  0.56964000  0.48729000  0.71072000  1
  N  N286  1  0.57439000  0.40597000  0.74049000  1
  N  N287  1  0.67683000  0.41641000  0.75122000  1
