# generated using pymatgen
data_H8C14N
_symmetry_space_group_name_H-M   'P 1'
_cell_length_a   9.96320000
_cell_length_b   70.32386443
_cell_length_c   70.32140000
_cell_angle_alpha   120.00652174
_cell_angle_beta   90.00000000
_cell_angle_gamma   90.00000000
_symmetry_Int_Tables_number   1
_chemical_formula_structural   H8C14N
_chemical_formula_sum   'H96 C168 N12'
_cell_volume   42666.90805640
_cell_formula_units_Z   12
loop_
 _symmetry_equiv_pos_site_id
 _symmetry_equiv_pos_as_xyz
  1  'x, y, z'
loop_
 _atom_site_type_symbol
 _atom_site_label
 _atom_site_symmetry_multiplicity
 _atom_site_fract_x
 _atom_site_fract_y
 _atom_site_fract_z
 _atom_site_occupancy
  C  1  1  0.00128500  0.91927100  0.95839300  1
  C  2  1  0.00229700  0.04646100  0.08874600  1
  C  3  1  0.00223700  0.04957300  0.96156600  1
  C  4  1  0.91104400  0.06379000  0.10073000  1
  C  5  1  0.91300100  0.07526500  0.12385700  1
  C  6  1  0.00561100  0.06962800  0.13551200  1
  C  7  1  0.09763800  0.05247400  0.12340700  1
  C  8  1  0.09572100  0.04088200  0.10027200  1
  C  9  1  0.92666800  0.90725900  0.96592700  1
  C  10  1  0.92878900  0.88413300  0.95421600  1
  C  11  1  0.00492800  0.87251600  0.93470100  1
  C  12  1  0.08072500  0.88464300  0.92744600  1
  C  13  1  0.07840000  0.90777700  0.93904000  1
  C  14  1  0.91209500  0.04405600  0.94406200  1
  C  15  1  0.91411600  0.05570500  0.93258800  1
  C  16  1  0.00571100  0.07316300  0.93839800  1
  C  17  1  0.09656600  0.07840000  0.95574100  1
  C  18  1  0.09459800  0.06685200  0.96732600  1
  C  30  1  0.00039200  0.01723600  0.99179200  1
  C  31  1  0.00008633  0.99403000  0.97976400  1
  C  32  1  0.00000000  0.98183900  0.99077200  1
  C  33  1  0.00011233  0.99302000  0.01398200  1
  C  34  1  0.00043200  0.01622000  0.02617400  1
  C  35  1  0.00054300  0.02824700  0.01499600  1
  C  40  1  0.00144400  0.03860200  0.97205200  1
  C  41  1  0.00084200  0.02843700  0.98152100  1
  C  42  1  0.00151500  0.03597000  0.06728600  1
  C  43  1  0.00090200  0.02649500  0.04764900  1
  C  44  1  0.00008633  0.96036600  0.97956700  1
  C  45  1  0.00053300  0.94073000  0.96938600  1
  C  49  1  0.98127000  0.66109800  0.82857900  1
  C  50  1  0.98508600  0.52604700  0.82253100  1
  C  51  1  0.97717600  0.52230300  0.70298000  1
  C  52  1  0.08619800  0.50983400  0.81350500  1
  C  53  1  0.08742200  0.49238900  0.81788800  1
  C  54  1  0.98801700  0.49079500  0.83140800  1
  C  55  1  0.88643100  0.50693700  0.84018400  1
  C  56  1  0.88496600  0.52448200  0.83589800  1
  C  57  1  0.05711000  0.67290500  0.84802400  1
  C  58  1  0.05636700  0.69603200  0.85954700  1
  C  59  1  0.98038900  0.70784400  0.85185800  1
  C  60  1  0.90348600  0.69592100  0.83256700  1
  C  61  1  0.90442700  0.67278800  0.82091800  1
  C  62  1  0.97026000  0.52601800  0.68504400  1
  C  63  1  0.97616200  0.50820000  0.66337000  1
  C  64  1  0.98893800  0.48642900  0.65929200  1
  C  65  1  0.99692000  0.48288300  0.67730700  1
  C  66  1  0.99022600  0.50059600  0.69895900  1
  C  78  1  0.97324100  0.56324500  0.76381800  1
  C  79  1  0.97514800  0.58643200  0.77498700  1
  C  80  1  0.97703400  0.59855700  0.79821200  1
  C  81  1  0.97708500  0.58734900  0.81023200  1
  C  82  1  0.97512700  0.56416200  0.79914000  1
  C  83  1  0.97334100  0.55222200  0.77596600  1
  C  88  1  0.97391500  0.53850900  0.72319600  1
  C  89  1  0.97283200  0.55155600  0.74241500  1
  C  90  1  0.97961500  0.54120100  0.81702800  1
  C  91  1  0.97659400  0.55333400  0.80974500  1
  C  92  1  0.97896200  0.62001600  0.80852700  1
  C  93  1  0.98036700  0.63964700  0.81804500  1
  C  97  1  0.98299700  0.17477000  0.34706500  1
  C  98  1  0.98550800  0.30380100  0.48214300  1
  C  99  1  0.97782800  0.18795800  0.48582900  1
  C  100  1  0.08663800  0.31100600  0.49835600  1
  C  101  1  0.08775300  0.33283900  0.51580300  1
  C  102  1  0.98824700  0.34793700  0.51739800  1
  C  103  1  0.88664200  0.34055300  0.50125700  1
  C  104  1  0.88527800  0.31871700  0.48371000  1
  C  105  1  0.05701000  0.18259200  0.33524500  1
  C  106  1  0.05635900  0.17095700  0.31211700  1
  C  107  1  0.98229400  0.15124200  0.30031500  1
  C  108  1  0.90726800  0.14368100  0.31225500  1
  C  109  1  0.90809300  0.15520000  0.33538800  1
  C  110  1  0.97006000  0.16631000  0.48211000  1
  C  111  1  0.97591200  0.16244300  0.49991700  1
  C  112  1  0.98947200  0.18011900  0.52168300  1
  C  113  1  0.99829300  0.20167500  0.52523500  1
  C  114  1  0.99165800  0.20562800  0.50753200  1
  C  126  1  0.97404500  0.20787600  0.44491000  1
  C  127  1  0.97622400  0.19586400  0.42172400  1
  C  128  1  0.97823100  0.20696900  0.40960700  1
  C  129  1  0.97812900  0.23020000  0.42082600  1
  C  130  1  0.97591100  0.24228900  0.44401300  1
  C  131  1  0.97399600  0.23104900  0.45594200  1
  C  136  1  0.97458700  0.19197600  0.46963000  1
  C  137  1  0.97356100  0.19815700  0.45659200  1
  C  138  1  0.98015500  0.28314200  0.46698800  1
  C  139  1  0.97724700  0.26372200  0.45484700  1
  C  140  1  0.98039800  0.19582800  0.38815000  1
  C  141  1  0.98197500  0.18570800  0.36851600  1
  C  145  1  0.98281800  0.17963200  0.83334900  1
  C  146  1  0.98542700  0.18565900  0.70432900  1
  C  147  1  0.97775800  0.30521500  0.82017400  1
  C  148  1  0.08646800  0.19468700  0.69713300  1
  C  149  1  0.08760300  0.19029400  0.67529900  1
  C  150  1  0.98819700  0.17676400  0.66019200  1
  C  151  1  0.88667400  0.16798700  0.66756700  1
  C  152  1  0.88529700  0.17228400  0.68940500  1
  C  153  1  0.05707900  0.16001300  0.82554000  1
  C  154  1  0.05641900  0.14850900  0.83716200  1
  C  155  1  0.98210400  0.15638700  0.85685000  1
  C  156  1  0.90682900  0.17586300  0.86439600  1
  C  157  1  0.90766100  0.18749000  0.85289100  1
  C  158  1  0.97011900  0.32314900  0.84182200  1
  C  159  1  0.97598000  0.34482400  0.84568800  1
  C  160  1  0.98942100  0.34890800  0.82801000  1
  C  161  1  0.99812100  0.33089800  0.80645200  1
  C  162  1  0.99147700  0.30924200  0.80250100  1
  C  174  1  0.97394200  0.24437700  0.80025700  1
  C  175  1  0.97609300  0.23320700  0.81227300  1
  C  176  1  0.97807900  0.20998300  0.80116600  1
  C  177  1  0.97797900  0.19796500  0.77793500  1
  C  178  1  0.97579000  0.20905800  0.76584400  1
  C  179  1  0.97389400  0.23223000  0.77708400  1
  C  184  1  0.97451600  0.28499800  0.81615600  1
  C  185  1  0.97347200  0.26578000  0.80997900  1
  C  186  1  0.98004800  0.19116900  0.72499100  1
  C  187  1  0.97713100  0.19845500  0.74441100  1
  C  188  1  0.98022700  0.19966900  0.81230800  1
  C  189  1  0.98179400  0.19015300  0.82242100  1
  C  193  1  0.12663600  0.78286700  0.89317900  1
  C  194  1  0.09811200  0.80551600  0.90451500  1
  C  195  1  0.96403700  0.81323800  0.90851900  1
  C  196  1  0.85980300  0.79743000  0.90049600  1
  C  197  1  0.88831900  0.77478400  0.88906300  1
  C  198  1  0.02239300  0.76706000  0.88530800  1
  C  203  1  0.05342700  0.74478900  0.87528000  1
  C  205  1  0.93285100  0.83549800  0.92087700  1
  C  207  1  0.12547200  0.11863700  0.22513700  1
  C  208  1  0.09638400  0.10695400  0.20250800  1
  C  209  1  0.96240300  0.10181500  0.19487900  1
  C  210  1  0.85902200  0.10860100  0.21078500  1
  C  211  1  0.88814700  0.12019800  0.23341000  1
  C  212  1  0.02200000  0.12554800  0.24103300  1
  C  217  1  0.05310500  0.13809800  0.26328600  1
  C  219  1  0.92988300  0.09135900  0.17262200  1
  C  221  1  0.12561100  0.11388300  0.88949800  1
  C  222  1  0.09655500  0.10289400  0.90113700  1
  C  223  1  0.96254800  0.10029200  0.90617400  1
  C  224  1  0.85908100  0.10934700  0.89933300  1
  C  225  1  0.88815700  0.12040400  0.88776500  1
  C  226  1  0.02204200  0.12278800  0.88251800  1
  C  231  1  0.05315700  0.13253900  0.87001400  1
  C  233  1  0.93013200  0.08843700  0.91657200  1
  C  235  1  0.88959300  0.43334900  0.58584200  1
  C  236  1  0.91565200  0.41259400  0.56742900  1
  C  237  1  0.04229700  0.40231600  0.56454000  1
  C  238  1  0.14204200  0.41364100  0.58068000  1
  C  239  1  0.11590500  0.43430400  0.59913600  1
  C  240  1  0.98893900  0.44439900  0.60206600  1
  C  245  1  0.96189900  0.46466000  0.62029600  1
  C  247  1  0.07120300  0.38166500  0.54676200  1
  C  249  1  0.88964500  0.15979600  0.57478000  1
  C  250  1  0.91565000  0.16215000  0.59554000  1
  C  251  1  0.04233600  0.16951200  0.60581000  1
  C  252  1  0.14217100  0.17429500  0.59447500  1
  C  253  1  0.11610600  0.17207400  0.57380700  1
  C  254  1  0.98909200  0.16493800  0.56371900  1
  C  259  1  0.96211900  0.16289900  0.54345400  1
  C  261  1  0.07118400  0.17240000  0.62646900  1
  C  263  1  0.88963500  0.42233300  0.84834600  1
  C  264  1  0.91562000  0.44074500  0.84600300  1
  C  265  1  0.04225500  0.44364600  0.83862100  1
  C  266  1  0.14206300  0.42751800  0.83381200  1
  C  267  1  0.11602800  0.40907100  0.83603300  1
  C  268  1  0.98907000  0.40612700  0.84319000  1
  C  273  1  0.96213200  0.38790200  0.84523200  1
  C  275  1  0.07108200  0.46142100  0.83574000  1
  H  19  1  0.16693300  0.04823800  0.13139500  1
  H  20  1  0.16384400  0.02849600  0.09201600  1
  H  21  1  0.84759000  0.08801900  0.13210000  1
  H  22  1  0.13440500  0.91605600  0.93327500  1
  H  23  1  0.87102700  0.91514700  0.98005500  1
  H  24  1  0.87607400  0.87585500  0.96028600  1
  H  25  1  0.13818800  0.87667400  0.91355900  1
  H  26  1  0.84499000  0.03142700  0.93934100  1
  H  27  1  0.16507700  0.09075600  0.96011400  1
  H  28  1  0.16187700  0.07111900  0.97985100  1
  H  29  1  0.84957500  0.05106700  0.91970400  1
  H  36  1  0.00021100  0.98421500  0.02204900  1
  H  37  1  0.00010533  0.98596000  0.96288900  1
  H  38  1  0.00086300  0.04512100  0.02380200  1
  H  39  1  0.84311200  0.06837300  0.09281900  1
  H  67  1  0.81163600  0.50589400  0.84960500  1
  H  68  1  0.80865500  0.53573700  0.84222400  1
  H  69  1  0.15929500  0.48050800  0.81057000  1
  H  70  1  0.84751800  0.66465600  0.80695600  1
  H  71  1  0.11252400  0.66486500  0.85412300  1
  H  72  1  0.10982300  0.70416900  0.87383500  1
  H  73  1  0.84606200  0.70403900  0.82681100  1
  H  74  1  0.96223900  0.54162700  0.68752800  1
  H  75  1  0.00781900  0.46730800  0.67479300  1
  H  76  1  0.99639800  0.49741500  0.71166300  1
  H  77  1  0.97373500  0.51128000  0.65062200  1
  H  84  1  0.97880200  0.59606200  0.82709800  1
  H  85  1  0.97544000  0.59447500  0.76616600  1
  H  86  1  0.97251100  0.53532300  0.76785300  1
  H  87  1  0.15808200  0.51021800  0.80326500  1
  H  115  1  0.81176800  0.35100500  0.50230000  1
  H  116  1  0.80895800  0.31377400  0.47245400  1
  H  117  1  0.15964700  0.33741500  0.52768300  1
  H  118  1  0.85254500  0.14922800  0.34352800  1
  H  119  1  0.11100800  0.19688600  0.34327700  1
  H  120  1  0.10846800  0.17724100  0.30397900  1
  H  121  1  0.85125400  0.12964100  0.30414900  1
  H  122  1  0.96144800  0.15319600  0.46650200  1
  H  123  1  0.00975500  0.21472200  0.54080500  1
  H  124  1  0.99843400  0.22150800  0.51071500  1
  H  125  1  0.97286000  0.14661600  0.49683300  1
  H  132  1  0.97993600  0.23835700  0.41211800  1
  H  133  1  0.97663300  0.17899700  0.41367500  1
  H  134  1  0.97299000  0.23983300  0.47284400  1
  H  135  1  0.15860300  0.30039500  0.49797300  1
  H  163  1  0.81187700  0.15856100  0.65711000  1
  H  164  1  0.80903800  0.16595700  0.69434400  1
  H  165  1  0.15942600  0.19761000  0.67072700  1
  H  166  1  0.85193300  0.20158300  0.85885100  1
  H  167  1  0.11125000  0.15377600  0.81126600  1
  H  168  1  0.10870100  0.13410400  0.83088800  1
  H  169  1  0.85063900  0.18177000  0.87841400  1
  H  170  1  0.96158900  0.32065900  0.85493900  1
  H  171  1  0.00949600  0.33341600  0.79340100  1
  H  172  1  0.99816400  0.29654200  0.78661900  1
  H  173  1  0.97301200  0.35757000  0.86151600  1
  H  180  1  0.97977500  0.18110000  0.76977900  1
  H  181  1  0.97649500  0.24202700  0.82913800  1
  H  182  1  0.97290000  0.24034500  0.76830000  1
  H  183  1  0.15836200  0.20493400  0.70775100  1
  H  199  1  0.76134200  0.80226100  0.90318700  1
  H  200  1  0.17678000  0.81631900  0.91033600  1
  H  201  1  0.22508800  0.77803200  0.89102400  1
  H  202  1  0.80963000  0.76398200  0.88402000  1
  H  204  1  0.14336900  0.74046800  0.87799400  1
  H  206  1  0.84274100  0.83975200  0.92786300  1
  H  213  1  0.76054900  0.10541300  0.20604700  1
  H  214  1  0.17438300  0.10269200  0.19165200  1
  H  215  1  0.22368200  0.12229700  0.22988700  1
  H  216  1  0.80978000  0.12515500  0.24426700  1
  H  218  1  0.14130000  0.14573900  0.26752900  1
  H  220  1  0.83586400  0.09233200  0.16842600  1
  H  227  1  0.76059100  0.10771600  0.90244900  1
  H  228  1  0.17461400  0.09634300  0.90543600  1
  H  229  1  0.22384500  0.11504700  0.88590400  1
  H  230  1  0.80975200  0.12626900  0.88277900  1
  H  232  1  0.14155900  0.12921700  0.86243900  1
  H  234  1  0.83634800  0.08312600  0.91545900  1
  H  241  1  0.23501600  0.40685000  0.57929900  1
  H  242  1  0.84071500  0.40506500  0.55614000  1
  H  243  1  0.79652100  0.44017800  0.58743500  1
  H  244  1  0.19080200  0.44191000  0.61043000  1
  H  246  1  0.90689600  0.47548300  0.61854500  1
  H  248  1  0.16656300  0.37683100  0.54392800  1
  H  255  1  0.23519600  0.17968000  0.60125900  1
  H  256  1  0.84063300  0.15841800  0.60307700  1
  H  257  1  0.79653200  0.15458600  0.56795900  1
  H  258  1  0.19107400  0.17573500  0.56619300  1
  H  260  1  0.90664700  0.15037600  0.53266200  1
  H  262  1  0.16654200  0.17440200  0.63130800  1
  H  269  1  0.23505600  0.42891300  0.82841600  1
  H  270  1  0.84063300  0.45202500  0.84975800  1
  H  271  1  0.79659000  0.42073500  0.85358500  1
  H  272  1  0.19099300  0.39779000  0.83235700  1
  H  274  1  0.90674600  0.38963800  0.85776300  1
  H  276  1  0.16642200  0.46425700  0.83373200  1
  N  46  1  0.01589900  0.08034800  0.15733600  1
  N  47  1  0.01594000  0.08429100  0.92770400  1
  N  48  1  0.01517600  0.85069900  0.92340700  1
  N  94  1  0.97956600  0.47390800  0.83492900  1
  N  95  1  0.00140400  0.46894300  0.63942700  1
  N  96  1  0.97094300  0.72966800  0.86252600  1
  N  142  1  0.97972400  0.36834800  0.53428200  1
  N  143  1  0.00192700  0.17772300  0.53915800  1
  N  144  1  0.97293900  0.13998700  0.27849000  1
  N  190  1  0.97968600  0.17323200  0.63978000  1
  N  191  1  0.00187600  0.36877700  0.83040200  1
  N  192  1  0.97273900  0.14579800  0.86808300  1
