# generated using pymatgen
data_H12C16N3O2
_symmetry_space_group_name_H-M   'P 1'
_cell_length_a   31.10230000
_cell_length_b   36.63060000
_cell_length_c   36.63060000
_cell_angle_alpha   89.99940000
_cell_angle_beta   89.99870000
_cell_angle_gamma   89.99940000
_symmetry_Int_Tables_number   1
_chemical_formula_structural   H12C16N3O2
_chemical_formula_sum   'H192 C256 N48 O32'
_cell_volume   41733.09275945
_cell_formula_units_Z   16
loop_
 _symmetry_equiv_pos_site_id
 _symmetry_equiv_pos_as_xyz
  1  'x, y, z'
loop_
 _atom_site_type_symbol
 _atom_site_label
 _atom_site_symmetry_multiplicity
 _atom_site_fract_x
 _atom_site_fract_y
 _atom_site_fract_z
 _atom_site_occupancy
  H  9  1  0.00055500  0.01939200  0.10618300  1
  H  17  1  0.00053500  0.01942200  0.85724000  1
  H  19  1  0.03952600  0.93420500  0.94996000  1
  H  20  1  0.03953600  0.93419800  0.01343900  1
  H  21  1  0.96154700  0.10461000  0.94998500  1
  H  22  1  0.96155200  0.10460200  0.01346200  1
  H  24  1  0.97356700  0.07647800  0.11162600  1
  H  25  1  0.98566600  0.10620200  0.07568900  1
  H  27  1  0.01544800  0.93258200  0.07566900  1
  H  28  1  0.02754000  0.96230100  0.11160800  1
  H  30  1  0.02753000  0.96233600  0.85179800  1
  H  31  1  0.01543100  0.93260700  0.88773100  1
  H  33  1  0.97356900  0.07651600  0.85181400  1
  H  34  1  0.98566900  0.10622900  0.88776000  1
  H  43  1  0.50056700  0.01940400  0.35724800  1
  H  51  1  0.50062800  0.01944500  0.60619300  1
  H  53  1  0.53956700  0.10464100  0.51343800  1
  H  54  1  0.53954500  0.10463300  0.44995900  1
  H  55  1  0.46164400  0.93421900  0.51348300  1
  H  56  1  0.46162400  0.93421000  0.45000300  1
  H  58  1  0.47361700  0.96230400  0.35182800  1
  H  59  1  0.48571900  0.93259300  0.38777300  1
  H  61  1  0.51543700  0.10622500  0.38773500  1
  H  62  1  0.52753600  0.07649800  0.35180100  1
  H  64  1  0.52757400  0.07654800  0.61161400  1
  H  65  1  0.51546900  0.10625800  0.57566800  1
  H  67  1  0.47365900  0.96235100  0.61164100  1
  H  68  1  0.48574500  0.93262300  0.57570400  1
  H  77  1  0.75056200  0.40744900  0.73170300  1
  H  85  1  0.75058300  0.15840600  0.73171600  1
  H  87  1  0.80730300  0.25121900  0.80939900  1
  H  88  1  0.80939900  0.31458600  0.80823700  1
  H  89  1  0.69386000  0.25120600  0.65401600  1
  H  90  1  0.69175400  0.31457400  0.65517000  1
  H  92  1  0.70895600  0.41256000  0.68051400  1
  H  93  1  0.71049100  0.37567800  0.65018700  1
  H  95  1  0.79063100  0.37568300  0.81322100  1
  H  96  1  0.79216200  0.41257000  0.78289700  1
  H  98  1  0.78416100  0.15311800  0.78625000  1
  H  99  1  0.77795500  0.18992000  0.81614000  1
  H  101  1  0.71699700  0.15311000  0.67718600  1
  H  102  1  0.72320400  0.18990400  0.64728700  1
  H  111  1  0.25045900  0.63148200  0.73153400  1
  H  119  1  0.25058800  0.88052600  0.73174200  1
  H  121  1  0.30725600  0.78776200  0.65396900  1
  H  122  1  0.30932300  0.72439300  0.65507200  1
  H  123  1  0.19384000  0.78767500  0.80937000  1
  H  124  1  0.19170800  0.72430900  0.80815900  1
  H  126  1  0.20884500  0.62633900  0.78270900  1
  H  127  1  0.21043700  0.66318200  0.81308100  1
  H  129  1  0.29060100  0.66329100  0.65005300  1
  H  130  1  0.29209000  0.62639000  0.68036100  1
  H  132  1  0.28420000  0.88584900  0.67722400  1
  H  133  1  0.27796900  0.84908200  0.64729400  1
  H  135  1  0.21698600  0.88578400  0.78626900  1
  H  136  1  0.22318500  0.84896700  0.81614200  1
  H  145  1  0.25059800  0.63144100  0.23163800  1
  H  153  1  0.25061100  0.88048600  0.23170900  1
  H  155  1  0.19391700  0.78770600  0.15397600  1
  H  156  1  0.19181700  0.72433600  0.15510900  1
  H  157  1  0.30732700  0.78765300  0.30937400  1
  H  158  1  0.30942300  0.72428300  0.30820100  1
  H  160  1  0.29219000  0.62630800  0.28283200  1
  H  161  1  0.29065300  0.66318200  0.31317000  1
  H  163  1  0.21055600  0.66322300  0.15011700  1
  H  164  1  0.20899300  0.62634200  0.18044400  1
  H  166  1  0.21701200  0.88579600  0.17718700  1
  H  167  1  0.22323300  0.84901500  0.14727200  1
  H  169  1  0.28419700  0.88575800  0.28624200  1
  H  170  1  0.27798500  0.84895100  0.31612500  1
  H  179  1  0.75049200  0.40738900  0.23169600  1
  H  187  1  0.75055600  0.15834600  0.23169100  1
  H  189  1  0.69383400  0.25114000  0.30939900  1
  H  190  1  0.69171300  0.31450800  0.30824100  1
  H  191  1  0.80723000  0.25116700  0.15398600  1
  H  192  1  0.80930800  0.31453400  0.15514300  1
  H  194  1  0.79210600  0.41251500  0.18052000  1
  H  195  1  0.79058700  0.37564500  0.15017900  1
  H  197  1  0.71043400  0.37561800  0.31322200  1
  H  198  1  0.70890400  0.41249700  0.28289500  1
  H  200  1  0.71696600  0.15304700  0.28622200  1
  H  201  1  0.72317200  0.18984200  0.31612000  1
  H  203  1  0.78413700  0.15306300  0.17715700  1
  H  204  1  0.77792000  0.18986000  0.14726000  1
  H  213  1  0.50054400  0.51940900  0.60622300  1
  H  221  1  0.50055700  0.51945900  0.35717400  1
  H  223  1  0.49495600  0.42820700  0.45000800  1
  H  224  1  0.49496600  0.42819300  0.51335700  1
  H  225  1  0.50616100  0.61067400  0.45004100  1
  H  226  1  0.50616800  0.61066100  0.51339300  1
  H  228  1  0.49763800  0.58169900  0.61118900  1
  H  229  1  0.52267100  0.60526600  0.57596900  1
  H  231  1  0.47842400  0.43356600  0.57592200  1
  H  232  1  0.50342200  0.45711400  0.61116800  1
  H  234  1  0.50342500  0.45716600  0.35220900  1
  H  235  1  0.47842000  0.43360200  0.38744300  1
  H  237  1  0.49770200  0.58175300  0.35223000  1
  H  238  1  0.52269700  0.60530200  0.38747800  1
  H  247  1  0.00061300  0.51922500  0.85717900  1
  H  255  1  0.00049200  0.51963200  0.10622700  1
  H  257  1  0.99503900  0.61071900  0.01322700  1
  H  258  1  0.99503400  0.61061600  0.94987800  1
  H  259  1  0.00609100  0.42824700  0.01352700  1
  H  260  1  0.00609800  0.42814000  0.95018000  1
  H  262  1  0.99776700  0.45692400  0.85232100  1
  H  263  1  0.02272400  0.43343400  0.88762600  1
  H  265  1  0.97855500  0.60516400  0.88730700  1
  H  266  1  0.00354200  0.58150100  0.85212600  1
  H  268  1  0.00341000  0.58193000  0.11108600  1
  H  269  1  0.97846200  0.60545100  0.07579300  1
  H  271  1  0.99752500  0.45735300  0.11127800  1
  H  272  1  0.02256300  0.43371500  0.07610500  1
  H  278  1  0.89859600  0.07517900  0.14544900  1
  H  280  1  0.86386800  0.19771100  0.10473100  1
  H  281  1  0.89816000  0.15556000  0.06343200  1
  H  286  1  0.90457600  0.06324400  0.07634600  1
  H  288  1  0.85278800  0.18699000  0.19757800  1
  H  294  1  0.39863800  0.96364700  0.31801900  1
  H  296  1  0.36393700  0.84108500  0.35865300  1
  H  297  1  0.39822000  0.88321100  0.39998100  1
  H  302  1  0.40462200  0.97553800  0.38712700  1
  H  304  1  0.35286000  0.85186000  0.26581800  1
  H  310  1  0.64084300  0.44796000  0.66794600  1
  H  312  1  0.55857500  0.36342500  0.59361100  1
  H  313  1  0.60554000  0.34047600  0.64056300  1
  H  318  1  0.64667800  0.38774200  0.70992800  1
  H  320  1  0.56549800  0.44350500  0.55497900  1
  H  326  1  0.14070200  0.59093500  0.79509700  1
  H  328  1  0.05871100  0.67524700  0.86990800  1
  H  329  1  0.10558200  0.69834200  0.82295400  1
  H  334  1  0.14656700  0.65128000  0.75334900  1
  H  336  1  0.06569100  0.59498100  0.90819800  1
  H  342  1  0.60251800  0.07516300  0.31798600  1
  H  344  1  0.63722600  0.19771800  0.35863800  1
  H  345  1  0.60293900  0.15559000  0.39996000  1
  H  350  1  0.59652800  0.06326300  0.38709200  1
  H  352  1  0.64830800  0.18695100  0.26579800  1
  H  358  1  0.10252800  0.96365700  0.14541200  1
  H  360  1  0.13727800  0.84110900  0.10476100  1
  H  361  1  0.10296500  0.88322800  0.06344300  1
  H  366  1  0.09652500  0.97555200  0.07630600  1
  H  368  1  0.14836700  0.85187900  0.19759800  1
  H  374  1  0.86027100  0.44795800  0.79558200  1
  H  376  1  0.94256100  0.36331200  0.86977400  1
  H  377  1  0.89559100  0.34043300  0.82279200  1
  H  382  1  0.85445800  0.38779800  0.75350000  1
  H  384  1  0.93566600  0.44332400  0.90853600  1
  H  390  1  0.36021700  0.59096000  0.66793100  1
  H  392  1  0.44253200  0.67541300  0.59353700  1
  H  393  1  0.39554900  0.69841400  0.64045200  1
  H  398  1  0.35434600  0.65120200  0.70984600  1
  H  400  1  0.43559400  0.59528900  0.55499100  1
  H  406  1  0.10252200  0.96367300  0.81799500  1
  H  408  1  0.13722600  0.84111900  0.85865700  1
  H  409  1  0.10292700  0.88325000  0.89997200  1
  H  414  1  0.09650900  0.97557600  0.88709700  1
  H  416  1  0.14832500  0.85188400  0.76581900  1
  H  422  1  0.60255000  0.07521700  0.64542300  1
  H  424  1  0.63725500  0.19777300  0.60476600  1
  H  425  1  0.60296800  0.15563900  0.56344700  1
  H  430  1  0.59656600  0.06331500  0.57631700  1
  H  432  1  0.64833700  0.18701100  0.69760400  1
  H  438  1  0.36029700  0.59090000  0.29544100  1
  H  440  1  0.44255500  0.67543800  0.36977800  1
  H  441  1  0.39560600  0.69838600  0.32281300  1
  H  446  1  0.35448700  0.65111200  0.25344600  1
  H  448  1  0.43562300  0.59536000  0.40841900  1
  H  454  1  0.86023700  0.44795000  0.16814300  1
  H  456  1  0.94243100  0.36359300  0.09354100  1
  H  457  1  0.89549800  0.34053100  0.14046200  1
  H  462  1  0.85436800  0.38764800  0.20995900  1
  H  464  1  0.93545400  0.44379900  0.05514000  1
  H  470  1  0.39869300  0.96368700  0.64546400  1
  H  472  1  0.36390800  0.84115600  0.60478700  1
  H  473  1  0.39821400  0.88328200  0.56347000  1
  H  478  1  0.40466700  0.97559800  0.57635700  1
  H  480  1  0.35282800  0.85190500  0.69762700  1
  H  486  1  0.89859400  0.07520900  0.81799200  1
  H  488  1  0.86390300  0.19775700  0.85867200  1
  H  489  1  0.89817700  0.15561200  0.89998600  1
  H  494  1  0.90456900  0.06328800  0.88709600  1
  H  496  1  0.85282800  0.18701800  0.76583000  1
  H  502  1  0.14084700  0.59096500  0.16787400  1
  H  504  1  0.05867600  0.67553100  0.09349700  1
  H  505  1  0.10564000  0.69846200  0.14045400  1
  H  510  1  0.14671500  0.65118200  0.20984400  1
  H  512  1  0.06552800  0.59543200  0.05489100  1
  H  518  1  0.64079100  0.44791100  0.29538500  1
  H  520  1  0.55855000  0.36345200  0.36982800  1
  H  521  1  0.60549500  0.34045400  0.32288600  1
  H  526  1  0.64663300  0.38766000  0.25346700  1
  H  528  1  0.56551100  0.44357100  0.40837400  1
  C  1  1  0.00054200  0.01940300  0.00129500  1
  C  2  1  0.01541200  0.98815300  0.02093200  1
  C  3  1  0.01598100  0.98824700  0.05981300  1
  C  4  1  0.00055000  0.01939200  0.07823900  1
  C  5  1  0.98511400  0.05054100  0.05982000  1
  C  6  1  0.98567700  0.05064400  0.02094300  1
  C  7  1  0.02927000  0.95745200  0.00078000  1
  C  8  1  0.97181500  0.08135100  0.00079800  1
  C  10  1  0.00053800  0.01940800  0.96212700  1
  C  11  1  0.01540600  0.98816300  0.94248100  1
  C  12  1  0.01596500  0.98826700  0.90360300  1
  C  13  1  0.00053400  0.01941600  0.88518500  1
  C  14  1  0.98510300  0.05056200  0.90361100  1
  C  15  1  0.98567000  0.05065500  0.94249000  1
  C  16  1  0.02927000  0.95745900  0.96262600  1
  C  18  1  0.97181100  0.08135700  0.96264400  1
  C  23  1  0.96796900  0.08135400  0.08251400  1
  C  26  1  0.03313800  0.95743200  0.08249600  1
  C  29  1  0.03312100  0.95745900  0.88091000  1
  C  32  1  0.96796700  0.08138400  0.88092600  1
  C  35  1  0.50058600  0.01942300  0.46213600  1
  C  36  1  0.51543700  0.05067000  0.44248500  1
  C  37  1  0.51599000  0.05056700  0.40360800  1
  C  38  1  0.50057000  0.01941000  0.38519500  1
  C  39  1  0.48515900  0.98825900  0.40362300  1
  C  40  1  0.48572900  0.98816900  0.44250300  1
  C  41  1  0.52929100  0.08138000  0.46262900  1
  C  42  1  0.47187700  0.95746800  0.46265900  1
  C  44  1  0.50059900  0.01942900  0.50130500  1
  C  45  1  0.51546000  0.05068100  0.52093900  1
  C  46  1  0.51603200  0.05059100  0.55981900  1
  C  47  1  0.50062100  0.01944000  0.57824600  1
  C  48  1  0.48520400  0.98828400  0.55983400  1
  C  49  1  0.48575100  0.98818100  0.52095400  1
  C  50  1  0.52930100  0.08138500  0.50078300  1
  C  52  1  0.47189400  0.95747300  0.50081300  1
  C  57  1  0.46801900  0.95743800  0.38094000  1
  C  60  1  0.53313400  0.08137400  0.38091300  1
  C  63  1  0.53317200  0.08141200  0.58249800  1
  C  66  1  0.46805500  0.95747600  0.58252900  1
  C  69  1  0.75057800  0.30245800  0.73170400  1
  C  70  1  0.77284400  0.32211000  0.75956600  1
  C  71  1  0.77372900  0.36099300  0.75909500  1
  C  72  1  0.75056700  0.37950000  0.73170200  1
  C  73  1  0.72741300  0.36098800  0.70430800  1
  C  74  1  0.72830700  0.32210500  0.70384200  1
  C  75  1  0.79348900  0.30195800  0.78739200  1
  C  76  1  0.70766800  0.30194700  0.67601600  1
  C  78  1  0.75058100  0.26328800  0.73170600  1
  C  79  1  0.77151500  0.24365400  0.76034000  1
  C  80  1  0.77117300  0.20478000  0.76063000  1
  C  81  1  0.75058300  0.18635300  0.73171300  1
  C  82  1  0.72999300  0.20477400  0.70279200  1
  C  83  1  0.72965000  0.24365200  0.70307500  1
  C  84  1  0.79223800  0.26382800  0.78809300  1
  C  86  1  0.70892800  0.26382100  0.67531700  1
  C  91  1  0.70175500  0.38340900  0.67804100  1
  C  94  1  0.79937100  0.38341900  0.78537000  1
  C  97  1  0.79177000  0.18207400  0.78985400  1
  C  100  1  0.70939100  0.18206700  0.67357600  1
  C  103  1  0.25052100  0.73647400  0.73162600  1
  C  104  1  0.27277300  0.71683900  0.70374300  1
  C  105  1  0.27363100  0.67795400  0.70417200  1
  C  106  1  0.25047200  0.65943400  0.73155600  1
  C  107  1  0.22733300  0.67792700  0.75897000  1
  C  108  1  0.22824600  0.71680900  0.75947500  1
  C  109  1  0.29342400  0.73700800  0.67593200  1
  C  110  1  0.20763300  0.73694800  0.78732800  1
  C  112  1  0.25054300  0.77564300  0.73166000  1
  C  113  1  0.27148400  0.79529300  0.70304300  1
  C  114  1  0.27115900  0.83417000  0.70278600  1
  C  115  1  0.25057500  0.85257800  0.73172000  1
  C  116  1  0.22997900  0.83413700  0.76062500  1
  C  117  1  0.22962200  0.79526200  0.76031100  1
  C  118  1  0.29219900  0.77513700  0.67527100  1
  C  120  1  0.20890000  0.77507400  0.78805400  1
  C  125  1  0.20167200  0.65549200  0.78522400  1
  C  128  1  0.29930500  0.65554000  0.67790900  1
  C  131  1  0.29178100  0.85689000  0.67359100  1
  C  134  1  0.20937600  0.85682500  0.78985800  1
  C  137  1  0.25062000  0.73643300  0.23165900  1
  C  138  1  0.22836100  0.71679000  0.20378400  1
  C  139  1  0.22746800  0.67790800  0.20424300  1
  C  140  1  0.25060400  0.65939300  0.23164300  1
  C  141  1  0.27375700  0.67789100  0.25904600  1
  C  142  1  0.27287600  0.71677400  0.25952300  1
  C  143  1  0.20774200  0.73695700  0.17595500  1
  C  144  1  0.29350500  0.73691900  0.28736000  1
  C  146  1  0.25062300  0.77560300  0.23166900  1
  C  147  1  0.22969200  0.79524700  0.20304300  1
  C  148  1  0.23002700  0.83412400  0.20277300  1
  C  149  1  0.25061400  0.85253800  0.23169900  1
  C  150  1  0.27120700  0.83410400  0.26061100  1
  C  151  1  0.27154800  0.79522800  0.26031200  1
  C  152  1  0.20897700  0.77508500  0.17527700  1
  C  154  1  0.29227000  0.77504600  0.28806100  1
  C  159  1  0.29939800  0.65545600  0.28531600  1
  C  162  1  0.20180700  0.65549500  0.17797100  1
  C  165  1  0.20941700  0.85683900  0.17356500  1
  C  168  1  0.29180400  0.85680000  0.28984000  1
  C  171  1  0.75052000  0.30239800  0.23169500  1
  C  172  1  0.72825900  0.32204500  0.25956500  1
  C  173  1  0.72736400  0.36092800  0.25910100  1
  C  174  1  0.75049700  0.37944000  0.23169700  1
  C  175  1  0.77364100  0.36093600  0.20429000  1
  C  176  1  0.77277100  0.32205300  0.20382700  1
  C  177  1  0.70764000  0.30188500  0.28740000  1
  C  178  1  0.79341200  0.30190300  0.17599500  1
  C  180  1  0.75053200  0.26322800  0.23169500  1
  C  181  1  0.72961000  0.24358900  0.26033000  1
  C  182  1  0.72996200  0.20471400  0.26061500  1
  C  183  1  0.75055000  0.18629500  0.23169300  1
  C  184  1  0.77112800  0.20472200  0.20276900  1
  C  185  1  0.77146300  0.24360000  0.20305800  1
  C  186  1  0.70888100  0.26375800  0.28808600  1
  C  188  1  0.79217700  0.26377600  0.17530200  1
  C  193  1  0.79931000  0.38336800  0.17803800  1
  C  196  1  0.70170200  0.38334700  0.28536900  1
  C  199  1  0.70936100  0.18200700  0.28983100  1
  C  202  1  0.79173500  0.18202200  0.17355000  1
  C  205  1  0.50056400  0.51942800  0.50127800  1
  C  206  1  0.49944100  0.48579300  0.52091800  1
  C  207  1  0.50112900  0.48566700  0.55978200  1
  C  208  1  0.50055400  0.51941200  0.57829600  1
  C  209  1  0.49999400  0.55316500  0.55979200  1
  C  210  1  0.50168900  0.55305600  0.52093100  1
  C  211  1  0.49692100  0.45299200  0.50074900  1
  C  212  1  0.50421000  0.58586500  0.50077200  1
  C  214  1  0.50056000  0.51943700  0.46212200  1
  C  215  1  0.49943200  0.48580900  0.44247000  1
  C  216  1  0.50111700  0.48570000  0.40360600  1
  C  217  1  0.50055400  0.51945300  0.38510500  1
  C  218  1  0.49999400  0.55319800  0.40361900  1
  C  219  1  0.50168200  0.55307200  0.44248300  1
  C  220  1  0.49691100  0.45300100  0.46262800  1
  C  222  1  0.50420600  0.58587300  0.46265100  1
  C  227  1  0.49542900  0.58745400  0.58191800  1
  C  230  1  0.50566000  0.45137100  0.58189700  1
  C  233  1  0.50565600  0.45141200  0.38148000  1
  C  236  1  0.49546100  0.58749700  0.38150300  1
  C  239  1  0.00054800  0.51939700  0.96212500  1
  C  240  1  0.99944700  0.55299700  0.94242500  1
  C  241  1  0.00112700  0.55305000  0.90356400  1
  C  242  1  0.00057700  0.51927200  0.88510800  1
  C  243  1  0.99998600  0.48555300  0.90367200  1
  C  244  1  0.00165400  0.48573200  0.94253400  1
  C  245  1  0.99696500  0.58583800  0.96253400  1
  C  246  1  0.00415900  0.45296100  0.96275200  1
  C  248  1  0.00055100  0.51946200  0.00128200  1
  C  249  1  0.99945400  0.55312800  0.02087200  1
  C  250  1  0.00111700  0.55330900  0.05973500  1
  C  251  1  0.00051900  0.51958800  0.07829700  1
  C  252  1  0.99994700  0.48581000  0.05984200  1
  C  253  1  0.00164800  0.48586300  0.02098200  1
  C  254  1  0.99696800  0.58590100  0.00065300  1
  C  256  1  0.00415300  0.45302400  0.00087300  1
  C  261  1  0.99548700  0.45122400  0.88159800  1
  C  264  1  0.00576000  0.58730000  0.88138800  1
  C  267  1  0.00567700  0.58763300  0.08180700  1
  C  270  1  0.99533500  0.45155700  0.08201300  1
  C  273  1  0.90160400  0.11182300  0.10101900  1
  C  274  1  0.89140400  0.10109500  0.13702700  1
  C  275  1  0.87076600  0.12535600  0.16143600  1
  C  276  1  0.86066300  0.16120900  0.14948700  1
  C  277  1  0.87135200  0.17201600  0.11365000  1
  C  279  1  0.89113800  0.14738700  0.08945700  1
  C  289  1  0.40165400  0.92697300  0.36242500  1
  C  290  1  0.39144900  0.93772500  0.32642200  1
  C  291  1  0.37081700  0.91347700  0.30199800  1
  C  292  1  0.36072200  0.87761400  0.31392500  1
  C  293  1  0.37141200  0.86678500  0.34975300  1
  C  295  1  0.39119500  0.89140100  0.37396200  1
  C  305  1  0.62739400  0.39228500  0.65813000  1
  C  306  1  0.62329100  0.43024800  0.65234700  1
  C  307  1  0.59598700  0.44412200  0.62473400  1
  C  308  1  0.57179300  0.41932000  0.60322800  1
  C  309  1  0.57542300  0.38146700  0.60942000  1
  C  311  1  0.60293200  0.36804900  0.63672500  1
  C  321  1  0.12733300  0.64658200  0.80514800  1
  C  322  1  0.12320500  0.60860000  0.81079200  1
  C  323  1  0.09596300  0.59464200  0.83840400  1
  C  324  1  0.07184900  0.61938100  0.86005100  1
  C  325  1  0.07549800  0.65725400  0.85399500  1
  C  327  1  0.10294900  0.67075600  0.82668800  1
  C  337  1  0.59950200  0.11183200  0.36239700  1
  C  338  1  0.60970700  0.10108400  0.32639400  1
  C  339  1  0.63034200  0.12533400  0.30197400  1
  C  340  1  0.64043800  0.16119400  0.31390300  1
  C  341  1  0.62974700  0.17202100  0.34973400  1
  C  343  1  0.60996400  0.14740300  0.37394100  1
  C  353  1  0.09951900  0.92698600  0.10100400  1
  C  354  1  0.10972400  0.93773800  0.13700400  1
  C  355  1  0.13037500  0.91349400  0.16142300  1
  C  356  1  0.14048700  0.87763600  0.14949300  1
  C  357  1  0.12979000  0.86680600  0.11366300  1
  C  359  1  0.10999100  0.89141800  0.08946200  1
  C  369  1  0.87372900  0.39226900  0.80530900  1
  C  370  1  0.87782500  0.43022100  0.81115300  1
  C  371  1  0.90513200  0.44405400  0.83878300  1
  C  372  1  0.92933400  0.41921900  0.86024700  1
  C  373  1  0.92570500  0.38137600  0.85399800  1
  C  375  1  0.89819300  0.36800000  0.82667500  1
  C  385  1  0.37368200  0.64662400  0.65806400  1
  C  386  1  0.37777800  0.60865500  0.65232300  1
  C  387  1  0.40509500  0.59475200  0.62473100  1
  C  388  1  0.42930200  0.61952800  0.60320700  1
  C  389  1  0.42567500  0.65738700  0.60936000  1
  C  391  1  0.39815600  0.67083500  0.63664400  1
  C  401  1  0.09949900  0.92700600  0.86240600  1
  C  402  1  0.10971100  0.93775300  0.82640400  1
  C  403  1  0.13035200  0.91350300  0.80198800  1
  C  404  1  0.14044800  0.87764200  0.81392300  1
  C  405  1  0.12974800  0.86681700  0.84975200  1
  C  407  1  0.10995800  0.89143700  0.87395300  1
  C  417  1  0.59953400  0.11188300  0.60101100  1
  C  418  1  0.60973900  0.10113800  0.63701400  1
  C  419  1  0.63037400  0.12538800  0.66143300  1
  C  420  1  0.64047000  0.16124900  0.64950200  1
  C  421  1  0.62977600  0.17207300  0.61367200  1
  C  423  1  0.60999300  0.14745500  0.58946900  1
  C  433  1  0.37375000  0.64657500  0.30525200  1
  C  434  1  0.37784600  0.60861500  0.31104200  1
  C  435  1  0.40514000  0.59474100  0.33866100  1
  C  436  1  0.42933400  0.61954500  0.36016700  1
  C  437  1  0.42570700  0.65739600  0.35397000  1
  C  439  1  0.39820800  0.67081100  0.32665700  1
  C  449  1  0.87367200  0.39229900  0.15817600  1
  C  450  1  0.87777700  0.43027600  0.15249200  1
  C  451  1  0.90506000  0.44421500  0.12489700  1
  C  452  1  0.92923100  0.41946500  0.10331400  1
  C  453  1  0.92560200  0.38159700  0.10941000  1
  C  455  1  0.89811300  0.36811200  0.13669700  1
  C  465  1  0.40168000  0.92702700  0.60104500  1
  C  466  1  0.39149100  0.93777100  0.63705300  1
  C  467  1  0.37084300  0.91352300  0.66146800  1
  C  468  1  0.36072200  0.87767000  0.64952800  1
  C  469  1  0.37140200  0.86684800  0.61369400  1
  C  471  1  0.39119800  0.89146500  0.58949500  1
  C  481  1  0.90161000  0.11186400  0.86241200  1
  C  482  1  0.89140900  0.10112800  0.82640500  1
  C  483  1  0.87078000  0.12538900  0.80198900  1
  C  484  1  0.86068800  0.16124700  0.81392900  1
  C  485  1  0.87137700  0.17206000  0.84976300  1
  C  487  1  0.89115400  0.14743300  0.87396300  1
  C  497  1  0.12744600  0.64664500  0.15804100  1
  C  498  1  0.12331800  0.60868500  0.15226500  1
  C  499  1  0.09601100  0.59482000  0.12465200  1
  C  500  1  0.07184200  0.61963000  0.10313200  1
  C  501  1  0.07550400  0.65748300  0.10931400  1
  C  503  1  0.10301400  0.67089000  0.13662200  1
  C  513  1  0.62734200  0.39224700  0.30526000  1
  C  514  1  0.62324300  0.43021500  0.31100400  1
  C  515  1  0.59595500  0.44411600  0.33861200  1
  C  516  1  0.57176700  0.41933400  0.36015300  1
  C  517  1  0.57539100  0.38147800  0.35399400  1
  C  519  1  0.60289100  0.36803200  0.32669400  1
  N  282  1  0.86016000  0.11477500  0.19746900  1
  N  285  1  0.92125500  0.08747200  0.07612400  1
  N  287  1  0.83921900  0.18684900  0.17201200  1
  N  298  1  0.36021000  0.92407900  0.26597000  1
  N  301  1  0.42130600  0.95131300  0.38733200  1
  N  303  1  0.33928900  0.85198500  0.29138200  1
  N  314  1  0.59285900  0.48195100  0.61754000  1
  N  317  1  0.65514700  0.37752900  0.68480600  1
  N  319  1  0.54597500  0.43069100  0.57362200  1
  N  330  1  0.09282100  0.55678900  0.84546300  1
  N  333  1  0.15506100  0.66141400  0.77849600  1
  N  335  1  0.04611700  0.60791000  0.88967100  1
  N  346  1  0.64094900  0.11473600  0.26594300  1
  N  349  1  0.57984700  0.08749100  0.38730300  1
  N  351  1  0.66187700  0.18682600  0.29136400  1
  N  362  1  0.14098500  0.92409700  0.19745000  1
  N  365  1  0.07985100  0.95132100  0.07609900  1
  N  367  1  0.16193500  0.85201000  0.17203200  1
  N  378  1  0.90826200  0.48187200  0.84603000  1
  N  381  1  0.84598200  0.37755200  0.77860600  1
  N  383  1  0.95517200  0.43054500  0.88985800  1
  N  394  1  0.40822000  0.55691400  0.61757600  1
  N  397  1  0.34590900  0.66140700  0.68471100  1
  N  399  1  0.45512000  0.60812500  0.57361700  1
  N  410  1  0.14097200  0.92410000  0.76596100  1
  N  413  1  0.07983500  0.95134700  0.88730600  1
  N  415  1  0.16189000  0.85201100  0.79138600  1
  N  426  1  0.64098100  0.11479300  0.69746300  1
  N  429  1  0.57988300  0.08754100  0.57610700  1
  N  431  1  0.66190600  0.18688300  0.67204000  1
  N  442  1  0.40826200  0.55691200  0.34585700  1
  N  445  1  0.34600900  0.66133000  0.27856400  1
  N  447  1  0.45514900  0.60817400  0.38977600  1
  N  458  1  0.90818500  0.48206300  0.11779600  1
  N  461  1  0.84591500  0.37748100  0.18481600  1
  N  463  1  0.95500700  0.43091400  0.07371200  1
  N  474  1  0.36024200  0.92411700  0.69750100  1
  N  477  1  0.42133800  0.95136800  0.57614200  1
  N  479  1  0.33926300  0.85204600  0.67206100  1
  N  490  1  0.86017400  0.11479900  0.76595800  1
  N  493  1  0.92125300  0.08751300  0.88731300  1
  N  495  1  0.83925600  0.18688700  0.79139400  1
  N  506  1  0.09284700  0.55699100  0.11747200  1
  N  509  1  0.15519900  0.66139200  0.18472500  1
  N  511  1  0.04601800  0.60826800  0.07352800  1
  N  522  1  0.59283300  0.48195400  0.34577300  1
  N  525  1  0.65509600  0.37746400  0.27859700  1
  N  527  1  0.54597200  0.43073700  0.38975900  1
  O  283  1  0.89316900  0.10630600  0.21534200  1
  O  284  1  0.83474300  0.08811200  0.19767500  1
  O  299  1  0.39321800  0.93256300  0.24810500  1
  O  300  1  0.33478800  0.95074000  0.26578500  1
  O  315  1  0.62849000  0.49498100  0.60799800  1
  O  316  1  0.57978600  0.49912800  0.64508000  1
  O  331  1  0.12846800  0.54369800  0.85487900  1
  O  332  1  0.07964500  0.53972100  0.81789100  1
  O  347  1  0.60794200  0.10625700  0.24807700  1
  O  348  1  0.66637100  0.08807500  0.26575500  1
  O  363  1  0.10797800  0.93256800  0.21532100  1
  O  364  1  0.16639500  0.95076600  0.19763500  1
  O  379  1  0.87263400  0.49488800  0.85560200  1
  O  380  1  0.92132000  0.49909200  0.81851100  1
  O  395  1  0.37258900  0.54387600  0.60804100  1
  O  396  1  0.42128300  0.53975900  0.64513500  1
  O  411  1  0.10796800  0.93258000  0.74808800  1
  O  412  1  0.16639200  0.95076100  0.76577600  1
  O  427  1  0.60797400  0.10631200  0.71533100  1
  O  428  1  0.66640000  0.08813200  0.69765400  1
  O  443  1  0.37262700  0.54388500  0.35539700  1
  O  444  1  0.42133800  0.53972900  0.31832300  1
  O  459  1  0.87254500  0.49512300  0.10831800  1
  O  460  1  0.92129700  0.49917100  0.14536300  1
  O  475  1  0.39325900  0.93257800  0.71536800  1
  O  476  1  0.33483900  0.95078900  0.69769800  1
  O  491  1  0.89318200  0.10632000  0.74809100  1
  O  492  1  0.83474900  0.08814200  0.76576100  1
  O  507  1  0.12846800  0.54393000  0.10794100  1
  O  508  1  0.07975500  0.53983000  0.14501500  1
  O  523  1  0.62847100  0.49498900  0.35528600  1
  O  524  1  0.57974700  0.49910600  0.31822200  1
