# generated using pymatgen
data_H9C12N4O
_symmetry_space_group_name_H-M   'P 1'
_cell_length_a   17.62060000
_cell_length_b   19.55190000
_cell_length_c   19.55190000
_cell_angle_alpha   120.00000000
_cell_angle_beta   90.00000000
_cell_angle_gamma   90.00000000
_symmetry_Int_Tables_number   1
_chemical_formula_structural   H9C12N4O
_chemical_formula_sum   'H54 C72 N24 O6'
_cell_volume   5833.50076111
_cell_formula_units_Z   6
loop_
 _symmetry_equiv_pos_site_id
 _symmetry_equiv_pos_as_xyz
  1  'x, y, z'
loop_
 _atom_site_type_symbol
 _atom_site_label
 _atom_site_symmetry_multiplicity
 _atom_site_fract_x
 _atom_site_fract_y
 _atom_site_fract_z
 _atom_site_occupancy
  C  1  1  0.98934700  0.42912950  0.50209150  1
  C  2  1  0.04469600  0.37180500  0.49020700  1
  C  3  1  0.04125400  0.32464300  0.52650600  1
  C  4  1  0.98162800  0.34135650  0.58282950  1
  C  5  1  0.92521100  0.40035600  0.59753000  1
  C  6  1  0.92901900  0.44419950  0.55673050  1
  C  9  1  0.99691100  0.46974600  0.45865000  1
  C  10  1  0.05528600  0.52627350  0.47319250  1
  C  11  1  0.05659100  0.56659700  0.42860600  1
  C  12  1  0.99935100  0.54902650  0.36942750  1
  C  13  1  0.93988600  0.49343600  0.35573900  1
  C  14  1  0.94022200  0.45645600  0.40217600  1
  C  27  1  0.32261500  0.97851550  0.47307150  1
  C  28  1  0.37811900  0.02395200  0.53020600  1
  C  29  1  0.37464000  0.10741100  0.57740400  1
  C  30  1  0.31493700  0.14700600  0.56077500  1
  C  31  1  0.25841200  0.10269800  0.50191600  1
  C  32  1  0.26218000  0.01805550  0.45811250  1
  C  35  1  0.33015700  0.89445100  0.43241600  1
  C  36  1  0.38852100  0.85245300  0.37587600  1
  C  37  1  0.38986100  0.76754150  0.33561350  1
  C  38  1  0.33265200  0.72595550  0.35325150  1
  C  39  1  0.27319000  0.76786500  0.40884800  1
  C  40  1  0.27354500  0.85127900  0.44580900  1
  C  53  1  0.65604800  0.40014100  0.92374000  1
  C  54  1  0.71157400  0.41182400  0.87830900  1
  C  55  1  0.70815900  0.37546250  0.79483650  1
  C  56  1  0.64859100  0.31908750  0.75521050  1
  C  57  1  0.59198200  0.30462900  0.79950400  1
  C  58  1  0.59564600  0.34560100  0.88415500  1
  C  61  1  0.66353400  0.44360250  0.00781050  1
  C  62  1  0.72190400  0.42914150  0.04987050  1
  C  63  1  0.72315600  0.47377950  0.13478550  1
  C  64  1  0.66587700  0.53293600  0.17632300  1
  C  65  1  0.60647600  0.54660750  0.13435150  1
  C  66  1  0.60688500  0.50015600  0.05094100  1
  C  79  1  0.88386800  0.47083250  0.29490150  1
  C  81  1  0.85679100  0.45974000  0.16784000  1
  C  82  1  0.77797500  0.45797100  0.17907500  1
  C  84  1  0.80526600  0.45728400  0.30099300  1
  C  86  1  0.77134100  0.46429650  0.36812650  1
  C  87  1  0.74921800  0.54262350  0.42991450  1
  C  92  1  0.21719900  0.72968900  0.43155500  1
  C  94  1  0.19015100  0.61377600  0.44284700  1
  C  95  1  0.11132600  0.62681850  0.44461550  1
  C  97  1  0.13863100  0.74942050  0.44529450  1
  C  99  1  0.10467400  0.80956000  0.43833800  1
  C  100  1  0.08238500  0.79302550  0.36005650  1
  C  105  1  0.55055300  0.60756250  0.17246150  1
  C  107  1  0.52347100  0.73460150  0.28842750  1
  C  108  1  0.44465900  0.72335000  0.27546300  1
  C  110  1  0.47199200  0.60147700  0.15270400  1
  C  112  1  0.43792400  0.53409050  0.09303750  1
  C  113  1  0.41532200  0.47250650  0.10951250  1
  C  118  1  0.86641100  0.41512150  0.65350550  1
  C  120  1  0.83557700  0.42603000  0.77925300  1
  C  121  1  0.76060200  0.39905050  0.75432750  1
  C  123  1  0.78855100  0.40052600  0.63272800  1
  C  125  1  0.75968400  0.38012550  0.55913950  1
  C  126  1  0.76846100  0.30061450  0.49299750  1
  C  131  1  0.19960000  0.14392150  0.48718850  1
  C  133  1  0.16870200  0.25851100  0.47588800  1
  C  134  1  0.09371800  0.26054750  0.50287750  1
  C  136  1  0.12171400  0.13747650  0.50147150  1
  C  138  1  0.09276200  0.08495100  0.52265100  1
  C  139  1  0.10249800  0.09728400  0.60164300  1
  C  144  1  0.53315700  0.24869600  0.75830400  1
  C  146  1  0.50217100  0.12301400  0.64346700  1
  C  147  1  0.42718900  0.14794050  0.64140950  1
  C  149  1  0.45534500  0.26960950  0.76435450  1
  C  151  1  0.42639400  0.34334100  0.81699000  1
  C  152  1  0.43654800  0.41005150  0.80484050  1
  H  7  1  0.08508900  0.35962150  0.44798050  1
  H  16  1  0.90151700  0.41274500  0.38996400  1
  H  19  1  0.88687700  0.54129150  0.55453350  1
  H  20  1  0.84549600  0.52489150  0.61971250  1
  H  21  1  0.13564100  0.59367800  0.55603700  1
  H  22  1  0.09917500  0.52526900  0.57032200  1
  H  23  1  0.04752800  0.60574850  0.31525950  1
  H  24  1  0.95525500  0.59721000  0.30559100  1
  H  25  1  0.93405700  0.29611250  0.64853750  1
  H  26  1  0.02588600  0.28559750  0.63841350  1
  H  33  1  0.41846600  0.99390950  0.54242650  1
  H  42  1  0.23488800  0.88279650  0.48957050  1
  H  45  1  0.21973200  0.91870500  0.36120800  1
  H  46  1  0.17832400  0.00023450  0.37762350  1
  H  47  1  0.46857300  0.86775900  0.30821600  1
  H  48  1  0.43219700  0.95053950  0.37661750  1
  H  49  1  0.38083700  0.61504250  0.29650350  1
  H  50  1  0.28855000  0.61399650  0.30498650  1
  H  51  1  0.26736200  0.25795950  0.60602650  1
  H  52  1  0.35922800  0.25832500  0.61627200  1
  H  59  1  0.75189500  0.45413350  0.90834050  1
  H  68  1  0.56818400  0.51228400  0.01937100  1
  H  71  1  0.55312300  0.34817450  0.98349950  1
  H  72  1  0.51170500  0.28300650  0.90197550  1
  H  73  1  0.80193300  0.34620600  0.03470100  1
  H  74  1  0.76555600  0.33180300  0.95189200  1
  H  75  1  0.71389550  0.58722450  0.28729250  1
  H  76  1  0.62162700  0.59683850  0.28828150  1
  H  77  1  0.60131000  0.25313450  0.64407750  1
  H  78  1  0.69304000  0.26364400  0.64370400  1
  H  85  1  0.87837800  0.46598250  0.12275150  1
  H  88  1  0.73552200  0.54158450  0.48387850  1
  H  89  1  0.69940700  0.56304400  0.41196500  1
  H  90  1  0.79528400  0.58495750  0.44367650  1
  H  98  1  0.21165700  0.56212700  0.43585200  1
  H  101  1  0.06867600  0.84803500  0.36111100  1
  H  102  1  0.03253400  0.75470300  0.33975400  1
  H  103  1  0.12836200  0.76440000  0.31761900  1
  H  111  1  0.54505900  0.77967500  0.33976700  1
  H  114  1  0.40182900  0.41853700  0.05444700  1
  H  115  1  0.36525900  0.49060950  0.14752650  1
  H  116  1  0.46106000  0.45882800  0.13848900  1
  H  124  1  0.85755700  0.43122900  0.82991600  1
  H  127  1  0.78249700  0.30355300  0.44015200  1
  H  128  1  0.71563600  0.26760550  0.48257450  1
  H  129  1  0.81368100  0.26816600  0.50272900  1
  H  137  1  0.19055400  0.30410250  0.47083950  1
  H  140  1  0.11857200  0.04154350  0.59777950  1
  H  141  1  0.04947200  0.11787550  0.63471350  1
  H  142  1  0.14666700  0.14070100  0.63454100  1
  H  150  1  0.52386600  0.07199500  0.59824700  1
  H  153  1  0.45322800  0.46163650  0.86054050  1
  H  154  1  0.38348400  0.42315000  0.78484900  1
  H  155  1  0.48041600  0.39926950  0.76106150  1
  N  8  1  0.97922800  0.30059350  0.62297850  1
  N  15  1  0.00110800  0.58579650  0.32541250  1
  N  17  1  0.88110900  0.50653800  0.57624500  1
  N  18  1  0.10284100  0.54796650  0.53622350  1
  N  34  1  0.31255600  0.22792100  0.60147700  1
  N  41  1  0.33447100  0.64518400  0.31665600  1
  N  43  1  0.21425300  0.97523200  0.39580500  1
  N  44  1  0.43602200  0.89379000  0.35412700  1
  N  60  1  0.64649700  0.27842400  0.67429400  1
  N  67  1  0.66750600  0.57692850  0.25711150  1
  N  69  1  0.54756800  0.32624250  0.92697450  1
  N  70  1  0.76952200  0.36613100  0.00862300  1
  N  80  1  0.90419600  0.46789650  0.22606550  1
  N  83  1  0.75763500  0.45494650  0.24483650  1
  N  93  1  0.23747100  0.66369750  0.43433650  1
  N  96  1  0.09100800  0.69561400  0.44765900  1
  N  106  1  0.57088200  0.67637700  0.23837700  1
  N  109  1  0.42436300  0.65752650  0.20669950  1
  N  119  1  0.88486500  0.42882250  0.72716950  1
  N  122  1  0.74202800  0.39169100  0.68322100  1
  N  132  1  0.21802700  0.20378850  0.47334350  1
  N  135  1  0.07524000  0.19686250  0.51037450  1
  N  145  1  0.55147800  0.17493700  0.69842500  1
  N  148  1  0.40878400  0.21917700  0.70505000  1
  O  91  1  0.72743200  0.41122600  0.35706700  1
  O  104  1  0.06087000  0.85162300  0.49150500  1
  O  117  1  0.39511300  0.54571150  0.05057250  1
  O  130  1  0.70550100  0.41823300  0.55716900  1
  O  143  1  0.03898100  0.04419250  0.48429750  1
  O  156  1  0.37291500  0.34552300  0.85795500  1
