# generated using pymatgen
data_H2C5N
_symmetry_space_group_name_H-M   'P 1'
_cell_length_a   9.90306667
_cell_length_b   12.63515000
_cell_length_c   21.53160000
_cell_angle_alpha   90.16380000
_cell_angle_beta   89.98100000
_cell_angle_gamma   90.17810000
_symmetry_Int_Tables_number   1
_chemical_formula_structural   H2C5N
_chemical_formula_sum   'H24 C60 N12'
_cell_volume   2694.15459375
_cell_formula_units_Z   12
loop_
 _symmetry_equiv_pos_site_id
 _symmetry_equiv_pos_as_xyz
  1  'x, y, z'
loop_
 _atom_site_type_symbol
 _atom_site_label
 _atom_site_symmetry_multiplicity
 _atom_site_fract_x
 _atom_site_fract_y
 _atom_site_fract_z
 _atom_site_occupancy
  C  1  1  0.30225100  0.90610500  0.65238050  1
  C  2  1  0.18932550  0.97275100  0.65426850  1
  C  3  1  0.07589750  0.94438900  0.68968467  1
  C  4  1  0.07187650  0.84340800  0.71828817  1
  C  5  1  0.18876700  0.77837100  0.72225650  1
  C  6  1  0.30619900  0.81558900  0.69091600  1
  C  10  1  0.73749100  0.40644100  0.82459833  1
  C  11  1  0.85024600  0.47376000  0.82245133  1
  C  12  1  0.96445400  0.44476200  0.78781233  1
  C  13  1  0.96896100  0.34295000  0.75990900  1
  C  14  1  0.85183600  0.27761500  0.75564250  1
  C  15  1  0.73407100  0.31489900  0.78659500  1
  C  19  1  0.30275300  0.55263700  0.82501783  1
  C  20  1  0.18993050  0.48534000  0.82281633  1
  C  21  1  0.07605350  0.51385400  0.78793000  1
  C  22  1  0.07170550  0.61538100  0.76001600  1
  C  23  1  0.18881150  0.68071000  0.75588550  1
  C  24  1  0.30646400  0.64365100  0.78686850  1
  C  28  1  0.73836250  0.05122300  0.65215983  1
  C  29  1  0.85100850  0.98432500  0.65429900  1
  C  30  1  0.96444150  0.01304300  0.68969050  1
  C  31  1  0.96872850  0.11452700  0.71803583  1
  C  32  1  0.85189650  0.17965500  0.72199350  1
  C  33  1  0.73456750  0.14227500  0.69056183  1
  C  37  1  0.73746800  0.05041100  0.32465200  1
  C  38  1  0.85033900  0.98370000  0.32269567  1
  C  39  1  0.96368650  0.01195900  0.28718517  1
  C  40  1  0.96787100  0.11307800  0.25873933  1
  C  41  1  0.85091600  0.17801300  0.25468400  1
  C  42  1  0.73351500  0.14083500  0.28604317  1
  C  46  1  0.30221100  0.55003900  0.15230883  1
  C  47  1  0.18946050  0.48270200  0.15445433  1
  C  48  1  0.07532900  0.51158200  0.18918550  1
  C  49  1  0.07095350  0.61328300  0.21721550  1
  C  50  1  0.18792850  0.67877800  0.22135700  1
  C  51  1  0.30562150  0.64156100  0.19034067  1
  C  55  1  0.73696200  0.40383500  0.15194083  1
  C  56  1  0.84990000  0.47101400  0.15408300  1
  C  57  1  0.96372400  0.44252100  0.18900950  1
  C  58  1  0.96785100  0.34112200  0.21707183  1
  C  59  1  0.85086400  0.27565900  0.22105500  1
  C  60  1  0.73329750  0.31271600  0.19001783  1
  C  64  1  0.30129950  0.90532800  0.32477500  1
  C  65  1  0.18857600  0.97214200  0.32265917  1
  C  66  1  0.07514400  0.94331000  0.28730500  1
  C  67  1  0.07102450  0.84193400  0.25884033  1
  C  68  1  0.18781600  0.77674400  0.25498717  1
  C  69  1  0.30503750  0.81410700  0.28651333  1
  C  73  1  0.62695850  0.01841300  0.61726800  1
  C  75  1  0.51996300  0.97823100  0.52125233  1
  C  77  1  0.41357750  0.93846600  0.61737633  1
  C  79  1  0.41414550  0.52018800  0.85977650  1
  C  81  1  0.51988250  0.47848400  0.95570050  1
  C  83  1  0.62614150  0.43897600  0.85945267  1
  C  85  1  0.41268300  0.93817600  0.35965850  1
  C  87  1  0.51973250  0.97809000  0.45570700  1
  C  89  1  0.62612850  0.01794500  0.35961417  1
  C  91  1  0.62557050  0.43633900  0.11719900  1
  C  93  1  0.51981950  0.47783700  0.02125233  1
  C  95  1  0.41357450  0.51744700  0.11747667  1
  H  7  1  0.98690000  0.82311500  0.74263200  1
  H  8  1  0.39077200  0.76928700  0.68935117  1
  H  9  1  0.18963850  0.04235800  0.62975217  1
  H  16  1  0.05406000  0.32262500  0.73572900  1
  H  17  1  0.64945050  0.26825000  0.78813600  1
  H  18  1  0.84964050  0.54396200  0.84661467  1
  H  25  1  0.98678450  0.63542700  0.73571617  1
  H  26  1  0.39113000  0.69026000  0.78841183  1
  H  27  1  0.19037500  0.41536800  0.84697550  1
  H  34  1  0.05362050  0.13485100  0.74247050  1
  H  35  1  0.64993100  0.18850300  0.68897433  1
  H  36  1  0.85057650  0.91434400  0.62991367  1
  H  43  1  0.05278850  0.13316500  0.23429883  1
  H  44  1  0.64877200  0.18696400  0.28753550  1
  H  45  1  0.85000250  0.91407400  0.34719733  1
  H  52  1  0.98567400  0.63375000  0.24123183  1
  H  53  1  0.39035700  0.68809300  0.18881600  1
  H  54  1  0.19003050  0.41254200  0.13024250  1
  H  61  1  0.05293500  0.32090500  0.24121317  1
  H  62  1  0.64848300  0.26626400  0.18849267  1
  H  63  1  0.84950800  0.54098500  0.12992117  1
  H  70  1  0.98611850  0.82141200  0.23446533  1
  H  71  1  0.38976150  0.76795800  0.28795950  1
  H  72  1  0.18896850  0.04214500  0.34701883  1
  N  74  1  0.62900550  0.01379500  0.55402767  1
  N  76  1  0.41111150  0.94287800  0.55414617  1
  N  78  1  0.52039450  0.97847400  0.64853033  1
  N  80  1  0.41161950  0.51482100  0.92299017  1
  N  82  1  0.62825200  0.44274300  0.92271250  1
  N  84  1  0.52025600  0.47992500  0.82839283  1
  N  86  1  0.41067550  0.94260800  0.42291033  1
  N  88  1  0.62860000  0.01347400  0.42283867  1
  N  90  1  0.51930850  0.97805700  0.32842133  1
  N  92  1  0.62809700  0.44154900  0.05397733  1
  N  94  1  0.41144400  0.51361700  0.05422183  1
  N  96  1  0.51943550  0.47656000  0.14857533  1
