# generated using pymatgen
data_AgH12C28(S3N2)2
_symmetry_space_group_name_H-M   'P 1'
_cell_length_a   12.89507000
_cell_length_b   21.96372000
_cell_length_c   22.01646000
_cell_angle_alpha   90.00000000
_cell_angle_beta   89.99318000
_cell_angle_gamma   90.00000000
_symmetry_Int_Tables_number   1
_chemical_formula_structural   AgH12C28(S3N2)2
_chemical_formula_sum   'Ag8 H96 C224 S48 N32'
_cell_volume   6235.58336897
_cell_formula_units_Z   8
loop_
 _symmetry_equiv_pos_site_id
 _symmetry_equiv_pos_as_xyz
  1  'x, y, z'
loop_
 _atom_site_type_symbol
 _atom_site_label
 _atom_site_symmetry_multiplicity
 _atom_site_fract_x
 _atom_site_fract_y
 _atom_site_fract_z
 _atom_site_occupancy
  Ag  Ag0  1  0.87348000  0.52917000  0.75207000  1
  Ag  Ag1  1  0.12653000  0.02916000  0.74790000  1
  Ag  Ag2  1  0.37349000  0.97079000  0.24790000  1
  Ag  Ag3  1  0.62652000  0.47080000  0.25213000  1
  Ag  Ag4  1  0.12653000  0.47084000  0.24793000  1
  Ag  Ag5  1  0.87348000  0.97085000  0.25210000  1
  Ag  Ag6  1  0.62652000  0.02922000  0.75210000  1
  Ag  Ag7  1  0.37349000  0.52920000  0.74787000  1
  H  H8  1  0.31989000  0.72604000  0.89768000  1
  H  H9  1  0.14439000  0.66560000  0.89659000  1
  H  H10  1  0.41132000  0.74794000  0.68307000  1
  H  H11  1  0.58842000  0.80538000  0.68034000  1
  H  H12  1  0.86783000  0.89172000  0.88747000  1
  H  H13  1  0.69532000  0.82976000  0.89279000  1
  H  H14  1  0.63585000  0.37981000  0.61433000  1
  H  H15  1  0.46205000  0.36527000  0.55497000  1
  H  H16  1  0.14710000  0.56209000  0.47707000  1
  H  H17  1  0.32397000  0.57244000  0.53366000  1
  H  H18  1  0.07703000  0.34454000  0.46058000  1
  H  H19  1  0.90632000  0.33751000  0.39617000  1
  H  H20  1  0.68011000  0.22604000  0.60232000  1
  H  H21  1  0.85561000  0.16561000  0.60341000  1
  H  H22  1  0.58868000  0.24794000  0.81693000  1
  H  H23  1  0.41158000  0.30539000  0.81966000  1
  H  H24  1  0.13217000  0.39172000  0.61253000  1
  H  H25  1  0.30468000  0.32976000  0.60721000  1
  H  H26  1  0.36415000  0.87981000  0.88567000  1
  H  H27  1  0.53796000  0.86526000  0.94503000  1
  H  H28  1  0.85291000  0.06209000  0.02292000  1
  H  H29  1  0.67603000  0.07244000  0.96634000  1
  H  H30  1  0.92299000  0.84454000  0.03942000  1
  H  H31  1  0.09369000  0.83751000  0.10383000  1
  H  H32  1  0.81992000  0.77399000  0.10230000  1
  H  H33  1  0.64438000  0.83437000  0.10338000  1
  H  H34  1  0.91129000  0.75209000  0.31692000  1
  H  H35  1  0.08838000  0.69462000  0.31966000  1
  H  H36  1  0.36781000  0.60831000  0.11253000  1
  H  H37  1  0.19531000  0.67028000  0.10724000  1
  H  H38  1  0.13599000  0.12018000  0.38563000  1
  H  H39  1  0.96213000  0.13473000  0.44498000  1
  H  H40  1  0.64717000  0.93790000  0.52287000  1
  H  H41  1  0.82405000  0.92755000  0.46629000  1
  H  H42  1  0.57700000  0.15543000  0.53939000  1
  H  H43  1  0.40642000  0.16250000  0.60389000  1
  H  H44  1  0.18009000  0.27399000  0.39770000  1
  H  H45  1  0.35563000  0.33437000  0.39661000  1
  H  H46  1  0.08872000  0.25209000  0.18308000  1
  H  H47  1  0.91163000  0.19462000  0.18034000  1
  H  H48  1  0.63220000  0.10831000  0.38747000  1
  H  H49  1  0.80470000  0.17028000  0.39276000  1
  H  H50  1  0.86402000  0.62018000  0.11437000  1
  H  H51  1  0.03787000  0.63473000  0.05502000  1
  H  H52  1  0.35284000  0.43790000  0.97713000  1
  H  H53  1  0.17596000  0.42755000  0.03371000  1
  H  H54  1  0.42301000  0.65543000  0.96061000  1
  H  H55  1  0.59358000  0.66249000  0.89611000  1
  H  H56  1  0.68011000  0.27396000  0.10232000  1
  H  H57  1  0.85562000  0.33440000  0.10341000  1
  H  H58  1  0.58869000  0.25206000  0.31693000  1
  H  H59  1  0.41158000  0.19462000  0.31966000  1
  H  H60  1  0.13218000  0.10828000  0.11253000  1
  H  H61  1  0.30468000  0.17025000  0.10721000  1
  H  H62  1  0.36416000  0.62019000  0.38567000  1
  H  H63  1  0.53796000  0.63474000  0.44503000  1
  H  H64  1  0.85291000  0.43791000  0.52292000  1
  H  H65  1  0.67604000  0.42757000  0.46634000  1
  H  H66  1  0.92298000  0.65546000  0.53942000  1
  H  H67  1  0.09368000  0.66249000  0.60383000  1
  H  H68  1  0.31990000  0.77396000  0.39768000  1
  H  H69  1  0.14439000  0.83440000  0.39659000  1
  H  H70  1  0.41132000  0.75206000  0.18307000  1
  H  H71  1  0.58843000  0.69462000  0.18034000  1
  H  H72  1  0.86783000  0.60828000  0.38747000  1
  H  H73  1  0.69532000  0.67025000  0.39279000  1
  H  H74  1  0.63585000  0.12019000  0.11433000  1
  H  H75  1  0.46205000  0.13474000  0.05497000  1
  H  H76  1  0.14710000  0.93791000  0.97708000  1
  H  H77  1  0.32397000  0.92756000  0.03366000  1
  H  H78  1  0.07702000  0.15546000  0.96058000  1
  H  H79  1  0.90632000  0.16249000  0.89617000  1
  H  H80  1  0.18009000  0.22602000  0.89770000  1
  H  H81  1  0.35563000  0.16563000  0.89661000  1
  H  H82  1  0.08872000  0.24791000  0.68308000  1
  H  H83  1  0.91162000  0.30538000  0.68034000  1
  H  H84  1  0.63219000  0.39169000  0.88747000  1
  H  H85  1  0.80469000  0.32972000  0.89276000  1
  H  H86  1  0.86402000  0.87982000  0.61437000  1
  H  H87  1  0.03787000  0.86527000  0.55502000  1
  H  H88  1  0.35284000  0.06210000  0.47713000  1
  H  H89  1  0.17596000  0.07245000  0.53371000  1
  H  H90  1  0.42301000  0.84457000  0.46061000  1
  H  H91  1  0.59359000  0.83751000  0.39611000  1
  H  H92  1  0.81992000  0.72602000  0.60230000  1
  H  H93  1  0.64438000  0.66563000  0.60338000  1
  H  H94  1  0.91129000  0.74791000  0.81692000  1
  H  H95  1  0.08838000  0.80538000  0.81966000  1
  H  H96  1  0.36781000  0.89169000  0.61253000  1
  H  H97  1  0.19531000  0.82972000  0.60724000  1
  H  H98  1  0.13599000  0.37982000  0.88563000  1
  H  H99  1  0.96213000  0.36528000  0.94498000  1
  H  H100  1  0.64717000  0.56210000  0.02287000  1
  H  H101  1  0.82404000  0.57245000  0.96629000  1
  H  H102  1  0.57700000  0.34458000  0.03939000  1
  H  H103  1  0.40642000  0.33751000  0.10389000  1
  C  C104  1  0.06915000  0.62868000  0.78037000  1
  C  C105  1  0.15874000  0.65933000  0.79779000  1
  C  C106  1  0.32763000  0.71589000  0.79904000  1
  C  C107  1  0.28362000  0.70806000  0.85695000  1
  C  C108  1  0.18948000  0.67645000  0.85636000  1
  C  C109  1  0.42058000  0.74635000  0.78188000  1
  C  C110  1  0.45553000  0.75996000  0.72333000  1
  C  C111  1  0.54942000  0.79170000  0.72193000  1
  C  C112  1  0.59055000  0.80405000  0.77937000  1
  C  C113  1  0.68358000  0.83573000  0.79390000  1
  C  C114  1  0.85003000  0.89466000  0.78864000  1
  C  C115  1  0.82198000  0.87909000  0.84806000  1
  C  C116  1  0.72944000  0.84614000  0.85082000  1
  C  C117  1  0.93909000  0.92514000  0.77005000  1
  C  C118  1  0.68798000  0.50070000  0.64903000  1
  C  C119  1  0.60191000  0.47710000  0.61904000  1
  C  C120  1  0.58290000  0.41652000  0.60309000  1
  C  C121  1  0.48954000  0.40891000  0.57165000  1
  C  C122  1  0.43470000  0.46339000  0.56263000  1
  C  C123  1  0.33939000  0.47368000  0.53149000  1
  C  C124  1  0.16951000  0.46370000  0.47485000  1
  C  C125  1  0.19698000  0.52379000  0.48817000  1
  C  C126  1  0.29084000  0.52926000  0.51945000  1
  C  C127  1  0.07894000  0.44261000  0.44441000  1
  C  C128  1  0.03949000  0.38323000  0.43921000  1
  C  C129  1  0.94773000  0.37953000  0.40557000  1
  C  C130  1  0.91425000  0.43635000  0.38436000  1
  C  C131  1  0.82397000  0.44949000  0.35239000  1
  C  C132  1  0.93085000  0.12868000  0.71963000  1
  C  C133  1  0.84126000  0.15933000  0.70221000  1
  C  C134  1  0.67237000  0.21590000  0.70096000  1
  C  C135  1  0.71639000  0.20807000  0.64305000  1
  C  C136  1  0.81052000  0.17645000  0.64364000  1
  C  C137  1  0.57943000  0.24635000  0.71812000  1
  C  C138  1  0.54448000  0.25996000  0.77667000  1
  C  C139  1  0.45059000  0.29170000  0.77807000  1
  C  C140  1  0.40945000  0.30405000  0.72063000  1
  C  C141  1  0.31642000  0.33573000  0.70610000  1
  C  C142  1  0.14997000  0.39467000  0.71136000  1
  C  C143  1  0.17802000  0.37909000  0.65194000  1
  C  C144  1  0.27056000  0.34614000  0.64918000  1
  C  C145  1  0.06091000  0.42515000  0.72995000  1
  C  C146  1  0.31202000  0.00070000  0.85097000  1
  C  C147  1  0.39809000  0.97710000  0.88096000  1
  C  C148  1  0.41710000  0.91652000  0.89691000  1
  C  C149  1  0.51046000  0.90891000  0.92835000  1
  C  C150  1  0.56530000  0.96339000  0.93737000  1
  C  C151  1  0.66061000  0.97368000  0.96851000  1
  C  C152  1  0.83050000  0.96369000  0.02514000  1
  C  C153  1  0.80303000  0.02379000  0.01183000  1
  C  C154  1  0.70916000  0.02926000  0.98055000  1
  C  C155  1  0.92107000  0.94261000  0.05559000  1
  C  C156  1  0.96052000  0.88323000  0.06079000  1
  C  C157  1  0.05228000  0.87953000  0.09443000  1
  C  C158  1  0.08576000  0.93635000  0.11564000  1
  C  C159  1  0.17604000  0.94948000  0.14761000  1
  C  C160  1  0.56918000  0.87133000  0.21965000  1
  C  C161  1  0.65873000  0.84066000  0.20219000  1
  C  C162  1  0.82762000  0.78411000  0.20094000  1
  C  C163  1  0.78361000  0.79193000  0.14303000  1
  C  C164  1  0.68947000  0.82354000  0.14361000  1
  C  C165  1  0.92059000  0.75367000  0.21810000  1
  C  C166  1  0.95550000  0.74006000  0.27666000  1
  C  C167  1  0.04938000  0.70831000  0.27807000  1
  C  C168  1  0.09055000  0.69597000  0.22064000  1
  C  C169  1  0.18359000  0.66430000  0.20612000  1
  C  C170  1  0.35001000  0.60533000  0.21136000  1
  C  C171  1  0.32196000  0.62092000  0.15195000  1
  C  C172  1  0.22944000  0.65389000  0.14919000  1
  C  C173  1  0.43905000  0.57486000  0.22996000  1
  C  C174  1  0.18812000  0.99931000  0.35099000  1
  C  C175  1  0.10204000  0.02290000  0.38096000  1
  C  C176  1  0.08302000  0.08348000  0.39688000  1
  C  C177  1  0.98962000  0.09109000  0.42829000  1
  C  C178  1  0.93478000  0.03661000  0.43731000  1
  C  C179  1  0.83946000  0.02631000  0.46845000  1
  C  C180  1  0.66954000  0.03629000  0.52510000  1
  C  C181  1  0.69704000  0.97621000  0.51178000  1
  C  C182  1  0.79092000  0.97073000  0.48051000  1
  C  C183  1  0.57896000  0.05736000  0.55558000  1
  C  C184  1  0.53952000  0.11674000  0.56079000  1
  C  C185  1  0.44779000  0.12046000  0.59448000  1
  C  C186  1  0.41428000  0.06365000  0.61570000  1
  C  C187  1  0.32383000  0.05054000  0.64754000  1
  C  C188  1  0.43083000  0.37134000  0.28035000  1
  C  C189  1  0.34128000  0.34066000  0.29781000  1
  C  C190  1  0.17239000  0.28411000  0.29906000  1
  C  C191  1  0.21639000  0.29194000  0.35696000  1
  C  C192  1  0.31054000  0.32354000  0.35638000  1
  C  C193  1  0.07942000  0.25367000  0.28190000  1
  C  C194  1  0.04451000  0.24006000  0.22334000  1
  C  C195  1  0.95063000  0.20831000  0.22192000  1
  C  C196  1  0.90946000  0.19597000  0.27936000  1
  C  C197  1  0.81642000  0.16430000  0.29388000  1
  C  C198  1  0.64999000  0.10533000  0.28864000  1
  C  C199  1  0.67805000  0.12092000  0.34805000  1
  C  C200  1  0.77057000  0.15389000  0.35081000  1
  C  C201  1  0.56096000  0.07486000  0.27004000  1
  C  C202  1  0.81188000  0.49931000  0.14901000  1
  C  C203  1  0.89797000  0.52289000  0.11904000  1
  C  C204  1  0.91699000  0.58348000  0.10312000  1
  C  C205  1  0.01038000  0.59109000  0.07171000  1
  C  C206  1  0.06523000  0.53660000  0.06269000  1
  C  C207  1  0.16055000  0.52631000  0.03155000  1
  C  C208  1  0.33047000  0.53629000  0.97489000  1
  C  C209  1  0.30296000  0.47621000  0.98822000  1
  C  C210  1  0.20909000  0.47073000  0.01949000  1
  C  C211  1  0.42105000  0.55736000  0.94442000  1
  C  C212  1  0.46049000  0.61674000  0.93920000  1
  C  C213  1  0.55222000  0.62045000  0.90552000  1
  C  C214  1  0.58572000  0.56364000  0.88430000  1
  C  C215  1  0.67618000  0.55054000  0.85246000  1
  C  C216  1  0.93085000  0.37133000  0.21963000  1
  C  C217  1  0.84126000  0.34067000  0.20221000  1
  C  C218  1  0.67237000  0.28411000  0.20096000  1
  C  C219  1  0.71639000  0.29194000  0.14305000  1
  C  C220  1  0.81053000  0.32356000  0.14364000  1
  C  C221  1  0.57943000  0.25365000  0.21812000  1
  C  C222  1  0.54448000  0.24004000  0.27667000  1
  C  C223  1  0.45059000  0.20830000  0.27807000  1
  C  C224  1  0.40945000  0.19596000  0.22063000  1
  C  C225  1  0.31642000  0.16428000  0.20610000  1
  C  C226  1  0.14997000  0.10534000  0.21136000  1
  C  C227  1  0.17802000  0.12092000  0.15193000  1
  C  C228  1  0.27056000  0.15387000  0.14917000  1
  C  C229  1  0.06091000  0.07486000  0.22995000  1
  C  C230  1  0.31203000  0.49930000  0.35097000  1
  C  C231  1  0.39809000  0.52290000  0.38096000  1
  C  C232  1  0.41711000  0.58348000  0.39691000  1
  C  C233  1  0.51046000  0.59110000  0.42835000  1
  C  C234  1  0.56530000  0.53661000  0.43737000  1
  C  C235  1  0.66061000  0.52632000  0.46851000  1
  C  C236  1  0.83050000  0.53631000  0.52514000  1
  C  C237  1  0.80303000  0.47622000  0.51183000  1
  C  C238  1  0.70916000  0.47075000  0.48055000  1
  C  C239  1  0.92107000  0.55739000  0.55559000  1
  C  C240  1  0.96051000  0.61677000  0.56079000  1
  C  C241  1  0.05228000  0.62047000  0.59443000  1
  C  C242  1  0.08575000  0.56366000  0.61564000  1
  C  C243  1  0.17603000  0.55052000  0.64761000  1
  C  C244  1  0.06916000  0.87132000  0.28037000  1
  C  C245  1  0.15875000  0.84067000  0.29779000  1
  C  C246  1  0.32763000  0.78411000  0.29904000  1
  C  C247  1  0.28362000  0.79194000  0.35695000  1
  C  C248  1  0.18948000  0.82356000  0.35636000  1
  C  C249  1  0.42058000  0.75365000  0.28188000  1
  C  C250  1  0.45553000  0.74004000  0.22333000  1
  C  C251  1  0.54942000  0.70830000  0.22193000  1
  C  C252  1  0.59055000  0.69596000  0.27937000  1
  C  C253  1  0.68359000  0.66427000  0.29390000  1
  C  C254  1  0.85004000  0.60534000  0.28864000  1
  C  C255  1  0.82199000  0.62092000  0.34806000  1
  C  C256  1  0.72945000  0.65387000  0.35082000  1
  C  C257  1  0.93909000  0.57486000  0.27005000  1
  C  C258  1  0.68798000  0.99930000  0.14903000  1
  C  C259  1  0.60192000  0.02290000  0.11904000  1
  C  C260  1  0.58290000  0.08348000  0.10309000  1
  C  C261  1  0.48955000  0.09110000  0.07165000  1
  C  C262  1  0.43471000  0.03661000  0.06263000  1
  C  C263  1  0.33940000  0.02633000  0.03149000  1
  C  C264  1  0.16950000  0.03631000  0.97485000  1
  C  C265  1  0.19698000  0.97622000  0.98817000  1
  C  C266  1  0.29084000  0.97075000  0.01945000  1
  C  C267  1  0.07894000  0.05739000  0.94440000  1
  C  C268  1  0.03949000  0.11677000  0.93921000  1
  C  C269  1  0.94772000  0.12047000  0.90557000  1
  C  C270  1  0.91425000  0.06366000  0.88436000  1
  C  C271  1  0.82397000  0.05052000  0.85239000  1
  C  C272  1  0.43083000  0.12867000  0.78035000  1
  C  C273  1  0.34128000  0.15934000  0.79781000  1
  C  C274  1  0.17238000  0.21589000  0.79906000  1
  C  C275  1  0.21639000  0.20807000  0.85696000  1
  C  C276  1  0.31054000  0.17646000  0.85638000  1
  C  C277  1  0.07942000  0.24633000  0.78190000  1
  C  C278  1  0.04450000  0.25994000  0.72334000  1
  C  C279  1  0.95062000  0.29169000  0.72192000  1
  C  C280  1  0.90946000  0.30403000  0.77936000  1
  C  C281  1  0.81642000  0.33570000  0.79388000  1
  C  C282  1  0.64999000  0.39468000  0.78864000  1
  C  C283  1  0.67804000  0.37908000  0.84805000  1
  C  C284  1  0.77057000  0.34612000  0.85081000  1
  C  C285  1  0.56096000  0.42514000  0.77004000  1
  C  C286  1  0.81188000  0.00069000  0.64901000  1
  C  C287  1  0.89797000  0.97711000  0.61904000  1
  C  C288  1  0.91699000  0.91652000  0.60312000  1
  C  C289  1  0.01038000  0.90891000  0.57171000  1
  C  C290  1  0.06523000  0.96340000  0.56269000  1
  C  C291  1  0.16054000  0.97369000  0.53155000  1
  C  C292  1  0.33047000  0.96371000  0.47490000  1
  C  C293  1  0.30297000  0.02380000  0.48822000  1
  C  C294  1  0.20909000  0.02927000  0.51949000  1
  C  C295  1  0.42105000  0.94264000  0.44442000  1
  C  C296  1  0.46049000  0.88326000  0.43920000  1
  C  C297  1  0.55222000  0.87955000  0.40552000  1
  C  C298  1  0.58572000  0.93636000  0.38430000  1
  C  C299  1  0.67618000  0.94946000  0.35246000  1
  C  C300  1  0.56917000  0.62867000  0.71965000  1
  C  C301  1  0.65873000  0.65934000  0.70219000  1
  C  C302  1  0.82762000  0.71589000  0.70094000  1
  C  C303  1  0.78361000  0.70807000  0.64303000  1
  C  C304  1  0.68946000  0.67646000  0.64361000  1
  C  C305  1  0.92058000  0.74633000  0.71810000  1
  C  C306  1  0.95550000  0.75994000  0.77666000  1
  C  C307  1  0.04938000  0.79169000  0.77807000  1
  C  C308  1  0.09054000  0.80403000  0.72064000  1
  C  C309  1  0.18358000  0.83570000  0.70612000  1
  C  C310  1  0.35001000  0.89467000  0.71136000  1
  C  C311  1  0.32196000  0.87908000  0.65195000  1
  C  C312  1  0.22944000  0.84612000  0.64919000  1
  C  C313  1  0.43905000  0.92514000  0.72996000  1
  C  C314  1  0.18812000  0.50069000  0.85099000  1
  C  C315  1  0.10204000  0.47711000  0.88096000  1
  C  C316  1  0.08302000  0.41652000  0.89688000  1
  C  C317  1  0.98962000  0.40892000  0.92829000  1
  C  C318  1  0.93478000  0.46340000  0.93731000  1
  C  C319  1  0.83946000  0.47369000  0.96845000  1
  C  C320  1  0.66954000  0.46371000  0.02510000  1
  C  C321  1  0.69704000  0.52379000  0.01178000  1
  C  C322  1  0.79092000  0.52927000  0.98051000  1
  C  C323  1  0.57896000  0.44265000  0.05558000  1
  C  C324  1  0.53952000  0.38327000  0.06079000  1
  C  C325  1  0.44779000  0.37955000  0.09448000  1
  C  C326  1  0.41428000  0.43636000  0.11570000  1
  C  C327  1  0.32383000  0.44946000  0.14754000  1
  S  S328  1  0.25009000  0.68194000  0.74377000  1
  S  S329  1  0.50885000  0.77418000  0.83582000  1
  S  S330  1  0.75797000  0.86871000  0.73651000  1
  S  S331  1  0.50094000  0.52426000  0.59528000  1
  S  S332  1  0.26573000  0.41376000  0.50117000  1
  S  S333  1  0.00063000  0.49397000  0.40514000  1
  S  S334  1  0.74992000  0.18194000  0.75622000  1
  S  S335  1  0.49115000  0.27418000  0.66418000  1
  S  S336  1  0.24203000  0.36871000  0.76349000  1
  S  S337  1  0.49906000  0.02426000  0.90472000  1
  S  S338  1  0.73427000  0.91375000  0.99883000  1
  S  S339  1  0.99939000  0.99396000  0.09486000  1
  S  S340  1  0.75005000  0.81806000  0.25620000  1
  S  S341  1  0.00891000  0.72583000  0.16417000  1
  S  S342  1  0.25793000  0.63129000  0.26350000  1
  S  S343  1  0.00105000  0.97573000  0.40468000  1
  S  S344  1  0.76577000  0.08623000  0.49877000  1
  S  S345  1  0.50065000  0.00601000  0.59488000  1
  S  S346  1  0.24996000  0.31806000  0.24380000  1
  S  S347  1  0.99110000  0.22584000  0.33583000  1
  S  S348  1  0.74208000  0.13129000  0.23650000  1
  S  S349  1  0.99896000  0.47573000  0.09532000  1
  S  S350  1  0.23424000  0.58623000  0.00123000  1
  S  S351  1  0.49936000  0.50601000  0.90511000  1
  S  S352  1  0.74992000  0.31807000  0.25622000  1
  S  S353  1  0.49115000  0.22582000  0.16418000  1
  S  S354  1  0.24204000  0.13130000  0.26349000  1
  S  S355  1  0.49906000  0.47575000  0.40472000  1
  S  S356  1  0.73428000  0.58625000  0.49883000  1
  S  S357  1  0.99938000  0.50604000  0.59486000  1
  S  S358  1  0.25009000  0.81806000  0.24377000  1
  S  S359  1  0.50886000  0.72582000  0.33582000  1
  S  S360  1  0.75797000  0.63130000  0.23651000  1
  S  S361  1  0.50095000  0.97574000  0.09528000  1
  S  S362  1  0.26573000  0.08625000  0.00117000  1
  S  S363  1  0.00062000  0.00604000  0.90514000  1
  S  S364  1  0.24996000  0.18194000  0.74380000  1
  S  S365  1  0.99110000  0.27417000  0.83583000  1
  S  S366  1  0.74208000  0.36871000  0.73650000  1
  S  S367  1  0.99896000  0.02427000  0.59532000  1
  S  S368  1  0.23424000  0.91377000  0.50123000  1
  S  S369  1  0.49936000  0.99399000  0.40512000  1
  S  S370  1  0.75004000  0.68194000  0.75620000  1
  S  S371  1  0.00890000  0.77417000  0.66417000  1
  S  S372  1  0.25793000  0.86871000  0.76350000  1
  S  S373  1  0.00105000  0.52427000  0.90468000  1
  S  S374  1  0.76577000  0.41377000  0.99877000  1
  S  S375  1  0.50065000  0.49399000  0.09489000  1
  N  N376  1  0.99327000  0.60368000  0.76453000  1
  N  N377  1  0.01541000  0.94986000  0.75452000  1
  N  N378  1  0.76132000  0.52085000  0.67346000  1
  N  N379  1  0.74661000  0.46123000  0.32675000  1
  N  N380  1  0.00673000  0.10368000  0.73547000  1
  N  N381  1  0.98459000  0.44986000  0.74548000  1
  N  N382  1  0.23869000  0.02085000  0.82653000  1
  N  N383  1  0.25340000  0.96123000  0.17326000  1
  N  N384  1  0.49332000  0.89635000  0.23553000  1
  N  N385  1  0.51536000  0.55013000  0.24554000  1
  N  N386  1  0.26144000  0.97917000  0.32653000  1
  N  N387  1  0.24629000  0.03885000  0.67302000  1
  N  N388  1  0.50669000  0.39635000  0.26447000  1
  N  N389  1  0.48465000  0.05013000  0.25446000  1
  N  N390  1  0.73856000  0.47917000  0.17347000  1
  N  N391  1  0.75371000  0.53885000  0.82697000  1
  N  N392  1  0.00673000  0.39632000  0.23547000  1
  N  N393  1  0.98459000  0.05015000  0.24548000  1
  N  N394  1  0.23869000  0.47915000  0.32653000  1
  N  N395  1  0.25339000  0.53877000  0.67325000  1
  N  N396  1  0.99327000  0.89632000  0.26453000  1
  N  N397  1  0.01542000  0.55014000  0.25452000  1
  N  N398  1  0.76132000  0.97916000  0.17347000  1
  N  N399  1  0.74661000  0.03877000  0.82674000  1
  N  N400  1  0.50669000  0.10366000  0.76447000  1
  N  N401  1  0.48465000  0.44988000  0.75446000  1
  N  N402  1  0.73856000  0.02083000  0.67347000  1
  N  N403  1  0.75371000  0.96115000  0.32698000  1
  N  N404  1  0.49331000  0.60366000  0.73553000  1
  N  N405  1  0.51536000  0.94988000  0.74554000  1
  N  N406  1  0.26144000  0.52083000  0.82653000  1
  N  N407  1  0.24629000  0.46115000  0.17303000  1
