# generated using pymatgen
data_Cr3H19C29O16
_symmetry_space_group_name_H-M   'P 1'
_cell_length_a   10.89406000
_cell_length_b   10.91840876
_cell_length_c   18.77854000
_cell_angle_alpha   89.85097146
_cell_angle_beta   89.99887000
_cell_angle_gamma   60.19899127
_symmetry_Int_Tables_number   1
_chemical_formula_structural   Cr3H19C29O16
_chemical_formula_sum   'Cr6 H38 C58 O32'
_cell_volume   1938.23743175
_cell_formula_units_Z   2
loop_
 _symmetry_equiv_pos_site_id
 _symmetry_equiv_pos_as_xyz
  1  'x, y, z'
loop_
 _atom_site_type_symbol
 _atom_site_label
 _atom_site_symmetry_multiplicity
 _atom_site_fract_x
 _atom_site_fract_y
 _atom_site_fract_z
 _atom_site_occupancy
  C  C0  1  0.10830000  0.53926000  0.14622000  1
  C  C1  1  0.98112000  0.02916000  0.03501000  1
  C  C2  1  0.76599000  0.01240000  0.03668000  1
  C  C3  1  0.54795000  0.99878000  0.03554000  1
  C  C4  1  0.55560000  0.98578000  0.96159000  1
  C  C5  1  0.37986500  0.80944000  0.43306500  1
  C  C6  1  0.22232000  0.88391000  0.45026000  1
  C  C7  1  0.16032000  0.04281000  0.45532500  1
  C  C8  1  0.09399000  0.26167000  0.60981500  1
  C  C9  1  0.16504000  0.12229000  0.65138500  1
  C  C10  1  0.00600000  0.98232000  0.96500000  1
  C  C11  1  0.05823000  0.09892000  0.69301500  1
  C  C12  1  0.56329000  0.60368000  0.03762000  1
  C  C13  1  0.17224000  0.39242000  0.96286000  1
  C  C14  1  0.55271000  0.59994000  0.96400000  1
  C  C15  1  0.15864500  0.39665000  0.03657000  1
  C  C16  1  0.64738000  0.46092000  0.85372000  1
  C  C17  1  0.66838500  0.49916000  0.92446000  1
  C  C18  1  0.16639000  0.50262000  0.07519000  1
  C  C19  1  0.79674000  0.40978000  0.95811000  1
  C  C20  1  0.19670000  0.59775000  0.04044000  1
  C  C21  1  0.80559000  0.41022000  0.03082000  1
  C  C22  1  0.20410000  0.59730000  0.96775000  1
  C  C23  1  0.68900000  0.50600000  0.07138000  1
  C  C24  1  0.19187000  0.49514000  0.92811000  1
  C  C25  1  0.54062000  0.03008000  0.45805000  1
  C  C26  1  0.53546000  0.03574000  0.53095000  1
  C  C27  1  0.64834000  0.02856000  0.57023000  1
  C  C28  1  0.66412000  0.00332000  0.42261000  1
  C  C29  1  0.68519000  0.93910000  0.14658000  1
  C  C30  1  0.62525000  0.05942000  0.85279000  1
  C  C31  1  0.76779000  0.01448000  0.53459000  1
  C  C32  1  0.90848000  0.95870000  0.92822000  1
  C  C33  1  0.77459000  0.00422000  0.46052000  1
  C  C34  1  0.76097000  0.35532000  0.45544000  1
  C  C35  1  0.09574500  0.64718000  0.54831000  1
  C  C36  1  0.74140000  0.33538000  0.52603000  1
  C  C37  1  0.05921500  0.66692000  0.47710000  1
  C  C38  1  0.86149000  0.04698000  0.07118000  1
  C  C39  1  0.62534000  0.43872000  0.56325000  1
  C  C40  1  0.06850500  0.55618000  0.43631500  1
  C  C41  1  0.51658000  0.55251000  0.52550000  1
  C  C42  1  0.10288000  0.42742000  0.46932000  1
  C  C43  1  0.53521500  0.57257000  0.45297500  1
  C  C44  1  0.14146000  0.40549000  0.54109000  1
  C  C45  1  0.66383000  0.47878000  0.41981000  1
  C  C46  1  0.14675000  0.51394000  0.57958000  1
  C  C47  1  0.71331000  0.51880000  0.14605000  1
  C  C48  1  0.23114000  0.48148000  0.85372000  1
  C  C49  1  0.04161000  0.57776000  0.35977000  1
  C  C50  1  0.61912000  0.42112000  0.64035000  1
  C  C51  1  0.68779500  0.93943000  0.35246000  1
  C  C52  1  0.62264000  0.06820000  0.64494000  1
  C  C53  1  0.70985000  0.51378000  0.35302000  1
  C  C54  1  0.22592000  0.48442000  0.64633000  1
  C  C55  1  0.66422000  0.99286000  0.92423000  1
  C  C56  1  0.65873000  0.00080000  0.07392000  1
  C  C57  1  0.77986000  0.98690000  0.96216000  1
  Cr  Cr58  1  0.94164000  0.45600000  0.25011000  1
  Cr  Cr59  1  0.39395000  0.23334000  0.74916000  1
  Cr  Cr60  1  0.62729000  0.76666000  0.25084000  1
  Cr  Cr61  1  0.39764000  0.54400000  0.74989000  1
  Cr  Cr62  1  0.93831000  0.77008000  0.24926000  1
  Cr  Cr63  1  0.70839000  0.22992000  0.75074000  1
  H  H64  1  0.85684000  0.27686000  0.42987000  1
  H  H65  1  0.10754500  0.34112000  0.43891000  1
  H  H66  1  0.41881500  0.62516000  0.55194000  1
  H  H67  1  0.10251000  0.96372000  0.93901000  1
  H  H68  1  0.05543000  0.05254000  0.06145000  1
  H  H69  1  0.47394500  0.68133000  0.06796000  1
  H  H70  1  0.16750000  0.30980000  0.93329000  1
  H  H71  1  0.09427500  0.73358000  0.57728000  1
  H  H72  1  0.45270500  0.67059000  0.93863000  1
  H  H73  1  0.13639000  0.32144000  0.06281000  1
  H  H74  1  0.88814000  0.33228000  0.92880000  1
  H  H75  1  0.20513500  0.67955000  0.06887000  1
  H  H76  1  0.90592000  0.33644000  0.05489000  1
  H  H77  1  0.22358000  0.67570000  0.94303500  1
  H  H78  1  0.45089000  0.03684000  0.42986000  1
  H  H79  1  0.44050000  0.04894000  0.55623000  1
  H  H80  1  0.85470000  0.01204000  0.56373000  1
  H  H81  1  0.86765500  0.99151000  0.43324000  1
  H  H82  1  0.40658000  0.94184000  0.04989000  1
  H  H83  1  0.36094000  0.03246000  0.94514000  1
  H  H84  1  0.39638500  0.86360000  0.38706500  1
  H  H85  1  0.43920500  0.81892000  0.47928500  1
  H  H86  1  0.16517000  0.86183000  0.40771000  1
  H  H87  1  0.20671000  0.84323000  0.50172500  1
  H  H88  1  0.22863500  0.06792000  0.48860500  1
  H  H89  1  0.82081500  0.24104000  0.55231000  1
  H  H90  1  0.05417000  0.08971000  0.47998000  1
  H  H91  1  0.15078000  0.08905000  0.40146500  1
  H  H92  1  0.01243000  0.26370000  0.57392500  1
  H  H93  1  0.04210500  0.35021000  0.64859000  1
  H  H94  1  0.22272500  0.03265000  0.61416500  1
  H  H95  1  0.24298500  0.12285000  0.68931000  1
  H  H96  1  0.00008500  0.18620000  0.73144000  1
  H  H97  1  0.11452000  0.99822000  0.72321500  1
  H  H98  1  0.98239000  0.09213000  0.65601500  1
  H  H99  1  0.03027500  0.76692000  0.45286000  1
  H  H100  1  0.89431000  0.84956000  0.85052000  1
  H  H101  1  0.73431000  0.15428000  0.14785000  1
  O  O102  1  0.83023000  0.42492000  0.17047000  1
  O  O103  1  0.50523000  0.09174000  0.66916000  1
  O  O104  1  0.59697000  0.90826000  0.33084000  1
  O  O105  1  0.64064000  0.63732000  0.32551000  1
  O  O106  1  0.27796000  0.36268000  0.67449000  1
  O  O107  1  0.83575000  0.66424000  0.25007000  1
  O  O108  1  0.49999000  0.33576000  0.74993000  1
  O  O109  1  0.25515000  0.57508000  0.82953000  1
  O  O110  1  0.05782000  0.46868000  0.17505000  1
  O  O111  1  0.52650000  0.53132000  0.82495000  1
  O  O112  1  0.07917000  0.65962000  0.16855000  1
  O  O113  1  0.73879000  0.34038000  0.83145000  1
  O  O114  1  0.80803000  0.88684000  0.17516000  1
  O  O115  1  0.69487000  0.11316000  0.82484000  1
  O  O116  1  0.59543000  0.90816000  0.17032000  1
  O  O117  1  0.50359000  0.09184000  0.82968000  1
  O  O118  1  0.63923000  0.63722000  0.17671000  1
  O  O119  1  0.27645000  0.36278000  0.82329000  1
  O  O120  1  0.83178000  0.42500000  0.33099000  1
  O  O121  1  0.25678000  0.57500000  0.66901000  1
  O  O122  1  0.05924000  0.46878000  0.32386000  1
  O  O123  1  0.52802000  0.53122000  0.67614000  1
  O  O124  1  0.08071000  0.65972000  0.32908000  1
  O  O125  1  0.80946000  0.88692000  0.32397000  1
  O  O126  1  0.74043000  0.34028000  0.67092000  1
  O  O127  1  0.43247000  0.00864000  0.07148000  1
  O  O128  1  0.45534000  0.96884000  0.92445000  1
  O  O129  1  0.42383000  0.66976000  0.41180000  1
  O  O130  1  0.19758500  0.27084000  0.56872000  1
  O  O131  1  0.69638000  0.11308000  0.67603000  1
  O  O132  1  0.94761000  0.89892000  0.86149000  1
  O  O133  1  0.83704000  0.10772000  0.13781000  1
