# generated using pymatgen
data_HC5N2
_symmetry_space_group_name_H-M   'P 1'
_cell_length_a   9.93020000
_cell_length_b   22.35150000
_cell_length_c   84.86590000
_cell_angle_alpha   90.00000000
_cell_angle_beta   90.00000000
_cell_angle_gamma   90.00000000
_symmetry_Int_Tables_number   1
_chemical_formula_structural   HC5N2
_chemical_formula_sum   'H60 C300 N120'
_cell_volume   18836.39940306
_cell_formula_units_Z   60
loop_
 _symmetry_equiv_pos_site_id
 _symmetry_equiv_pos_as_xyz
  1  'x, y, z'
loop_
 _atom_site_type_symbol
 _atom_site_label
 _atom_site_symmetry_multiplicity
 _atom_site_fract_x
 _atom_site_fract_y
 _atom_site_fract_z
 _atom_site_occupancy
  C  1  1  0.01018100  0.86862700  0.69700500  1
  C  2  1  0.00743300  0.83244500  0.68351800  1
  C  3  1  0.00278100  0.76958200  0.68494800  1
  C  4  1  0.00559900  0.74334700  0.70014700  1
  C  5  1  0.00998000  0.77976900  0.71385400  1
  C  6  1  0.01077100  0.84249700  0.71203300  1
  C  10  1  0.02108800  0.11739800  0.29388200  1
  C  11  1  0.02159000  0.15300600  0.30749500  1
  C  12  1  0.02094300  0.21604400  0.30642100  1
  C  13  1  0.01475400  0.24312000  0.29132200  1
  C  14  1  0.01371600  0.20756600  0.27745400  1
  C  15  1  0.01574000  0.14476400  0.27901500  1
  C  19  1  0.97511800  0.86953000  0.29503700  1
  C  20  1  0.96649800  0.83511600  0.30881800  1
  C  21  1  0.95777600  0.77210500  0.30819800  1
  C  22  1  0.96152300  0.74367300  0.29322900  1
  C  23  1  0.96834900  0.77796500  0.27914200  1
  C  24  1  0.97653700  0.84080200  0.28032800  1
  C  28  1  0.97340700  0.11551000  0.69842500  1
  C  29  1  0.97096800  0.15195400  0.68499800  1
  C  30  1  0.96676800  0.21484000  0.68641700  1
  C  31  1  0.97095700  0.24066000  0.70169800  1
  C  32  1  0.97303100  0.20403600  0.71541000  1
  C  33  1  0.97354700  0.14132000  0.71349400  1
  C  37  1  0.00354700  0.36871800  0.19698300  1
  C  38  1  0.00719100  0.33246600  0.18350000  1
  C  39  1  0.00481300  0.26959500  0.18492100  1
  C  40  1  0.00439100  0.24335800  0.20011700  1
  C  41  1  0.00143000  0.27974000  0.21383500  1
  C  42  1  0.99957800  0.34245600  0.21200000  1
  C  46  1  0.01364800  0.61818200  0.79382100  1
  C  47  1  0.01810800  0.65355000  0.80746800  1
  C  48  1  0.01898300  0.71658200  0.80643600  1
  C  49  1  0.01076500  0.74384800  0.79138000  1
  C  50  1  0.00358500  0.70850200  0.77750100  1
  C  51  1  0.00513700  0.64567100  0.77898400  1
  C  55  1  0.97884400  0.36992400  0.79510700  1
  C  56  1  0.96709200  0.33558400  0.80886400  1
  C  57  1  0.95898300  0.27258200  0.80824200  1
  C  58  1  0.96638600  0.24415600  0.79329300  1
  C  59  1  0.97931800  0.27807100  0.77917700  1
  C  60  1  0.98559600  0.34101300  0.78044100  1
  C  64  1  0.98198400  0.61628100  0.19855100  1
  C  65  1  0.97594800  0.65246300  0.18508700  1
  C  66  1  0.96899300  0.71531600  0.18644300  1
  C  67  1  0.97286200  0.74142700  0.20168800  1
  C  68  1  0.98051300  0.70518300  0.21544500  1
  C  69  1  0.98443000  0.64246700  0.21358000  1
  C  73  1  0.01724100  0.79518600  0.86898600  1
  C  74  1  0.01935700  0.74978800  0.88043600  1
  C  75  1  0.99550800  0.76056200  0.89669400  1
  C  76  1  0.98321200  0.82183900  0.90135800  1
  C  77  1  0.96980000  0.86875600  0.89006100  1
  C  78  1  0.98911500  0.85356800  0.87397500  1
  C  82  1  0.02054500  0.18921800  0.12282800  1
  C  83  1  0.99888400  0.23517000  0.11186700  1
  C  84  1  0.98823000  0.22504600  0.09539800  1
  C  85  1  0.00209600  0.16392200  0.09038000  1
  C  86  1  0.02760300  0.11530800  0.10101000  1
  C  87  1  0.03657600  0.13071200  0.11726000  1
  C  91  1  0.97006000  0.79047000  0.12358300  1
  C  92  1  0.96773600  0.74413400  0.11237500  1
  C  93  1  0.99163600  0.75313100  0.09603100  1
  C  94  1  0.00467400  0.81434800  0.09108000  1
  C  95  1  0.01824700  0.86258100  0.10208400  1
  C  96  1  0.99855000  0.84840000  0.11823900  1
  C  100  1  0.95232800  0.19830900  0.87148800  1
  C  101  1  0.96212700  0.24231000  0.88326800  1
  C  102  1  0.97314300  0.22905000  0.89967200  1
  C  103  1  0.97729100  0.16675800  0.90364300  1
  C  104  1  0.96011100  0.12030000  0.89225600  1
  C  105  1  0.95102000  0.13836200  0.87622400  1
  C  109  1  0.01268800  0.29483000  0.36895600  1
  C  110  1  0.01422000  0.24947800  0.38042100  1
  C  111  1  0.99123000  0.26040800  0.39668900  1
  C  112  1  0.98005200  0.32175400  0.40133500  1
  C  113  1  0.96678000  0.36863100  0.39002300  1
  C  114  1  0.98555500  0.35331400  0.37393600  1
  C  118  1  0.01510600  0.68879000  0.62284200  1
  C  119  1  0.99372800  0.73475500  0.61186500  1
  C  120  1  0.98482300  0.72476300  0.59537400  1
  C  121  1  0.99992633  0.66371300  0.59034400  1
  C  122  1  0.02510500  0.61511300  0.60098200  1
  C  123  1  0.03240300  0.63037700  0.61724800  1
  C  127  1  0.97418200  0.29031200  0.62359800  1
  C  128  1  0.97155300  0.24397400  0.61239200  1
  C  129  1  0.99476400  0.25298100  0.59603700  1
  C  130  1  0.00764300  0.31420800  0.59109200  1
  C  131  1  0.02118800  0.36248600  0.60208300  1
  C  132  1  0.00227700  0.34827200  0.61825100  1
  C  136  1  0.95578000  0.69823100  0.37146200  1
  C  137  1  0.96535000  0.74222800  0.38324600  1
  C  138  1  0.97549900  0.72896300  0.39965600  1
  C  139  1  0.97909400  0.66667133  0.40363400  1
  C  140  1  0.96205600  0.62023600  0.39223700  1
  C  141  1  0.95389800  0.63828800  0.37619800  1
  C  145  1  0.99590100  0.55722500  0.93799000  1
  C  146  1  0.99250800  0.50147400  0.92986200  1
  C  147  1  0.98461200  0.44415400  0.93705700  1
  C  148  1  0.99017200  0.44395700  0.95378000  1
  C  149  1  0.99190500  0.49754200  0.96277700  1
  C  150  1  0.99640600  0.55298700  0.95464400  1
  C  154  1  0.99452200  0.43250000  0.05520000  1
  C  155  1  0.98906400  0.48921200  0.06298500  1
  C  156  1  0.98952800  0.54614700  0.05524100  1
  C  157  1  0.99400900  0.54361000  0.03852500  1
  C  158  1  0.00108800  0.48925600  0.02995700  1
  C  159  1  0.00050400  0.43491000  0.03852300  1
  C  163  1  0.99456200  0.05715600  0.43799700  1
  C  164  1  0.99154200  0.00142800  0.42985900  1
  C  165  1  0.98451300  0.94407600  0.43705200  1
  C  166  1  0.99041000  0.94387400  0.45377500  1
  C  167  1  0.99159200  0.99745000  0.46277900  1
  C  168  1  0.99550800  0.05291400  0.45464900  1
  C  172  1  0.99443200  0.93233700  0.55521200  1
  C  173  1  0.98935600  0.98905300  0.56300000  1
  C  174  1  0.99026300  0.04598400  0.55525300  1
  C  175  1  0.99477300  0.04343800  0.53853700  1
  C  176  1  0.00138000  0.98907100  0.52996800  1
  C  177  1  0.00043500  0.93473000  0.53853400  1
  C  181  1  0.00171200  0.73197500  0.76194100  1
  C  183  1  0.91055800  0.71813700  0.73580300  1
  C  184  1  0.00840800  0.75751100  0.72953300  1
  C  186  1  0.09951700  0.77134400  0.75565600  1
  C  187  1  0.19622000  0.79579400  0.76373300  1
  C  188  1  0.81432400  0.69350700  0.72768800  1
  C  191  1  0.00246900  0.25724400  0.22950500  1
  C  193  1  0.91578300  0.27162400  0.25584700  1
  C  194  1  0.01144900  0.23067400  0.26185400  1
  C  196  1  0.09813400  0.21629800  0.23552900  1
  C  197  1  0.19154700  0.19036800  0.22724500  1
  C  198  1  0.82259100  0.29731600  0.26421300  1
  C  201  1  0.97777400  0.72736600  0.23120100  1
  C  203  1  0.06544800  0.71371100  0.25756700  1
  C  204  1  0.96803600  0.75370000  0.26364000  1
  C  206  1  0.88005200  0.76718500  0.23732800  1
  C  207  1  0.78466000  0.79189400  0.22909900  1
  C  208  1  0.16027500  0.68917900  0.26592500  1
  C  211  1  0.98107700  0.25366100  0.76360800  1
  C  213  1  0.06923600  0.26762000  0.73723500  1
  C  214  1  0.97493600  0.22620400  0.73115100  1
  C  216  1  0.88781600  0.21170200  0.75750700  1
  C  217  1  0.79402300  0.18566600  0.76569600  1
  C  218  1  0.16187100  0.29400200  0.72893100  1
  C  221  1  0.97565000  0.05334800  0.69683500  1
  C  223  1  0.11427900  0.96797000  0.69226000  1
  C  224  1  0.00295300  0.93078900  0.69571400  1
  C  226  1  0.86408300  0.01613400  0.70017000  1
  C  227  1  0.74453200  0.03545200  0.70386800  1
  C  228  1  0.23516700  0.94842900  0.68934500  1
  C  231  1  0.98576100  0.93206800  0.29584200  1
  C  233  1  0.11316100  0.01678400  0.28735800  1
  C  234  1  0.01992000  0.05484200  0.29501800  1
  C  236  1  0.89356000  0.97010900  0.30370100  1
  C  237  1  0.78451700  0.95220400  0.31077900  1
  C  238  1  0.21966500  0.03478600  0.27977900  1
  C  241  1  0.97988100  0.55401700  0.19705200  1
  C  243  1  0.10794600  0.46703000  0.19067300  1
  C  244  1  0.99892400  0.43104800  0.19570400  1
  C  246  1  0.87011400  0.51803200  0.20185000  1
  C  247  1  0.75544500  0.53856000  0.20695400  1
  C  248  1  0.22438900  0.44622000  0.18627100  1
  C  251  1  0.98643600  0.43260600  0.79588300  1
  C  253  1  0.11057200  0.51843000  0.78747900  1
  C  254  1  0.01451300  0.55566700  0.79492800  1
  C  256  1  0.89134200  0.46991500  0.80351800  1
  C  257  1  0.78193800  0.45115600  0.81036300  1
  C  258  1  0.21703700  0.53742800  0.78006600  1
  C  261  1  0.01308200  0.70115600  0.63925200  1
  C  263  1  0.88192800  0.74199900  0.66039800  1
  C  264  1  0.99305300  0.73628600  0.67080900  1
  C  266  1  0.12259700  0.69324500  0.64976400  1
  C  267  1  0.24056900  0.67409000  0.64543900  1
  C  268  1  0.76676400  0.76573900  0.66424500  1
  C  271  1  0.02812800  0.28166000  0.35265500  1
  C  273  1  0.92172300  0.28330600  0.32712400  1
  C  274  1  0.02760400  0.24831000  0.32080000  1
  C  276  1  0.13641300  0.24866000  0.34615200  1
  C  277  1  0.24149800  0.23084400  0.35400100  1
  C  278  1  0.81329200  0.29745600  0.31937700  1
  C  281  1  0.94558300  0.71296800  0.35517000  1
  C  283  1  0.04224400  0.70166200  0.32924600  1
  C  284  1  0.94636600  0.74199500  0.32292700  1
  C  286  1  0.84660500  0.75147100  0.34874100  1
  C  287  1  0.75013900  0.77648500  0.35675100  1
  C  288  1  0.14275800  0.67997600  0.32126700  1
  C  291  1  0.95822900  0.27868000  0.64001500  1
  C  293  1  0.06454200  0.28191400  0.66557800  1
  C  294  1  0.95817800  0.24780400  0.67213000  1
  C  296  1  0.84935000  0.24666800  0.64673300  1
  C  297  1  0.74418000  0.22836000  0.63897900  1
  C  298  1  0.17330900  0.29612800  0.67324900  1
  C  301  1  0.01879300  0.20158800  0.13922200  1
  C  303  1  0.88529100  0.23959700  0.16052000  1
  C  304  1  0.99789100  0.23625200  0.17077500  1
  C  306  1  0.13025500  0.19632200  0.14956000  1
  C  307  1  0.24969300  0.17976000  0.14504700  1
  C  308  1  0.76818100  0.26099000  0.16451300  1
  C  311  1  0.03145300  0.78206000  0.85266900  1
  C  313  1  0.92215900  0.78352700  0.82731600  1
  C  314  1  0.02763300  0.74876900  0.82080300  1
  C  316  1  0.13913200  0.74913600  0.84600400  1
  C  317  1  0.24513200  0.73147700  0.85370800  1
  C  318  1  0.81257800  0.79744500  0.81976300  1
  C  321  1  0.94268100  0.21305000  0.85519000  1
  C  323  1  0.04080600  0.20175400  0.82934400  1
  C  324  1  0.94596400  0.24243600  0.82295700  1
  C  326  1  0.84453700  0.25181800  0.84869800  1
  C  327  1  0.74790200  0.27698000  0.85664800  1
  C  328  1  0.14168800  0.17988000  0.82146400  1
  C  331  1  0.95490500  0.77881600  0.14001100  1
  C  333  1  0.06267800  0.78280600  0.16548200  1
  C  334  1  0.95790800  0.74801900  0.17214200  1
  C  336  1  0.84757700  0.74607700  0.14683000  1
  C  337  1  0.74249200  0.72713800  0.13916600  1
  C  338  1  0.17153700  0.79775100  0.17303700  1
  C  341  1  0.98653800  0.71087800  0.90731500  1
  C  343  1  0.02395000  0.67261800  0.93386400  1
  C  344  1  0.99557100  0.61242700  0.92927300  1
  C  346  1  0.94739300  0.65165600  0.90307900  1
  C  347  1  0.88708200  0.63484300  0.89019600  1
  C  348  1  0.06841900  0.68892900  0.94757600  1
  C  351  1  0.97456200  0.27569600  0.08504200  1
  C  353  1  0.02956700  0.31788400  0.05931400  1
  C  354  1  0.99086000  0.37708900  0.06386000  1
  C  356  1  0.92559000  0.33387000  0.08908400  1
  C  357  1  0.85310500  0.34767200  0.10132500  1
  C  358  1  0.08923400  0.30364400  0.04624300  1
  C  361  1  0.99841100  0.70189900  0.08575800  1
  C  363  1  0.96339500  0.66181300  0.05928400  1
  C  364  1  0.98900300  0.60141000  0.06405400  1
  C  366  1  0.03136100  0.64203800  0.09028900  1
  C  367  1  0.08820600  0.62525700  0.10338000  1
  C  368  1  0.92073900  0.67816500  0.04549100  1
  C  371  1  0.97618600  0.27843400  0.91058500  1
  C  373  1  0.92972100  0.38592000  0.91204100  1
  C  374  1  0.97460800  0.39014400  0.92793900  1
  C  376  1  0.01178400  0.28179400  0.92683600  1
  C  377  1  0.05850800  0.23748400  0.93504700  1
  C  378  1  0.86812100  0.42663400  0.90379000  1
  C  381  1  0.98264900  0.21079200  0.40733800  1
  C  383  1  0.02212500  0.17253400  0.43384700  1
  C  384  1  0.99329400  0.11236000  0.42928400  1
  C  386  1  0.94287700  0.15159600  0.40315300  1
  C  387  1  0.88137300  0.13485400  0.39034100  1
  C  388  1  0.06796400  0.18875800  0.44750300  1
  C  391  1  0.97199400  0.77547300  0.58501900  1
  C  393  1  0.02905400  0.81774100  0.55935500  1
  C  394  1  0.99012200  0.87694000  0.56387200  1
  C  396  1  0.92303300  0.83369100  0.58902600  1
  C  397  1  0.84971100  0.84752800  0.60119700  1
  C  398  1  0.08972700  0.80357100  0.54634100  1
  C  401  1  0.00100900  0.20175000  0.58575700  1
  C  403  1  0.96474500  0.16166200  0.55930300  1
  C  404  1  0.99036300  0.10124600  0.56406300  1
  C  406  1  0.03391900  0.14186100  0.59027100  1
  C  407  1  0.09133900  0.12507000  0.60332700  1
  C  408  1  0.92148200  0.17799200  0.54553600  1
  C  411  1  0.97804800  0.77835000  0.41056900  1
  C  413  1  0.93054100  0.88574000  0.41201800  1
  C  414  1  0.97511600  0.89004900  0.42792800  1
  C  416  1  0.01314300  0.78174100  0.42683200  1
  C  417  1  0.06008000  0.73747600  0.43504300  1
  C  418  1  0.86872300  0.92631900  0.40374400  1
  C  421  1  0.94173500  0.92993500  0.89359900  1
  C  423  1  0.01082700  0.02088400  0.90714900  1
  C  424  1  0.95085800  0.05740200  0.89531400  1
  C  426  1  0.86233000  0.96660500  0.88356900  1
  C  427  1  0.77534300  0.94825900  0.87312700  1
  C  428  1  0.09031100  0.04174200  0.91796900  1
  C  431  1  0.03868000  0.05259200  0.09738700  1
  C  433  1  0.12863400  0.96029300  0.10837300  1
  C  434  1  0.04652800  0.92404600  0.09849000  1
  C  436  1  0.97551000  0.01661600  0.08563100  1
  C  437  1  0.89465500  0.03862000  0.07511600  1
  C  438  1  0.21699600  0.94111500  0.11855100  1
  C  441  1  0.94002200  0.42992600  0.39356800  1
  C  443  1  0.01084600  0.52061800  0.40713200  1
  C  444  1  0.95163100  0.55737200  0.39529300  1
  C  446  1  0.86154600  0.46693600  0.38352100  1
  C  447  1  0.77411200  0.44897600  0.37308200  1
  C  448  1  0.09025100  0.54129500  0.41798200  1
  C  451  1  0.03813800  0.55251400  0.59732900  1
  C  453  1  0.13000700  0.46063200  0.60831800  1
  C  454  1  0.04861100  0.42399800  0.59845100  1
  C  456  1  0.97545900  0.51631000  0.58559100  1
  C  457  1  0.89329500  0.53789200  0.57515500  1
  C  458  1  0.21894000  0.44183200  0.61847700  1
  C  461  1  0.00326300  0.48952000  0.01301800  1
  C  463  1  0.90346700  0.53100700  0.98946600  1
  C  464  1  0.98872200  0.49590800  0.97968900  1
  C  466  1  0.08834700  0.45436400  0.00323700  1
  C  467  1  0.18467900  0.42032100  0.00843800  1
  C  468  1  0.80871700  0.56604800  0.98429900  1
  C  471  1  0.00339500  0.98934800  0.51302800  1
  C  473  1  0.90327700  0.03081200  0.48949200  1
  C  474  1  0.98854200  0.99578600  0.47969500  1
  C  476  1  0.08834700  0.95419100  0.50323100  1
  C  477  1  0.18467000  0.92011800  0.50842100  1
  C  478  1  0.80854400  0.06590600  0.48434400  1
  H  7  1  0.00348600  0.69770800  0.70121600  1
  H  8  1  0.00937900  0.86986100  0.72177000  1
  H  9  1  0.00490400  0.85225600  0.67259400  1
  H  16  1  0.01655600  0.28881300  0.29042300  1
  H  17  1  0.00997900  0.11816200  0.26916000  1
  H  18  1  0.02405000  0.13248400  0.31832900  1
  H  25  1  0.95350600  0.69806100  0.29256400  1
  H  26  1  0.98353000  0.86641900  0.27030000  1
  H  27  1  0.96979000  0.85656500  0.31952000  1
  H  34  1  0.96696900  0.28624000  0.70283300  1
  H  35  1  0.97751300  0.11374200  0.72317500  1
  H  36  1  0.97056500  0.13216200  0.67406400  1
  H  43  1  0.00137200  0.19771800  0.20116300  1
  H  44  1  0.99939700  0.36978300  0.22174400  1
  H  45  1  0.00705100  0.35218600  0.17256100  1
  H  52  1  0.01065600  0.78956300  0.79053400  1
  H  53  1  0.00167400  0.61917500  0.76909600  1
  H  54  1  0.02276900  0.63288800  0.81827200  1
  H  61  1  0.96194500  0.19845400  0.79271300  1
  H  62  1  0.99050400  0.36688400  0.77044800  1
  H  63  1  0.96734400  0.35712600  0.81955900  1
  H  70  1  0.96898900  0.78703000  0.20275100  1
  H  71  1  0.98624500  0.61503200  0.22329700  1
  H  72  1  0.97371800  0.63247300  0.17418200  1
  H  79  1  0.96637500  0.83169900  0.91297700  1
  H  80  1  0.99293100  0.88652200  0.86557500  1
  H  81  1  0.04346400  0.70777800  0.87664800  1
  H  88  1  0.99750300  0.15486600  0.07858400  1
  H  89  1  0.04601300  0.09801600  0.12568100  1
  H  90  1  0.00236800  0.27760200  0.11626000  1
  H  97  1  0.02163300  0.82323000  0.07941400  1
  H  98  1  0.99493700  0.88197100  0.12647600  1
  H  99  1  0.94251400  0.70268600  0.11643700  1
  H  106  1  0.97678700  0.15475200  0.91521000  1
  H  107  1  0.94546900  0.10691400  0.86743000  1
  H  108  1  0.96626500  0.28573000  0.87942500  1
  H  115  1  0.96373800  0.33164200  0.41296200  1
  H  116  1  0.98999100  0.38621600  0.36552500  1
  H  117  1  0.03789500  0.20740000  0.37664600  1
  H  124  1  0.99654600  0.65469500  0.57853800  1
  H  125  1  0.04160000  0.59760300  0.62565200  1
  H  126  1  0.99702200  0.77715700  0.61627700  1
  H  133  1  0.02347600  0.32313800  0.57940700  1
  H  134  1  0.99855000  0.38181800  0.62649300  1
  H  135  1  0.94624600  0.20254800  0.61646500  1
  H  142  1  0.97797700  0.65463200  0.41520100  1
  H  143  1  0.94822500  0.60684500  0.36740500  1
  H  144  1  0.96960800  0.78565200  0.37940700  1
  H  151  1  0.98438000  0.40392000  0.95963600  1
  H  152  1  0.99675700  0.59109200  0.96118600  1
  H  153  1  0.00874100  0.50266800  0.91802100  1
  H  160  1  0.00187600  0.58216200  0.03221600  1
  H  161  1  0.99300200  0.39624600  0.03221200  1
  H  162  1  0.98530900  0.48893400  0.07503300  1
  H  169  1  0.98487500  0.90382400  0.45962700  1
  H  170  1  0.99552500  0.09104200  0.46118900  1
  H  171  1  0.00774000  0.00271600  0.41801900  1
  H  178  1  0.00270900  0.08200400  0.53223100  1
  H  179  1  0.99292500  0.89603900  0.53223100  1
  H  180  1  0.98558100  0.98877900  0.57504800  1
  N  182  1  0.91322400  0.70721100  0.75151700  1
  N  185  1  0.09700800  0.78219500  0.73994400  1
  N  189  1  0.72922300  0.67185200  0.72051700  1
  N  190  1  0.28167600  0.81729200  0.77087700  1
  N  192  1  0.91704300  0.28288000  0.24014000  1
  N  195  1  0.09687900  0.20514000  0.25121800  1
  N  199  1  0.74011800  0.31993400  0.27159400  1
  N  200  1  0.27407200  0.16747800  0.21993000  1
  N  202  1  0.06455000  0.70257000  0.24183800  1
  N  205  1  0.88128400  0.77851500  0.25303300  1
  N  209  1  0.24426600  0.66767500  0.27330100  1
  N  210  1  0.70017900  0.81356600  0.22183300  1
  N  212  1  0.06637500  0.27920800  0.75292400  1
  N  215  1  0.89018400  0.20023200  0.74180000  1
  N  219  1  0.24375400  0.31725400  0.72159700  1
  N  220  1  0.71109500  0.16263800  0.77291700  1
  N  222  1  0.09566400  0.02785000  0.69314400  1
  N  225  1  0.88341800  0.95633500  0.69957100  1
  N  229  1  0.34185600  0.93094900  0.68688600  1
  N  230  1  0.63905000  0.05269400  0.70704800  1
  N  232  1  0.09128700  0.95724300  0.28812800  1
  N  235  1  0.91420100  0.02978800  0.30272300  1
  N  239  1  0.31352800  0.05087400  0.27310700  1
  N  240  1  0.68823700  0.93620600  0.31697900  1
  N  242  1  0.09380500  0.52712000  0.19175600  1
  N  245  1  0.88544100  0.45806800  0.20107500  1
  N  249  1  0.32722500  0.42756000  0.18251100  1
  N  250  1  0.65425900  0.55694700  0.21136500  1
  N  252  1  0.09159000  0.45870400  0.78830600  1
  N  255  1  0.90908700  0.52977600  0.80249000  1
  N  259  1  0.31090100  0.55442500  0.77355300  1
  N  260  1  0.68537500  0.43438200  0.81635700  1
  N  262  1  0.89786800  0.72495400  0.64519100  1
  N  265  1  0.10892200  0.71317000  0.66481300  1
  N  269  1  0.66539400  0.78671600  0.66769200  1
  N  270  1  0.34468900  0.65727300  0.64156500  1
  N  272  1  0.92641900  0.29745600  0.34269900  1
  N  275  1  0.12912400  0.23282200  0.33077800  1
  N  279  1  0.71742900  0.30972000  0.31253300  1
  N  280  1  0.33414400  0.21512200  0.36095900  1
  N  282  1  0.03769400  0.68961000  0.34496200  1
  N  285  1  0.85388200  0.76458900  0.33319100  1
  N  289  1  0.23173800  0.66101100  0.31421500  1
  N  290  1  0.66515300  0.79860800  0.36383800  1
  N  292  1  0.06011000  0.29484600  0.64991500  1
  N  295  1  0.85664200  0.23186000  0.66218900  1
  N  299  1  0.26932200  0.30848500  0.68005200  1
  N  300  1  0.65147300  0.21219200  0.63210400  1
  N  302  1  0.90163400  0.22286200  0.14529600  1
  N  305  1  0.11582900  0.21590000  0.16463500  1
  N  309  1  0.66508400  0.27989600  0.16808700  1
  N  310  1  0.35510500  0.16526400  0.14100200  1
  N  312  1  0.92850200  0.79766100  0.84287700  1
  N  315  1  0.13023100  0.73330700  0.83063600  1
  N  319  1  0.71573700  0.80943900  0.81307400  1
  N  320  1  0.33862500  0.71594300  0.86053800  1
  N  322  1  0.03513800  0.18959400  0.84504500  1
  N  325  1  0.85303600  0.26509000  0.83316300  1
  N  329  1  0.23092100  0.16075400  0.81448600  1
  N  330  1  0.66275800  0.29922000  0.86368600  1
  N  332  1  0.05683800  0.79562900  0.14982400  1
  N  335  1  0.85632900  0.73136100  0.16228500  1
  N  339  1  0.26762900  0.81073300  0.17974300  1
  N  340  1  0.64983100  0.71042600  0.13237300  1
  N  342  1  0.02008100  0.71734400  0.92283500  1
  N  345  1  0.95491700  0.60798900  0.91402300  1
  N  349  1  0.10839800  0.70435600  0.95960800  1
  N  350  1  0.83312600  0.61949800  0.87892800  1
  N  352  1  0.02217600  0.27206700  0.06998800  1
  N  355  1  0.93774600  0.37942000  0.07861800  1
  N  359  1  0.14238500  0.28957800  0.03481100  1
  N  360  1  0.78832400  0.36031200  0.11203300  1
  N  362  1  0.96794600  0.70726300  0.07012900  1
  N  365  1  0.02453100  0.59742700  0.07949400  1
  N  369  1  0.88210800  0.69369000  0.03340600  1
  N  370  1  0.13920300  0.60992500  0.11483800  1
  N  372  1  0.93403200  0.33211600  0.90481100  1
  N  375  1  0.01096300  0.33618800  0.93432200  1
  N  379  1  0.81292500  0.46193800  0.89637100  1
  N  380  1  0.10057200  0.19896600  0.94252900  1
  N  382  1  0.01751200  0.21725600  0.42281900  1
  N  385  1  0.95130100  0.10791200  0.41408400  1
  N  389  1  0.10914400  0.20408000  0.45948800  1
  N  390  1  0.82634900  0.11959000  0.37913600  1
  N  392  1  0.02080200  0.77190000  0.57001400  1
  N  395  1  0.93606500  0.87927500  0.57858200  1
  N  399  1  0.14377400  0.78959100  0.53495900  1
  N  400  1  0.78418400  0.86020900  0.61183800  1
  N  402  1  0.96988000  0.20711800  0.57014400  1
  N  405  1  0.02646500  0.09724000  0.57948500  1
  N  409  1  0.88231900  0.19348600  0.53347100  1
  N  410  1  0.14287000  0.10973400  0.61475100  1
  N  412  1  0.93551900  0.83195700  0.40478400  1
  N  415  1  0.01177300  0.83614000  0.43431800  1
  N  419  1  0.81333900  0.96149800  0.39630300  1
  N  420  1  0.10232500  0.69897800  0.44251900  1
  N  422  1  0.00892200  0.95978300  0.90529200  1
  N  425  1  0.87465600  0.02630800  0.88482100  1
  N  429  1  0.16102400  0.05984600  0.92755600  1
  N  430  1  0.69876300  0.93220600  0.86390900  1
  N  432  1  0.11666600  0.02025000  0.10745900  1
  N  435  1  0.97715000  0.95519900  0.08718300  1
  N  439  1  0.29467800  0.92434600  0.12755200  1
  N  440  1  0.82292500  0.05785400  0.06578800  1
  N  442  1  0.00764400  0.45953000  0.40526900  1
  N  445  1  0.87499300  0.52658200  0.38478200  1
  N  449  1  0.16088300  0.55924500  0.42759600  1
  N  450  1  0.69711700  0.43326800  0.36387000  1
  N  452  1  0.11679500  0.52053800  0.60740900  1
  N  455  1  0.97821800  0.45491000  0.58718000  1
  N  459  1  0.29715400  0.42540400  0.62745700  1
  N  460  1  0.82045900  0.55680400  0.56590000  1
  N  462  1  0.91467500  0.52586600  0.00537600  1
  N  465  1  0.07741100  0.45953600  0.98730600  1
  N  469  1  0.72520100  0.59704700  0.97972300  1
  N  470  1  0.27092100  0.39069400  0.01294800  1
  N  472  1  0.91470700  0.02568600  0.50540000  1
  N  475  1  0.07729000  0.95939900  0.48730300  1
  N  479  1  0.72502100  0.09694200  0.47978700  1
  N  480  1  0.27089200  0.89046300  0.51292100  1
