# generated using pymatgen
data_H12C15N3O
_symmetry_space_group_name_H-M   'P 1'
_cell_length_a   9.98526667
_cell_length_b   15.11180000
_cell_length_c   15.11180000
_cell_angle_alpha   90.00000000
_cell_angle_beta   90.00000000
_cell_angle_gamma   90.00000000
_symmetry_Int_Tables_number   1
_chemical_formula_structural   H12C15N3O
_chemical_formula_sum   'H24 C30 N6 O2'
_cell_volume   2280.30039264
_cell_formula_units_Z   2
loop_
 _symmetry_equiv_pos_site_id
 _symmetry_equiv_pos_as_xyz
  1  'x, y, z'
loop_
 _atom_site_type_symbol
 _atom_site_label
 _atom_site_symmetry_multiplicity
 _atom_site_fract_x
 _atom_site_fract_y
 _atom_site_fract_z
 _atom_site_occupancy
  C  1  1  0.02511400  0.03213400  0.97285000  1
  C  2  1  0.00473200  0.12412900  0.98570000  1
  C  3  1  0.04844700  0.18731700  0.92285300  1
  C  4  1  0.11181000  0.15646900  0.84512200  1
  C  5  1  0.13290100  0.06552700  0.82932600  1
  C  6  1  0.09062800  0.00451500  0.89436100  1
  C  10  1  0.97991600  0.96833300  0.03638900  1
  C  11  1  0.00113600  0.98061800  0.12836400  1
  C  12  1  0.95781900  0.91745600  0.19134900  1
  C  13  1  0.89381300  0.84004000  0.16033200  1
  C  14  1  0.87188600  0.82478600  0.06939000  1
  C  15  1  0.91395200  0.89006600  0.00856500  1
  C  19  1  0.80727400  0.74162600  0.03833500  1
  C  22  1  0.97477700  0.92695800  0.28894200  1
  C  25  1  0.19675100  0.03462100  0.74584800  1
  C  28  1  0.03258900  0.28494300  0.93299400  1
  C  31  1  0.06294300  0.00569300  0.41584100  1
  C  32  1  0.95506500  0.02224700  0.47407500  1
  C  33  1  0.97132800  0.01418700  0.56515500  1
  C  34  1  0.09430500  0.98951500  0.60323600  1
  C  35  1  0.20341000  0.97371600  0.54557300  1
  C  36  1  0.18807800  0.98251800  0.45302400  1
  C  41  1  0.77025200  0.04891500  0.53477400  1
  C  47  1  0.91200400  0.59903000  0.99459400  1
  C  48  1  0.80362000  0.54055900  0.98115400  1
  C  49  1  0.82073500  0.44953000  0.99024600  1
  C  50  1  0.94540900  0.41183900  0.01205700  1
  C  51  1  0.05394000  0.47039500  0.02685900  1
  C  52  1  0.03724600  0.56276100  0.01852100  1
  C  57  1  0.62023900  0.47885800  0.95315900  1
  H  7  1  0.95549400  0.14518600  0.04111400  1
  H  8  1  0.10861000  0.93861800  0.88407800  1
  H  9  1  0.14265600  0.20145200  0.79868800  1
  H  16  1  0.05095700  0.03576700  0.14952000  1
  H  17  1  0.86320300  0.79340000  0.20517300  1
  H  18  1  0.89546500  0.88013700  0.94267100  1
  H  20  1  0.77542300  0.70147800  0.09488000  1
  H  21  1  0.71659200  0.75818200  0.00118500  1
  H  23  1  0.02916500  0.86831600  0.31181100  1
  H  24  1  0.87455000  0.92513800  0.31829000  1
  H  26  1  0.28755900  0.99737400  0.76186800  1
  H  27  1  0.22814300  0.09128100  0.70570000  1
  H  29  1  0.97852800  0.30843000  0.87445600  1
  H  30  1  0.13316800  0.31383400  0.93144400  1
  H  37  1  0.26749100  0.96876600  0.41254600  1
  H  38  1  0.29387000  0.95450600  0.57078800  1
  H  42  1  0.67143400  0.06361200  0.54405700  1
  H  44  1  0.11766500  0.91242000  0.70965100  1
  H  46  1  0.99866800  0.06309100  0.30437900  1
  H  53  1  0.11796900  0.60341700  0.02772900  1
  H  54  1  0.14650600  0.44573200  0.04200800  1
  H  58  1  0.52263200  0.46888600  0.93564000  1
  H  60  1  0.00944000  0.30025500  0.06912400  1
  H  62  1  0.88390400  0.70384500  0.91590000  1
  N  39  1  0.85324300  0.03097500  0.60233600  1
  N  43  1  0.10106900  0.97807000  0.69586800  1
  N  45  1  0.04753600  0.00612900  0.32256300  1
  N  55  1  0.70378700  0.41170400  0.97161200  1
  N  59  1  0.96017500  0.31850600  0.01233600  1
  N  61  1  0.90241600  0.69138800  0.98159800  1
  O  40  1  0.82695400  0.04413700  0.45240700  1
  O  56  1  0.67626800  0.56150800  0.95695400  1
