# generated using pymatgen
data_H13C17O
_symmetry_space_group_name_H-M   'P 1'
_cell_length_a   9.92513333
_cell_length_b   44.84161117
_cell_length_c   44.84930000
_cell_angle_alpha   119.95699999
_cell_angle_beta   90.00000000
_cell_angle_gamma   90.00000000
_symmetry_Int_Tables_number   1
_chemical_formula_structural   H13C17O
_chemical_formula_sum   'H78 C102 O6'
_cell_volume   17293.85742965
_cell_formula_units_Z   6
loop_
 _symmetry_equiv_pos_site_id
 _symmetry_equiv_pos_as_xyz
  1  'x, y, z'
loop_
 _atom_site_type_symbol
 _atom_site_label
 _atom_site_symmetry_multiplicity
 _atom_site_fract_x
 _atom_site_fract_y
 _atom_site_fract_z
 _atom_site_occupancy
  C  1  1  0.99859600  0.97610700  0.48912900  1
  C  2  1  0.92278600  0.95883300  0.45845000  1
  C  3  1  0.92251200  0.92273200  0.43875200  1
  C  4  1  0.99857400  0.90255700  0.44881700  1
  C  5  1  0.07467400  0.92012700  0.47955800  1
  C  6  1  0.07550000  0.95655400  0.50019000  1
  C  10  1  0.15544000  0.97404900  0.53283100  1
  C  46  1  0.99702200  0.86565700  0.42877100  1
  C  52  1  0.00271000  0.84833200  0.39234700  1
  C  53  1  0.98679300  0.84514900  0.44457900  1
  C  61  1  0.99643900  0.56353600  0.43852300  1
  C  62  1  0.98847700  0.54768100  0.40219400  1
  C  63  1  0.98285500  0.56736700  0.38565900  1
  C  64  1  0.98576700  0.60374900  0.40489400  1
  C  65  1  0.99393000  0.61972400  0.44113200  1
  C  66  1  0.99974300  0.59998600  0.45758100  1
  C  67  1  0.97341900  0.62393500  0.38942400  1
  C  68  1  0.04759100  0.61978400  0.36246200  1
  C  69  1  0.03748400  0.64044000  0.34739800  1
  C  70  1  0.03838300  0.67683600  0.36739400  1
  C  71  1  0.03766800  0.69771500  0.35195200  1
  C  72  1  0.03871400  0.68134000  0.31555800  1
  C  73  1  0.03784900  0.64504300  0.29471100  1
  C  74  1  0.03856400  0.62501900  0.31110600  1
  C  75  1  0.04801700  0.62999100  0.25901400  1
  C  76  1  0.97403800  0.60299300  0.23622000  1
  C  77  1  0.98646300  0.58753500  0.20059400  1
  C  78  1  0.99504900  0.55129800  0.18037000  1
  C  79  1  0.98302600  0.60677100  0.18342900  1
  C  80  1  0.98872300  0.59024400  0.14723400  1
  C  81  1  0.99704300  0.55391300  0.12680000  1
  C  82  1  0.00079600  0.53485100  0.14420900  1
  C  83  1  0.04768800  0.73342000  0.37260100  1
  C  84  1  0.97433100  0.75624700  0.36827500  1
  C  85  1  0.98664200  0.79187000  0.38850300  1
  C  86  1  0.98123400  0.80895400  0.42485800  1
  C  87  1  0.99704300  0.81216800  0.37257800  1
  C  107  1  0.98818000  0.42635800  0.55913400  1
  C  108  1  0.02222000  0.44145400  0.59440300  1
  C  109  1  0.01756800  0.42224900  0.61146000  1
  C  110  1  0.98081900  0.38702200  0.59372500  1
  C  111  1  0.94787200  0.37186200  0.55841400  1
  C  112  1  0.95158100  0.39113300  0.54146800  1
  C  113  1  0.96976800  0.36746300  0.60999500  1
  C  114  1  0.05580200  0.36876900  0.63383700  1
  C  115  1  0.04463100  0.34828400  0.64896500  1
  C  116  1  0.04538600  0.31192100  0.62878300  1
  C  117  1  0.04466000  0.29102500  0.64418400  1
  C  118  1  0.04566700  0.30718700  0.68054800  1
  C  119  1  0.04485700  0.34346500  0.70141000  1
  C  120  1  0.04562200  0.36367200  0.68523400  1
  C  121  1  0.05616600  0.35855500  0.73699500  1
  C  122  1  0.97047200  0.38248500  0.75953600  1
  C  123  1  0.98163700  0.39873300  0.79533400  1
  C  124  1  0.94921300  0.43408200  0.81546000  1
  C  125  1  0.01778900  0.38093600  0.81282500  1
  C  126  1  0.02239200  0.39797200  0.84906400  1
  C  127  1  0.98891200  0.43328100  0.86920400  1
  C  128  1  0.95288100  0.45100900  0.85164900  1
  C  129  1  0.05587900  0.25543100  0.62368700  1
  C  130  1  0.97115600  0.23283600  0.62532700  1
  C  131  1  0.98229100  0.19704400  0.60567500  1
  C  132  1  0.01577200  0.17967800  0.57024300  1
  C  133  1  0.95237600  0.17680500  0.62095100  1
  C  134  1  0.95593300  0.14061300  0.60159200  1
  C  135  1  0.98941600  0.12319500  0.56617400  1
  C  136  1  0.02034800  0.14344300  0.55094300  1
  C  158  1  0.98901200  0.45046900  0.90603200  1
  C  159  1  0.88060000  0.47198400  0.92534200  1
  C  160  1  0.87918800  0.49005900  0.96182100  1
  C  161  1  0.99090000  0.48638100  0.97969100  1
  C  162  1  0.09841300  0.46446200  0.96055600  1
  C  163  1  0.09747100  0.44682100  0.92437500  1
  C  166  1  0.99872700  0.50368900  0.01633500  1
  C  167  1  0.92172700  0.49055200  0.03369600  1
  C  168  1  0.92137500  0.50700500  0.06979700  1
  C  169  1  0.99863000  0.53701400  0.08989800  1
  C  170  1  0.07597500  0.54990500  0.07224800  1
  C  171  1  0.07687000  0.53407100  0.03581800  1
  C  176  1  0.76006700  0.51229500  0.97924300  1
  C  177  1  0.15806000  0.54896800  0.01826000  1
  C  186  1  0.98837600  0.44600900  0.54192900  1
  C  187  1  0.87992300  0.44388100  0.52044800  1
  C  188  1  0.87860400  0.46230300  0.50236300  1
  C  189  1  0.99043300  0.48380600  0.50600700  1
  C  190  1  0.09797900  0.48651900  0.52789800  1
  C  191  1  0.09694600  0.46795900  0.54554500  1
  C  194  1  0.99830200  0.50319200  0.48872000  1
  C  195  1  0.92100600  0.53362400  0.50181200  1
  C  196  1  0.92064400  0.55331500  0.48537800  1
  C  197  1  0.99813200  0.54350600  0.45542200  1
  C  198  1  0.07578200  0.51302800  0.44257500  1
  C  199  1  0.07673000  0.49240000  0.45839900  1
  C  204  1  0.75946200  0.45754800  0.48014600  1
  C  205  1  0.15824100  0.46001400  0.44354400  1
  C  214  1  0.98932800  0.08638700  0.54645400  1
  C  215  1  0.88120900  0.06706100  0.54877900  1
  C  216  1  0.87953600  0.03057900  0.53023500  1
  C  217  1  0.99080300  0.01274800  0.50850000  1
  C  218  1  0.09807900  0.03190900  0.50563100  1
  C  219  1  0.09727400  0.06809400  0.52425400  1
  C  223  1  0.76060000  0.01310800  0.53507700  1
  H  7  1  0.86536500  0.97245700  0.45036600  1
  H  8  1  0.86353200  0.91126600  0.41715200  1
  H  9  1  0.13259800  0.90590400  0.48672100  1
  H  12  1  0.09068500  0.99209800  0.55390600  1
  H  13  1  0.23517100  0.98891700  0.52954800  1
  H  14  1  0.15019000  0.94175700  0.55073100  1
  H  15  1  0.77393100  0.98528400  0.52290900  1
  H  47  1  0.01183300  0.86195000  0.37971400  1
  H  54  1  0.97889300  0.85646000  0.47076200  1
  H  88  1  0.98240000  0.52146000  0.38732200  1
  H  89  1  0.97351300  0.55485200  0.35942000  1
  H  90  1  0.00719000  0.61267000  0.48385100  1
  H  91  1  0.99559200  0.64602300  0.45598400  1
  H  92  1  0.04316000  0.59871200  0.29634700  1
  H  93  1  0.04277500  0.68836100  0.39369900  1
  H  94  1  0.04334500  0.69611400  0.30401100  1
  H  95  1  0.97022500  0.79519900  0.43731800  1
  H  96  1  0.99705200  0.53644400  0.19183200  1
  H  97  1  0.00855900  0.50858400  0.13065400  1
  H  98  1  0.98215000  0.60510800  0.13586700  1
  H  99  1  0.97335400  0.63300700  0.19712300  1
  H  100  1  0.00047800  0.80076200  0.34629400  1
  H  101  1  0.90799400  0.59259500  0.24509600  1
  H  102  1  0.11441100  0.64024800  0.25005900  1
  H  103  1  0.90732000  0.64318600  0.39979200  1
  H  104  1  0.11407000  0.60060300  0.35224400  1
  H  105  1  0.90887100  0.74741300  0.34889000  1
  H  106  1  0.11343600  0.74236500  0.39194000  1
  H  137  1  0.04635100  0.46703500  0.60838500  1
  H  138  1  0.03870000  0.43452900  0.63723800  1
  H  139  1  0.92791300  0.37899000  0.51583100  1
  H  140  1  0.92021700  0.34648200  0.54459200  1
  H  141  1  0.05009500  0.38997800  0.70009200  1
  H  142  1  0.04968700  0.30049900  0.60247800  1
  H  143  1  0.05026300  0.29231200  0.69199100  1
  H  144  1  0.03469000  0.19325300  0.55791200  1
  H  145  1  0.92196700  0.44794600  0.80390000  1
  H  146  1  0.92959700  0.47667100  0.86512600  1
  H  147  1  0.04618200  0.38395800  0.86066700  1
  H  148  1  0.03854500  0.35513500  0.79934800  1
  H  149  1  0.04233100  0.13191600  0.52524700  1
  H  150  1  0.93441200  0.12702900  0.61378500  1
  H  151  1  0.92701700  0.18827800  0.64647300  1
  H  152  1  0.89504800  0.38997500  0.75013200  1
  H  153  1  0.13279500  0.35093500  0.74587500  1
  H  154  1  0.89417000  0.35063500  0.60259300  1
  H  155  1  0.13261300  0.38520200  0.64136600  1
  H  156  1  0.89647900  0.24217800  0.64243400  1
  H  157  1  0.13164100  0.24657200  0.60693200  1
  H  164  1  0.17945000  0.46132300  0.97288500  1
  H  165  1  0.17872500  0.43181900  0.91150800  1
  H  172  1  0.86344900  0.46901700  0.02013500  1
  H  173  1  0.86148100  0.49707800  0.08131500  1
  H  174  1  0.13477300  0.57111500  0.08641400  1
  H  175  1  0.79978300  0.47444900  0.91250700  1
  H  179  1  0.09402400  0.55206000  0.00012000  1
  H  180  1  0.23743400  0.53065700  0.00349300  1
  H  181  1  0.15409900  0.59916100  0.05040200  1
  H  183  1  0.77374400  0.52815500  0.00702500  1
  H  184  1  0.74425800  0.52982200  0.96921400  1
  H  185  1  0.56609400  0.50614700  0.98367800  1
  H  192  1  0.17910600  0.50195400  0.53101600  1
  H  193  1  0.17828100  0.47002900  0.56050600  1
  H  200  1  0.86245300  0.54151400  0.52329300  1
  H  201  1  0.86042300  0.57468700  0.49524800  1
  H  202  1  0.13478500  0.50606800  0.42141400  1
  H  203  1  0.79900700  0.42861800  0.51800700  1
  H  207  1  0.09439400  0.43874100  0.44041700  1
  H  208  1  0.23752500  0.46358100  0.46188900  1
  H  209  1  0.15460800  0.44204000  0.39335900  1
  H  211  1  0.77325600  0.46945100  0.46424800  1
  H  212  1  0.74343100  0.43001600  0.46265600  1
  H  213  1  0.56557500  0.46822800  0.48632300  1
  H  220  1  0.17882300  0.01959700  0.49004500  1
  H  221  1  0.17826600  0.08099800  0.52203800  1
  H  222  1  0.80080000  0.07988600  0.56424900  1
  H  225  1  0.74561800  0.02290200  0.56260300  1
  H  226  1  0.56631100  0.00893200  0.52488500  1
  O  11  1  0.22034600  0.95228800  0.54343200  1
  O  178  1  0.22376600  0.58120000  0.03995300  1
  O  182  1  0.64386800  0.49095700  0.97261100  1
  O  206  1  0.22415300  0.44956600  0.41134900  1
  O  210  1  0.64337400  0.47231100  0.50150000  1
  O  224  1  0.64394800  0.02003800  0.52074200  1
