# generated using pymatgen
data_CdH20C21O4
_symmetry_space_group_name_H-M   'P 1'
_cell_length_a   13.51286000
_cell_length_b   14.65596000
_cell_length_c   14.65629000
_cell_angle_alpha   93.47013000
_cell_angle_beta   114.67611000
_cell_angle_gamma   114.67524000
_symmetry_Int_Tables_number   1
_chemical_formula_structural   CdH20C21O4
_chemical_formula_sum   'Cd4 H80 C84 O16'
_cell_volume   2297.73643027
_cell_formula_units_Z   4
loop_
 _symmetry_equiv_pos_site_id
 _symmetry_equiv_pos_as_xyz
  1  'x, y, z'
loop_
 _atom_site_type_symbol
 _atom_site_label
 _atom_site_symmetry_multiplicity
 _atom_site_fract_x
 _atom_site_fract_y
 _atom_site_fract_z
 _atom_site_occupancy
  Cd  Cd1  1  0.75000000  0.95811000  0.04189000  1.0
  Cd  Cd2  1  0.25000000  0.04190000  0.95810000  1.0
  Cd  Cd3  1  0.00000000  0.00000000  0.00000000  1.0
  Cd  Cd4  1  0.50000000  0.00000000  0.00000000  1.0
  H  H1  1  0.08877000  0.23111000  0.00835000  1.0
  H  H2  1  0.92072000  0.34861000  0.14308000  1.0
  H  H3  1  0.06138000  0.53179000  0.15472000  1.0
  H  H4  1  0.22318000  0.70397000  0.14532000  1.0
  H  H5  1  0.39826000  0.84357000  0.13150000  1.0
  H  H6  1  0.46338000  0.61292000  0.00829000  1.0
  H  H7  1  0.28393000  0.42414000  0.87761000  1.0
  H  H8  1  0.17526000  0.30563000  0.87985000  1.0
  H  H9  1  0.13265000  0.49343000  0.84269000  1.0
  H  H10  1  0.02496000  0.37360000  0.84394000  1.0
  H  H11  1  0.97397000  0.37485000  0.65792000  1.0
  H  H12  1  0.01680000  0.27756000  0.68988000  1.0
  H  H13  1  0.12470000  0.39755000  0.68672000  1.0
  H  H14  1  0.32242000  0.31899000  0.04417000  1.0
  H  H15  1  0.43401000  0.43777000  0.04633000  1.0
  H  H16  1  0.36175000  0.40676000  0.21919000  1.0
  H  H17  1  0.47505000  0.52437000  0.22093000  1.0
  H  H18  1  0.57769000  0.42902000  0.32610000  1.0
  H  H19  1  0.60021000  0.43543000  0.21558000  1.0
  H  H20  1  0.48589000  0.31751000  0.21535000  1.0
  H  H21  1  0.41122000  0.99165000  0.76889000  1.0
  H  H22  1  0.57929000  0.85693000  0.65140000  1.0
  H  H23  1  0.43863000  0.84529000  0.46822000  1.0
  H  H24  1  0.27683000  0.85469000  0.29604000  1.0
  H  H25  1  0.10175000  0.86851000  0.15644000  1.0
  H  H26  1  0.03662000  0.99171000  0.38708000  1.0
  H  H27  1  0.21607000  0.12239000  0.57586000  1.0
  H  H28  1  0.32475000  0.12016000  0.69437000  1.0
  H  H29  1  0.36735000  0.15731000  0.50657000  1.0
  H  H30  1  0.47504000  0.15606000  0.62640000  1.0
  H  H31  1  0.52604000  0.34208000  0.62515000  1.0
  H  H32  1  0.48320000  0.31012000  0.72245000  1.0
  H  H33  1  0.37531000  0.31329000  0.60245000  1.0
  H  H34  1  0.17758000  0.95584000  0.68100000  1.0
  H  H35  1  0.06598000  0.95367000  0.56223000  1.0
  H  H36  1  0.13825000  0.78081000  0.59324000  1.0
  H  H37  1  0.02495000  0.77907000  0.47563000  1.0
  H  H38  1  0.92231000  0.67390000  0.57098000  1.0
  H  H39  1  0.89979000  0.78443000  0.56456000  1.0
  H  H40  1  0.01411000  0.78466000  0.68249000  1.0
  H  H41  1  0.91123000  0.76890000  0.99165000  1.0
  H  H42  1  0.07928000  0.65140000  0.85692000  1.0
  H  H43  1  0.93862000  0.46822000  0.84528000  1.0
  H  H44  1  0.77682000  0.29604000  0.85468000  1.0
  H  H45  1  0.60174000  0.15644000  0.86850000  1.0
  H  H46  1  0.53662000  0.38708000  0.99171000  1.0
  H  H47  1  0.71607000  0.57586000  0.12239000  1.0
  H  H48  1  0.82475000  0.69438000  0.12015000  1.0
  H  H49  1  0.86736000  0.50658000  0.15731000  1.0
  H  H50  1  0.97504000  0.62641000  0.15606000  1.0
  H  H51  1  0.02603000  0.62516000  0.34208000  1.0
  H  H52  1  0.98320000  0.72245000  0.31011000  1.0
  H  H53  1  0.87531000  0.60245000  0.31328000  1.0
  H  H54  1  0.67759000  0.68101000  0.95583000  1.0
  H  H55  1  0.56599000  0.56224000  0.95367000  1.0
  H  H56  1  0.63826000  0.59324000  0.78081000  1.0
  H  H57  1  0.52495000  0.47564000  0.77907000  1.0
  H  H58  1  0.42231000  0.57099000  0.67390000  1.0
  H  H59  1  0.39979000  0.56457000  0.78442000  1.0
  H  H60  1  0.51411000  0.68250000  0.78465000  1.0
  H  H61  1  0.58878000  0.00835000  0.23111000  1.0
  H  H62  1  0.42072000  0.14308000  0.34860000  1.0
  H  H63  1  0.56138000  0.15472000  0.53178000  1.0
  H  H64  1  0.72318000  0.14532000  0.70396000  1.0
  H  H65  1  0.89826000  0.13150000  0.84356000  1.0
  H  H66  1  0.96339000  0.00829000  0.61292000  1.0
  H  H67  1  0.78393000  0.87761000  0.42414000  1.0
  H  H68  1  0.67526000  0.87985000  0.30563000  1.0
  H  H69  1  0.63265000  0.84269000  0.49343000  1.0
  H  H70  1  0.52496000  0.84395000  0.37360000  1.0
  H  H71  1  0.47397000  0.65793000  0.37484000  1.0
  H  H72  1  0.51680000  0.68989000  0.27755000  1.0
  H  H73  1  0.62469000  0.68672000  0.39755000  1.0
  H  H74  1  0.82242000  0.04416000  0.31899000  1.0
  H  H75  1  0.93402000  0.04633000  0.43777000  1.0
  H  H76  1  0.86175000  0.21920000  0.40676000  1.0
  H  H77  1  0.97506000  0.22093000  0.52437000  1.0
  H  H78  1  0.07769000  0.32611000  0.42902000  1.0
  H  H79  1  0.10021000  0.21558000  0.43543000  1.0
  H  H80  1  0.98589000  0.21535000  0.31751000  1.0
  C  C1  1  0.08363000  0.29645000  0.04123000  1.0
  C  C2  1  0.99633000  0.27935000  0.07604000  1.0
  C  C3  1  0.98943000  0.36460000  0.11726000  1.0
  C  C4  1  0.06790000  0.46645000  0.12369000  1.0
  C  C5  1  0.27579000  0.68373000  0.11638000  1.0
  C  C6  1  0.37339000  0.76176000  0.10853000  1.0
  C  C7  1  0.44131000  0.73574000  0.07085000  1.0
  C  C8  1  0.40990000  0.63040000  0.03813000  1.0
  C  C9  1  0.26286000  0.43512000  0.01570000  1.0
  C  C10  1  0.16252000  0.39793000  0.04822000  1.0
  C  C11  1  0.15448000  0.48295000  0.08902000  1.0
  C  C12  1  0.24725000  0.57939000  0.08661000  1.0
  C  C13  1  0.31318000  0.55284000  0.04597000  1.0
  C  C14  1  0.90891000  0.17178000  0.06872000  1.0
  C  C15  1  0.54782000  0.81759000  0.06526000  1.0
  C  C16  1  0.20725000  0.39018000  0.89600000  1.0
  C  C17  1  0.10083000  0.40893000  0.82500000  1.0
  C  C18  1  0.05144000  0.36242000  0.70862000  1.0
  C  C19  1  0.36478000  0.40437000  0.07297000  1.0
  C  C20  1  0.43104000  0.43885000  0.19268000  1.0
  C  C21  1  0.52895000  0.40329000  0.24012000  1.0
  C  C22  1  0.41637000  0.95877000  0.70355000  1.0
  C  C23  1  0.50367000  0.92396000  0.72065000  1.0
  C  C24  1  0.51057000  0.88274000  0.63541000  1.0
  C  C25  1  0.43211000  0.87632000  0.53356000  1.0
  C  C26  1  0.22422000  0.88362000  0.31628000  1.0
  C  C27  1  0.12662000  0.89148000  0.23825000  1.0
  C  C28  1  0.05869000  0.92915000  0.26427000  1.0
  C  C29  1  0.09010000  0.96187000  0.36960000  1.0
  C  C30  1  0.23714000  0.98431000  0.56488000  1.0
  C  C31  1  0.33748000  0.95178000  0.60207000  1.0
  C  C32  1  0.34552000  0.91098000  0.51706000  1.0
  C  C33  1  0.25275000  0.91339000  0.42062000  1.0
  C  C34  1  0.18681000  0.95404000  0.44716000  1.0
  C  C35  1  0.59109000  0.93129000  0.82822000  1.0
  C  C36  1  0.95219000  0.93474000  0.18241000  1.0
  C  C37  1  0.29275000  0.10400000  0.60982000  1.0
  C  C38  1  0.39918000  0.17500000  0.59107000  1.0
  C  C39  1  0.44857000  0.29138000  0.63758000  1.0
  C  C40  1  0.13522000  0.92704000  0.59563000  1.0
  C  C41  1  0.06896000  0.80732000  0.56115000  1.0
  C  C42  1  0.97106000  0.75988000  0.59671000  1.0
  C  C43  1  0.91638000  0.70356000  0.95877000  1.0
  C  C44  1  0.00367000  0.72065000  0.92396000  1.0
  C  C45  1  0.01057000  0.63541000  0.88274000  1.0
  C  C46  1  0.93210000  0.53355000  0.87631000  1.0
  C  C47  1  0.72421000  0.31628000  0.88362000  1.0
  C  C48  1  0.62662000  0.23825000  0.89147000  1.0
  C  C49  1  0.55869000  0.26427000  0.92915000  1.0
  C  C50  1  0.59010000  0.36960000  0.96187000  1.0
  C  C51  1  0.73714000  0.56488000  0.98430000  1.0
  C  C52  1  0.83748000  0.60207000  0.95178000  1.0
  C  C53  1  0.84552000  0.51706000  0.91098000  1.0
  C  C54  1  0.75275000  0.42062000  0.91339000  1.0
  C  C55  1  0.68682000  0.44716000  0.95403000  1.0
  C  C56  1  0.09109000  0.82823000  0.93128000  1.0
  C  C57  1  0.45218000  0.18241000  0.93474000  1.0
  C  C58  1  0.79275000  0.60982000  0.10400000  1.0
  C  C59  1  0.89918000  0.59107000  0.17500000  1.0
  C  C60  1  0.94856000  0.63758000  0.29138000  1.0
  C  C61  1  0.63523000  0.59564000  0.92703000  1.0
  C  C62  1  0.56897000  0.56115000  0.80732000  1.0
  C  C63  1  0.47106000  0.59671000  0.75988000  1.0
  C  C64  1  0.58363000  0.04124000  0.29644000  1.0
  C  C65  1  0.49634000  0.07605000  0.27935000  1.0
  C  C66  1  0.48943000  0.11726000  0.36459000  1.0
  C  C67  1  0.56790000  0.12369000  0.46644000  1.0
  C  C68  1  0.77578000  0.11638000  0.68372000  1.0
  C  C69  1  0.87338000  0.10853000  0.76175000  1.0
  C  C70  1  0.94131000  0.07085000  0.73573000  1.0
  C  C71  1  0.90990000  0.03813000  0.63040000  1.0
  C  C72  1  0.76286000  0.01570000  0.43512000  1.0
  C  C73  1  0.66252000  0.04822000  0.39793000  1.0
  C  C74  1  0.65448000  0.08902000  0.48294000  1.0
  C  C75  1  0.74725000  0.08661000  0.57938000  1.0
  C  C76  1  0.81319000  0.04597000  0.55284000  1.0
  C  C77  1  0.40891000  0.06872000  0.17178000  1.0
  C  C78  1  0.04782000  0.06526000  0.81759000  1.0
  C  C79  1  0.70725000  0.89600000  0.39018000  1.0
  C  C80  1  0.60083000  0.82500000  0.40893000  1.0
  C  C81  1  0.55144000  0.70863000  0.36242000  1.0
  C  C82  1  0.86478000  0.07297000  0.40437000  1.0
  C  C83  1  0.93104000  0.19269000  0.43885000  1.0
  C  C84  1  0.02895000  0.24012000  0.40329000  1.0
  O  O1  1  0.83187000  0.15587000  0.10087000  1.0
  O  O2  1  0.91105000  0.09211000  0.02476000  1.0
  O  O3  1  0.60820000  0.79256000  0.03243000  1.0
  O  O4  1  0.58051000  0.91665000  0.09760000  1.0
  O  O5  1  0.66814000  0.89914000  0.84414000  1.0
  O  O6  1  0.58896000  0.97525000  0.90789000  1.0
  O  O7  1  0.89180000  0.96758000  0.20744000  1.0
  O  O8  1  0.91949000  0.90240000  0.08336000  1.0
  O  O9  1  0.16814000  0.84414000  0.89913000  1.0
  O  O10  1  0.08896000  0.90790000  0.97524000  1.0
  O  O11  1  0.39180000  0.20745000  0.96757000  1.0
  O  O12  1  0.41949000  0.08336000  0.90240000  1.0
  O  O13  1  0.33186000  0.10087000  0.15586000  1.0
  O  O14  1  0.41104000  0.02476000  0.09210000  1.0
  O  O15  1  0.10820000  0.03243000  0.79256000  1.0
  O  O16  1  0.08051000  0.09760000  0.91664000  1.0
