# generated using pymatgen
data_H3C5
_symmetry_space_group_name_H-M   'P 1'
_cell_length_a   9.86353333
_cell_length_b   14.73745000
_cell_length_c   14.73745000
_cell_angle_alpha   120.00000000
_cell_angle_beta   90.00000000
_cell_angle_gamma   90.00000000
_symmetry_Int_Tables_number   1
_chemical_formula_structural   H3C5
_chemical_formula_sum   'H18 C30'
_cell_volume   1855.27305698
_cell_formula_units_Z   6
loop_
 _symmetry_equiv_pos_site_id
 _symmetry_equiv_pos_as_xyz
  1  'x, y, z'
loop_
 _atom_site_type_symbol
 _atom_site_label
 _atom_site_symmetry_multiplicity
 _atom_site_fract_x
 _atom_site_fract_y
 _atom_site_fract_z
 _atom_site_occupancy
  C  1  1  0.85514100  0.92400550  0.46546550  1
  C  2  1  0.97847900  0.86764350  0.43729550  1
  C  3  1  0.10176200  0.92406750  0.46549650  1
  C  31  1  0.97853500  0.75720800  0.38206700  1
  C  32  1  0.97854000  0.70104300  0.43669800  1
  C  33  1  0.97854000  0.70108950  0.27127350  1
  C  61  1  0.97853500  0.59024700  0.38202500  1
  C  62  1  0.97853500  0.59029450  0.21511450  1
  C  73  1  0.97854000  0.53561450  0.27123050  1
  C  75  1  0.97835700  0.20130100  0.60410400  1
  C  76  1  0.97837300  0.25746550  0.54947150  1
  C  77  1  0.97835700  0.36826300  0.60414500  1
  C  78  1  0.97837000  0.42289450  0.71493850  1
  C  79  1  0.97835700  0.36821450  0.77105450  1
  C  80  1  0.97837000  0.25742000  0.71489700  1
  C  84  1  0.85509100  0.45164200  0.93789700  1
  C  85  1  0.85513500  0.50689450  0.04833150  1
  C  86  1  0.97847900  0.53509650  0.10468650  1
  C  87  1  0.10176700  0.50686400  0.04827000  1
  C  88  1  0.10172200  0.45161450  0.93783850  1
  C  89  1  0.97838700  0.42341200  0.88148300  1
  C  94  1  0.85509600  0.45168400  0.52070300  1
  C  95  1  0.85514100  0.50685750  0.46543750  1
  C  96  1  0.97847900  0.53500950  0.43722350  1
  C  97  1  0.10176200  0.50682400  0.46546700  1
  C  98  1  0.10171600  0.45165150  0.52073150  1
  C  99  1  0.97838700  0.42350050  0.54894650  1
  C  104  1  0.85509600  0.03444250  0.52067350  1
  C  105  1  0.10171600  0.03450300  0.52070300  1
  C  106  1  0.97838700  0.09086550  0.54887350  1
  H  4  1  0.19253400  0.88516300  0.44604600  1
  H  5  1  0.76440300  0.88505450  0.44599250  1
  H  34  1  0.97852500  0.74125900  0.23112400  1
  H  35  1  0.97852500  0.74119050  0.51701750  1
  H  74  1  0.97852500  0.45529350  0.23105450  1
  H  81  1  0.97838700  0.50321600  0.75511600  1
  H  82  1  0.97838700  0.21724850  0.75504450  1
  H  83  1  0.97838800  0.21732050  0.46914950  1
  H  90  1  0.19253500  0.52632350  0.08717550  1
  H  91  1  0.76439800  0.52637700  0.08728300  1
  H  92  1  0.76432200  0.43218100  0.89898900  1
  H  93  1  0.19245900  0.43213200  0.89888700  1
  H  100  1  0.19253400  0.52626400  0.44600500  1
  H  101  1  0.76440400  0.52631950  0.44595050  1
  H  102  1  0.76432800  0.43224050  0.54016650  1
  H  103  1  0.19245400  0.43219000  0.54021800  1
  H  107  1  0.76432800  0.07334900  0.54012600  1
  H  108  1  0.19245400  0.07345100  0.54017400  1
