# generated using pymatgen
data_Cr3H14C31N3O13
_symmetry_space_group_name_H-M   'P 1'
_cell_length_a   11.00208433
_cell_length_b   11.02433000
_cell_length_c   18.82498000
_cell_angle_alpha   90.07699000
_cell_angle_beta   90.26855920
_cell_angle_gamma   60.18870106
_symmetry_Int_Tables_number   1
_chemical_formula_structural   Cr3H14C31N3O13
_chemical_formula_sum   'Cr6 H28 C62 N6 O26'
_cell_volume   1981.11616797
_cell_formula_units_Z   2
loop_
 _symmetry_equiv_pos_site_id
 _symmetry_equiv_pos_as_xyz
  1  'x, y, z'
loop_
 _atom_site_type_symbol
 _atom_site_label
 _atom_site_symmetry_multiplicity
 _atom_site_fract_x
 _atom_site_fract_y
 _atom_site_fract_z
 _atom_site_occupancy
  C  C0  1  0.55038000  0.68689000  0.14410000  1
  C  C1  1  0.38496000  0.76343000  0.96170000  1
  C  C2  1  0.47758000  0.62040500  0.64526000  1
  C  C3  1  0.00168000  0.66448000  0.07768000  1
  C  C4  1  0.99224000  0.67210000  0.92060000  1
  C  C5  1  0.98990000  0.56880000  0.95849000  1
  C  C6  1  0.98936000  0.56779000  0.03812000  1
  C  C7  1  0.44914000  0.24771000  0.93521000  1
  C  C8  1  0.61174000  0.13511000  0.03318000  1
  C  C9  1  0.52122000  0.67220000  0.07024000  1
  C  C10  1  0.98358000  0.45600000  0.92151000  1
  C  C11  1  0.98858000  0.45048000  0.07293000  1
  C  C12  1  0.86094000  0.06999000  0.05227000  1
  C  C13  1  0.17740000  0.98561000  0.92708000  1
  C  C14  1  0.67486000  0.28685000  0.10024000  1
  C  C15  1  0.41258000  0.95408000  0.91229000  1
  C  C16  1  0.36262000  0.22827000  0.04954000  1
  C  C17  1  0.62566000  0.57788000  0.95628000  1
  C  C18  1  0.33910000  0.26649000  0.97877000  1
  C  C19  1  0.63427000  0.57654500  0.02914000  1
  C  C20  1  0.41974000  0.29001000  0.86122000  1
  C  C21  1  0.68250000  0.23910000  0.96750000  1
  C  C22  1  0.33514000  0.92537000  0.03410000  1
  C  C23  1  0.71602000  0.18342000  0.04302000  1
  C  C24  1  0.32194000  0.91822000  0.95415000  1
  C  C25  1  0.49886000  0.16401000  0.07773000  1
  C  C26  1  0.49880000  0.66457000  0.92221000  1
  C  C27  1  0.98294000  0.67881000  0.57914000  1
  C  C28  1  0.96676000  0.68739000  0.43151000  1
  C  C29  1  0.95573000  0.80034500  0.54233000  1
  C  C30  1  0.94912000  0.80280000  0.46999500  1
  C  C31  1  0.96881000  0.57564500  0.46826000  1
  C  C32  1  0.97262000  0.57343000  0.54245000  1
  C  C33  1  0.94066000  0.70663000  0.14924000  1
  C  C34  1  0.05776000  0.64841000  0.85012000  1
  C  C35  1  0.02952000  0.88462500  0.54181000  1
  C  C36  1  0.58550000  0.18154000  0.96302000  1
  C  C37  1  0.02243000  0.88484500  0.46183000  1
  C  C38  1  0.49838000  0.15243500  0.58034000  1
  C  C39  1  0.49946000  0.66282000  0.42178000  1
  C  C40  1  0.40268000  0.12826000  0.54223000  1
  C  C41  1  0.57093000  0.53301000  0.45569000  1
  C  C42  1  0.39768000  0.76976000  0.03546000  1
  C  C43  1  0.41158000  0.11376000  0.46974000  1
  C  C44  1  0.56772000  0.52466000  0.52844000  1
  C  C45  1  0.62662000  0.11980000  0.47067000  1
  C  C46  1  0.40294000  0.77050000  0.53652000  1
  C  C47  1  0.61883000  0.13304500  0.54500000  1
  C  C48  1  0.40631000  0.78016000  0.46241000  1
  C  C49  1  0.24592000  0.21031500  0.53871500  1
  C  C50  1  0.72133000  0.41993500  0.45312000  1
  C  C51  1  0.25694000  0.19347000  0.45899000  1
  C  C52  1  0.71837000  0.41523500  0.53330500  1
  C  C53  1  0.51557000  0.12211000  0.43194000  1
  C  C54  1  0.49150000  0.64307000  0.57050000  1
  C  C55  1  0.52366000  0.10112000  0.14736000  1
  C  C56  1  0.47682000  0.62583000  0.85210000  1
  C  C57  1  0.54422000  0.68378000  0.35251000  1
  C  C58  1  0.45612000  0.22560000  0.64815000  1
  C  C59  1  0.93531000  0.70900500  0.35684000  1
  C  C60  1  0.05714000  0.64799000  0.64586000  1
  C  C61  1  0.52510000  0.09299000  0.35619000  1
  Cr  Cr62  1  0.46148000  0.93301000  0.24927000  1
  Cr  Cr63  1  0.22838000  0.70821000  0.74771000  1
  Cr  Cr64  1  0.77162000  0.93659000  0.25229000  1
  Cr  Cr65  1  0.53852000  0.39449000  0.75073000  1
  Cr  Cr66  1  0.77472000  0.62255000  0.25122000  1
  Cr  Cr67  1  0.22528000  0.39727000  0.74878000  1
  H  H68  1  0.96495000  0.99017000  0.56540000  1
  H  H69  1  0.79275000  0.45544500  0.43346500  1
  H  H70  1  0.20531000  0.31997000  0.55529500  1
  H  H71  1  0.21444000  0.12766000  0.43823000  1
  H  H72  1  0.73453000  0.31493500  0.55437000  1
  H  H73  1  0.22176000  0.29332500  0.42997000  1
  H  H74  1  0.78275000  0.45436500  0.55956500  1
  H  H75  1  0.12655000  0.82335000  0.43624500  1
  H  H76  1  0.13895000  0.82625000  0.56131500  1
  H  H77  1  0.95498000  0.99036000  0.43891000  1
  H  H78  1  0.70108000  0.13790000  0.57404000  1
  H  H79  1  0.34538000  0.88168000  0.43791000  1
  H  H80  1  0.19635000  0.15496500  0.56431000  1
  H  H81  1  0.73437000  0.32343500  0.42744000  1
  H  H82  1  0.97060000  0.76913000  0.94578000  1
  H  H83  1  0.03318000  0.73271000  0.05322000  1
  H  H84  1  0.27458000  0.24496000  0.08180000  1
  H  H85  1  0.71514000  0.50086000  0.92711000  1
  H  H86  1  0.23502000  0.31032000  0.95795000  1
  H  H87  1  0.73229000  0.50180500  0.05290000  1
  H  H88  1  0.62200000  0.35376000  0.96355000  1
  H  H89  1  0.41216000  0.95693000  0.05100000  1
  H  H90  1  0.77044000  0.18736500  0.92926000  1
  H  H91  1  0.71621000  0.11239000  0.44354500  1
  H  H92  1  0.23379000  0.97950500  0.06286000  1
  H  H93  1  0.97361000  0.48835500  0.43979500  1
  H  H94  1  0.98247000  0.48328500  0.57030000  1
  H  H95  1  0.33526000  0.86291500  0.56714000  1
  N  N96  1  0.97964000  0.36575000  0.89206000  1
  N  N97  1  0.48708000  0.97622000  0.87866000  1
  N  N98  1  0.64104000  0.36424000  0.14720000  1
  N  N99  1  0.98922000  0.35638000  0.10056000  1
  N  N100  1  0.97606000  0.98287000  0.05980000  1
  N  N101  1  0.06386000  0.03837000  0.90540000  1
  O  O102  1  0.43142000  0.07465000  0.16946000  1
  O  O103  1  0.08796000  0.73813000  0.66677000  1
  O  O104  1  0.91204000  0.82609000  0.33323000  1
  O  O105  1  0.64186000  0.05310000  0.32557000  1
  O  O106  1  0.35814000  0.69496000  0.67443000  1
  O  O107  1  0.66928000  0.83071000  0.25093000  1
  O  O108  1  0.33072000  0.49999000  0.74907000  1
  O  O109  1  0.56858000  0.50607000  0.83054000  1
  O  O110  1  0.47478000  0.80368000  0.17477000  1
  O  O111  1  0.52522000  0.27846000  0.82523000  1
  O  O112  1  0.66522000  0.59155000  0.17003000  1
  O  O113  1  0.33478000  0.25677000  0.82997000  1
  O  O114  1  0.89204000  0.63540000  0.17822000  1
  O  O115  1  0.10796000  0.52744000  0.82178000  1
  O  O116  1  0.91358000  0.82638000  0.17326000  1
  O  O117  1  0.08642000  0.73996000  0.82674000  1
  O  O118  1  0.64330000  0.05335000  0.17728000  1
  O  O119  1  0.35670000  0.69665000  0.82272000  1
  O  O120  1  0.42988000  0.07436000  0.32942000  1
  O  O121  1  0.57012000  0.50424000  0.67058000  1
  O  O122  1  0.47334000  0.80342000  0.32306000  1
  O  O123  1  0.52666000  0.27676000  0.67694000  1
  O  O124  1  0.66368000  0.59127000  0.33000000  1
  O  O125  1  0.89062000  0.63513000  0.32652000  1
  O  O126  1  0.33632000  0.25495000  0.67000000  1
  O  O127  1  0.10938000  0.52575000  0.67348000  1
