# generated using pymatgen
data_MgH4C4O5
_symmetry_space_group_name_H-M   'P 1'
_cell_length_a   7.55176000
_cell_length_b   7.55170000
_cell_length_c   12.88324000
_cell_angle_alpha   90.00000000
_cell_angle_beta   90.00000000
_cell_angle_gamma   90.00000000
_symmetry_Int_Tables_number   1
_chemical_formula_structural   MgH4C4O5
_chemical_formula_sum   'Mg4 H16 C16 O20'
_cell_volume   734.71347553
_cell_formula_units_Z   4
loop_
 _symmetry_equiv_pos_site_id
 _symmetry_equiv_pos_as_xyz
  1  'x, y, z'
loop_
 _atom_site_type_symbol
 _atom_site_label
 _atom_site_symmetry_multiplicity
 _atom_site_fract_x
 _atom_site_fract_y
 _atom_site_fract_z
 _atom_site_occupancy
  Mg  Mg1  1  0.44530000  0.11797000  0.78178000  1.0
  Mg  Mg2  1  0.55470000  0.88203000  0.28178000  1.0
  Mg  Mg3  1  0.88203000  0.44530000  0.03178000  1.0
  Mg  Mg4  1  0.11797000  0.55470000  0.53178000  1.0
  H  H1  1  0.40697000  0.09343000  0.99199000  1.0
  H  H2  1  0.25729000  0.84950000  0.99698000  1.0
  H  H3  1  0.60895000  0.71514000  0.90740000  1.0
  H  H4  1  0.44401000  0.57131000  0.95413000  1.0
  H  H5  1  0.59303000  0.90657000  0.49199000  1.0
  H  H6  1  0.74271000  0.15050000  0.49698000  1.0
  H  H7  1  0.39105000  0.28487000  0.40740000  1.0
  H  H8  1  0.55599000  0.42869000  0.45413000  1.0
  H  H9  1  0.90657000  0.40697000  0.24199000  1.0
  H  H10  1  0.15050000  0.25729000  0.24698000  1.0
  H  H11  1  0.28486000  0.60894000  0.15740000  1.0
  H  H12  1  0.42869000  0.44401000  0.20413000  1.0
  H  H13  1  0.09343000  0.59304000  0.74199000  1.0
  H  H14  1  0.84950000  0.74272000  0.74698000  1.0
  H  H15  1  0.71514000  0.39106000  0.65740000  1.0
  H  H16  1  0.57131000  0.55599000  0.70413000  1.0
  C  C1  1  0.27187000  0.79456000  0.83348000  1.0
  C  C2  1  0.36007000  0.84460000  0.93657000  1.0
  C  C3  1  0.49941000  0.70535000  0.96308000  1.0
  C  C4  1  0.57869000  0.71824000  0.07052000  1.0
  C  C5  1  0.72813000  0.20544000  0.33348000  1.0
  C  C6  1  0.63993000  0.15540000  0.43657000  1.0
  C  C7  1  0.50059000  0.29465000  0.46309000  1.0
  C  C8  1  0.42131000  0.28176000  0.57052000  1.0
  C  C9  1  0.20543000  0.27187000  0.08348000  1.0
  C  C10  1  0.15540000  0.36007000  0.18657000  1.0
  C  C11  1  0.29465000  0.49940000  0.21309000  1.0
  C  C12  1  0.28175000  0.57868000  0.32052000  1.0
  C  C13  1  0.79457000  0.72813000  0.58348000  1.0
  C  C14  1  0.84460000  0.63994000  0.68657000  1.0
  C  C15  1  0.70535000  0.50060000  0.71308000  1.0
  C  C16  1  0.71825000  0.42132000  0.82052000  1.0
  O  O1  1  0.29082000  0.90013000  0.75635000  1.0
  O  O2  1  0.19062000  0.64825000  0.83317000  1.0
  O  O3  1  0.70816000  0.61728000  0.09386000  1.0
  O  O4  1  0.50950000  0.82565000  0.13466000  1.0
  O  O5  1  0.44136000  0.01519000  0.92706000  1.0
  O  O6  1  0.70918000  0.09987000  0.25636000  1.0
  O  O7  1  0.80938000  0.35175000  0.33317000  1.0
  O  O8  1  0.29184000  0.38272000  0.59386000  1.0
  O  O9  1  0.49050000  0.17435000  0.63465000  1.0
  O  O10  1  0.55864000  0.98481000  0.42706000  1.0
  O  O11  1  0.09988000  0.29081000  0.00636000  1.0
  O  O12  1  0.35175000  0.19061000  0.08317000  1.0
  O  O13  1  0.38272000  0.70817000  0.34386000  1.0
  O  O14  1  0.17436000  0.50951000  0.38465000  1.0
  O  O15  1  0.98481000  0.44136000  0.17706000  1.0
  O  O16  1  0.90012000  0.70919000  0.50636000  1.0
  O  O17  1  0.64825000  0.80940000  0.58317000  1.0
  O  O18  1  0.61728000  0.29183000  0.84386000  1.0
  O  O19  1  0.82564000  0.49050000  0.88465000  1.0
  O  O20  1  0.01519000  0.55864000  0.67706000  1.0
