# generated using pymatgen
data_Zn3H50C48(N9O10)2
_symmetry_space_group_name_H-M   'P 1'
_cell_length_a   12.61023000
_cell_length_b   12.89594000
_cell_length_c   13.08916000
_cell_angle_alpha   78.70841000
_cell_angle_beta   62.09667000
_cell_angle_gamma   62.26406000
_symmetry_Int_Tables_number   1
_chemical_formula_structural   Zn3H50C48(N9O10)2
_chemical_formula_sum   'Zn3 H50 C48 N18 O20'
_cell_volume   1664.30539760
_cell_formula_units_Z   1
loop_
 _symmetry_equiv_pos_site_id
 _symmetry_equiv_pos_as_xyz
  1  'x, y, z'
loop_
 _atom_site_type_symbol
 _atom_site_label
 _atom_site_symmetry_multiplicity
 _atom_site_fract_x
 _atom_site_fract_y
 _atom_site_fract_z
 _atom_site_occupancy
  Zn  Zn0  1  0.34708000  0.59861000  0.86369000  1
  Zn  Zn1  1  0.65293000  0.40139000  0.13631000  1
  Zn  Zn2  1  0.00000000  0.00000000  0.00000000  1
  H  H3  1  0.91879000  0.12483000  0.16035000  1
  H  H4  1  0.02388000  0.43736000  0.81982000  1
  H  H5  1  0.18247000  0.39624000  0.06116000  1
  H  H6  1  0.32146000  0.27745000  0.88614000  1
  H  H7  1  0.28149000  0.32662000  0.76662000  1
  H  H8  1  0.04923000  0.22309000  0.03004000  1
  H  H9  1  0.38252000  0.41731000  0.07903000  1
  H  H10  1  0.66118000  0.13320000  0.04510000  1
  H  H11  1  0.48990000  0.20947000  0.14070000  1
  H  H12  1  0.73369000  0.97459000  0.91393000  1
  H  H13  1  0.31876000  0.16757000  0.13643000  1
  H  H14  1  0.10035000  0.82926000  0.22425000  1
  H  H15  1  0.97958000  0.80186000  0.21829000  1
  H  H16  1  0.22579000  0.61686000  0.25142000  1
  H  H17  1  0.11725000  0.58134000  0.23014000  1
  H  H18  1  0.05924000  0.79562000  0.62259000  1
  H  H19  1  0.95758000  0.73822000  0.74025000  1
  H  H20  1  0.15135000  0.53389000  0.67976000  1
  H  H21  1  0.25245000  0.59910000  0.57568000  1
  H  H22  1  0.75029000  0.56426000  0.53837000  1
  H  H23  1  0.72465000  0.58255000  0.68081000  1
  H  H24  1  0.61194000  0.80611000  0.65560000  1
  H  H25  1  0.60825000  0.77447000  0.53220000  1
  H  H26  1  0.60122000  0.35377000  0.71836000  1
  H  H27  1  0.72291000  0.03087000  0.24168000  1
  H  H28  1  0.08121000  0.87517000  0.83964000  1
  H  H29  1  0.97612000  0.56265000  0.18017000  1
  H  H30  1  0.81753000  0.60376000  0.93884000  1
  H  H31  1  0.67854000  0.72255000  0.11385000  1
  H  H32  1  0.71851000  0.67339000  0.23338000  1
  H  H33  1  0.95077000  0.77691000  0.96996000  1
  H  H34  1  0.61748000  0.58269000  0.92097000  1
  H  H35  1  0.33882000  0.86681000  0.95490000  1
  H  H36  1  0.51010000  0.79053000  0.85930000  1
  H  H37  1  0.26631000  0.02541000  0.08607000  1
  H  H38  1  0.68124000  0.83243000  0.86357000  1
  H  H39  1  0.89965000  0.17074000  0.77575000  1
  H  H40  1  0.02042000  0.19814000  0.78171000  1
  H  H41  1  0.77421000  0.38314000  0.74858000  1
  H  H42  1  0.88275000  0.41866000  0.76986000  1
  H  H43  1  0.94076000  0.20438000  0.37741000  1
  H  H44  1  0.04243000  0.26179000  0.25975000  1
  H  H45  1  0.84865000  0.46612000  0.32024000  1
  H  H46  1  0.74755000  0.40090000  0.42431000  1
  H  H47  1  0.24971000  0.43574000  0.46163000  1
  H  H48  1  0.27535000  0.41745000  0.31919000  1
  H  H49  1  0.38806000  0.19389000  0.34440000  1
  H  H50  1  0.39175000  0.22553000  0.46780000  1
  H  H51  1  0.39878000  0.64623000  0.28164000  1
  H  H52  1  0.27709000  0.96914000  0.75831000  1
  C  C53  1  0.01322000  0.46479000  0.89892000  1
  C  C54  1  0.11774000  0.40611000  0.93159000  1
  C  C55  1  0.10328000  0.44185000  0.03347000  1
  C  C56  1  0.24284000  0.30467000  0.85821000  1
  C  C57  1  0.24179000  0.04547000  0.80913000  1
  C  C58  1  0.12416000  0.17339000  0.94955000  1
  C  C59  1  0.56465000  0.34189000  0.81090000  1
  C  C60  1  0.45190000  0.37665000  0.99382000  1
  C  C61  1  0.55937000  0.16877000  0.05448000  1
  C  C62  1  0.52969000  0.07847000  0.02982000  1
  C  C63  1  0.63185000  0.98448000  0.95243000  1
  C  C64  1  0.39794000  0.09381000  0.07686000  1
  C  C65  1  0.16613000  0.74239000  0.06832000  1
  C  C66  1  0.08555000  0.76281000  0.19832000  1
  C  C67  1  0.12400000  0.64878000  0.26259000  1
  C  C68  1  0.07812000  0.68856000  0.45917000  1
  C  C69  1  0.92655000  0.64061000  0.42921000  1
  C  C70  1  0.88935000  0.66666667  0.62765000  1
  C  C71  1  0.04132000  0.71757000  0.65458000  1
  C  C72  1  0.16504000  0.61487000  0.65946000  1
  C  C73  1  0.19534000  0.63547000  0.75102000  1
  C  C74  1  0.73505000  0.62419000  0.59780000  1
  C  C75  1  0.61110000  0.73955000  0.61481000  1
  C  C76  1  0.48249000  0.72694000  0.69515000  1
  C  C77  1  0.98678000  0.53521000  0.10108000  1
  C  C78  1  0.88226000  0.59389000  0.06841000  1
  C  C79  1  0.89672000  0.55815000  0.96652000  1
  C  C80  1  0.75716000  0.69534000  0.14179000  1
  C  C81  1  0.75821000  0.95453000  0.19086000  1
  C  C82  1  0.87584000  0.82661000  0.05045000  1
  C  C83  1  0.43535000  0.65812000  0.18909000  1
  C  C84  1  0.54811000  0.62335000  0.00618000  1
  C  C85  1  0.44063000  0.83124000  0.94551000  1
  C  C86  1  0.47031000  0.92153000  0.97018000  1
  C  C87  1  0.36815000  0.01552000  0.04757000  1
  C  C88  1  0.60206000  0.90619000  0.92314000  1
  C  C89  1  0.83387000  0.25761000  0.93168000  1
  C  C90  1  0.91445000  0.23719000  0.80168000  1
  C  C91  1  0.87600000  0.35122000  0.73740000  1
  C  C92  1  0.92188000  0.31144000  0.54083000  1
  C  C93  1  0.07345000  0.35939000  0.57078000  1
  C  C94  1  0.11065000  0.33333333  0.37235000  1
  C  C95  1  0.95868000  0.28243000  0.34541000  1
  C  C96  1  0.83496000  0.38513000  0.34054000  1
  C  C97  1  0.80467000  0.36453000  0.24898000  1
  C  C98  1  0.26495000  0.37581000  0.40220000  1
  C  C99  1  0.38890000  0.26046000  0.38519000  1
  C  C100  1  0.51751000  0.27306000  0.30485000  1
  N  N101  1  0.03855000  0.66120000  0.38841000  1
  N  N102  1  0.85673000  0.64224000  0.54940000  1
  N  N103  1  0.99960000  0.69122000  0.57802000  1
  N  N104  1  0.46358000  0.42861000  0.89226000  1
  N  N105  1  0.61591000  0.24016000  0.85659000  1
  N  N106  1  0.54266000  0.26414000  0.97272000  1
  N  N107  1  0.13761000  0.07387000  0.91723000  1
  N  N108  1  0.29380000  0.12235000  0.77344000  1
  N  N109  1  0.21709000  0.20310000  0.86327000  1
  N  N110  1  0.96145000  0.33880000  0.61159000  1
  N  N111  1  0.14327000  0.35776000  0.45060000  1
  N  N112  1  0.00040000  0.30879000  0.42197000  1
  N  N113  1  0.53642000  0.57139000  0.10773000  1
  N  N114  1  0.38409000  0.75984000  0.14340000  1
  N  N115  1  0.45734000  0.73586000  0.02727000  1
  N  N116  1  0.86239000  0.92613000  0.08277000  1
  N  N117  1  0.70621000  0.87765000  0.22656000  1
  N  N118  1  0.78291000  0.79690000  0.13672000  1
  O  O119  1  0.30512000  0.55761000  0.75362000  1
  O  O120  1  0.11551000  0.72319000  0.81908000  1
  O  O121  1  0.49328000  0.64615000  0.77167000  1
  O  O122  1  0.37768000  0.79427000  0.68624000  1
  O  O123  1  0.16081000  0.82581000  0.99886000  1
  O  O124  1  0.24249000  0.63471000  0.03250000  1
  O  O125  1  0.17636000  0.70796000  0.41968000  1
  O  O126  1  0.89253000  0.62000000  0.36431000  1
  O  O127  1  0.82370000  0.66681000  0.73289000  1
  O  O128  1  0.96945000  0.03913000  0.14752000  1
  O  O129  1  0.69488000  0.44240000  0.24638000  1
  O  O130  1  0.88449000  0.27681000  0.18092000  1
  O  O131  1  0.50672000  0.35385000  0.22833000  1
  O  O132  1  0.62232000  0.20573000  0.31376000  1
  O  O133  1  0.83919000  0.17419000  0.00113000  1
  O  O134  1  0.75751000  0.36529000  0.96750000  1
  O  O135  1  0.82364000  0.29204000  0.58031000  1
  O  O136  1  0.10747000  0.38000000  0.63569000  1
  O  O137  1  0.17631000  0.33319000  0.26711000  1
  O  O138  1  0.03055000  0.96087000  0.85248000  1
