# generated using pymatgen
data_Sc3H12C24O25
_symmetry_space_group_name_H-M   'P 1'
_cell_length_a   14.65514000
_cell_length_b   14.65515000
_cell_length_c   17.88531000
_cell_angle_alpha   90.00000000
_cell_angle_beta   90.00000000
_cell_angle_gamma   119.94947000
_symmetry_Int_Tables_number   1
_chemical_formula_structural   Sc3H12C24O25
_chemical_formula_sum   'Sc6 H24 C48 O50'
_cell_volume   3328.34433102
_cell_formula_units_Z   2
loop_
 _symmetry_equiv_pos_site_id
 _symmetry_equiv_pos_as_xyz
  1  'x, y, z'
loop_
 _atom_site_type_symbol
 _atom_site_label
 _atom_site_symmetry_multiplicity
 _atom_site_fract_x
 _atom_site_fract_y
 _atom_site_fract_z
 _atom_site_occupancy
  Sc  Sc0  1  0.74377000  0.25624000  0.74995000  1
  Sc  Sc1  1  0.74368000  0.48745000  0.74995000  1
  Sc  Sc2  1  0.51256000  0.25633000  0.74995000  1
  Sc  Sc3  1  0.25624000  0.74377000  0.25005000  1
  Sc  Sc4  1  0.25632000  0.51255000  0.25005000  1
  Sc  Sc5  1  0.48745000  0.74368000  0.25005000  1
  H  H6  1  0.90427000  0.60714000  0.89283000  1
  H  H7  1  0.39293000  0.29720000  0.89284000  1
  H  H8  1  0.70282000  0.09569000  0.89287000  1
  H  H9  1  0.09576000  0.39289000  0.39284000  1
  H  H10  1  0.60705000  0.70282000  0.39285000  1
  H  H11  1  0.29717000  0.90427000  0.39289000  1
  H  H12  1  0.09569000  0.70282000  0.10713000  1
  H  H13  1  0.60714000  0.90427000  0.10717000  1
  H  H14  1  0.29719000  0.39292000  0.10716000  1
  H  H15  1  0.90427000  0.29717000  0.60711000  1
  H  H16  1  0.39289000  0.09576000  0.60716000  1
  H  H17  1  0.70282000  0.60706000  0.60714000  1
  H  H18  1  0.09573000  0.39286000  0.10717000  1
  H  H19  1  0.60708000  0.70281000  0.10717000  1
  H  H20  1  0.29718000  0.90431000  0.10713000  1
  H  H21  1  0.90424000  0.60712000  0.60715000  1
  H  H22  1  0.39295000  0.29719000  0.60714000  1
  H  H23  1  0.70283000  0.09573000  0.60711000  1
  H  H24  1  0.90431000  0.29718000  0.89287000  1
  H  H25  1  0.39286000  0.09573000  0.89282000  1
  H  H26  1  0.70281000  0.60708000  0.89284000  1
  H  H27  1  0.09573000  0.70283000  0.39288000  1
  H  H28  1  0.60712000  0.90424000  0.39285000  1
  H  H29  1  0.29718000  0.39295000  0.39286000  1
  C  C30  1  0.97057000  0.56962000  0.96688000  1
  C  C31  1  0.43045000  0.40102000  0.96688000  1
  C  C32  1  0.59904000  0.02941000  0.96690000  1
  C  C33  1  0.02945000  0.43040000  0.46689000  1
  C  C34  1  0.56955000  0.59899000  0.46689000  1
  C  C35  1  0.40096000  0.97058000  0.46691000  1
  C  C36  1  0.02941000  0.59904000  0.03310000  1
  C  C37  1  0.56962000  0.97057000  0.03312000  1
  C  C38  1  0.40102000  0.43045000  0.03312000  1
  C  C39  1  0.97058000  0.40096000  0.53309000  1
  C  C40  1  0.43040000  0.02945000  0.53311000  1
  C  C41  1  0.59899000  0.56955000  0.53310000  1
  C  C42  1  0.02943000  0.43039000  0.03312000  1
  C  C43  1  0.56956000  0.59899000  0.03312000  1
  C  C44  1  0.40096000  0.97059000  0.03310000  1
  C  C45  1  0.97055000  0.56961000  0.53311000  1
  C  C46  1  0.43046000  0.40101000  0.53310000  1
  C  C47  1  0.59905000  0.02942000  0.53309000  1
  C  C48  1  0.97059000  0.40096000  0.96690000  1
  C  C49  1  0.43039000  0.02943000  0.96687000  1
  C  C50  1  0.59899000  0.56956000  0.96688000  1
  C  C51  1  0.02943000  0.59905000  0.46691000  1
  C  C52  1  0.56961000  0.97055000  0.46689000  1
  C  C53  1  0.40101000  0.43046000  0.46690000  1
  C  C54  1  0.87950000  0.43976000  0.86409000  1
  C  C55  1  0.94076000  0.47039000  0.93240000  1
  C  C56  1  0.56026000  0.43976000  0.86408000  1
  C  C57  1  0.52963000  0.47038000  0.93240000  1
  C  C58  1  0.56026000  0.12051000  0.86408000  1
  C  C59  1  0.52962000  0.05925000  0.93240000  1
  C  C60  1  0.12054000  0.56027000  0.36414000  1
  C  C61  1  0.05930000  0.52964000  0.43243000  1
  C  C62  1  0.43974000  0.56027000  0.36413000  1
  C  C63  1  0.47035000  0.52966000  0.43243000  1
  C  C64  1  0.43974000  0.87947000  0.36414000  1
  C  C65  1  0.47036000  0.94070000  0.43244000  1
  C  C66  1  0.12051000  0.56025000  0.13591000  1
  C  C67  1  0.05924000  0.52961000  0.06760000  1
  C  C68  1  0.43975000  0.87950000  0.13591000  1
  C  C69  1  0.47039000  0.94076000  0.06760000  1
  C  C70  1  0.43975000  0.56025000  0.13592000  1
  C  C71  1  0.47037000  0.52963000  0.06760000  1
  C  C72  1  0.87947000  0.43974000  0.63586000  1
  C  C73  1  0.94070000  0.47036000  0.56756000  1
  C  C74  1  0.56027000  0.12054000  0.63586000  1
  C  C75  1  0.52964000  0.05930000  0.56757000  1
  C  C76  1  0.56027000  0.43974000  0.63587000  1
  C  C77  1  0.52966000  0.47035000  0.56757000  1
  O  O78  1  0.85072000  0.34854000  0.83319000  1
  O  O79  1  0.94451000  0.63956000  0.93893000  1
  O  O80  1  0.65143000  0.50216000  0.83317000  1
  O  O81  1  0.36056000  0.30509000  0.93896000  1
  O  O82  1  0.49779000  0.14929000  0.83317000  1
  O  O83  1  0.69501000  0.05544000  0.93898000  1
  O  O84  1  0.14930000  0.65147000  0.33322000  1
  O  O85  1  0.05550000  0.36045000  0.43893000  1
  O  O86  1  0.34857000  0.49786000  0.33321000  1
  O  O87  1  0.63944000  0.69492000  0.43896000  1
  O  O88  1  0.50221000  0.85071000  0.33320000  1
  O  O89  1  0.30500000  0.94455000  0.43898000  1
  O  O90  1  0.14929000  0.49779000  0.16683000  1
  O  O91  1  0.05544000  0.69501000  0.06102000  1
  O  O92  1  0.34854000  0.85072000  0.16681000  1
  O  O93  1  0.63956000  0.94450000  0.06107000  1
  O  O94  1  0.50215000  0.65142000  0.16682000  1
  O  O95  1  0.30509000  0.36056000  0.06104000  1
  O  O96  1  0.85071000  0.50222000  0.66680000  1
  O  O97  1  0.94455000  0.30500000  0.56102000  1
  O  O98  1  0.65148000  0.14930000  0.66678000  1
  O  O99  1  0.36045000  0.05550000  0.56107000  1
  O  O100  1  0.49787000  0.34858000  0.66679000  1
  O  O101  1  0.69492000  0.63944000  0.56103000  1
  O  O102  1  0.14928000  0.65147000  0.16681000  1
  O  O103  1  0.05550000  0.36044000  0.06107000  1
  O  O104  1  0.34858000  0.49785000  0.16682000  1
  O  O105  1  0.63944000  0.69492000  0.06104000  1
  O  O106  1  0.50221000  0.85071000  0.16683000  1
  O  O107  1  0.30500000  0.94456000  0.06102000  1
  O  O108  1  0.85071000  0.34854000  0.66678000  1
  O  O109  1  0.94450000  0.63955000  0.56106000  1
  O  O110  1  0.65143000  0.50215000  0.66679000  1
  O  O111  1  0.36057000  0.30509000  0.56103000  1
  O  O112  1  0.49780000  0.14930000  0.66680000  1
  O  O113  1  0.69501000  0.05545000  0.56102000  1
  O  O114  1  0.85072000  0.50222000  0.83317000  1
  O  O115  1  0.94456000  0.30500000  0.93898000  1
  O  O116  1  0.65147000  0.14929000  0.83319000  1
  O  O117  1  0.36044000  0.05550000  0.93893000  1
  O  O118  1  0.49787000  0.34859000  0.83317000  1
  O  O119  1  0.69492000  0.63945000  0.93896000  1
  O  O120  1  0.14930000  0.49779000  0.33320000  1
  O  O121  1  0.05545000  0.69501000  0.43898000  1
  O  O122  1  0.34853000  0.85071000  0.33322000  1
  O  O123  1  0.63955000  0.94450000  0.43893000  1
  O  O124  1  0.50214000  0.65143000  0.33321000  1
  O  O125  1  0.30509000  0.36057000  0.43897000  1
  O  O126  1  0.66666667  0.33333333  0.75010000  1
  O  O127  1  0.33333333  0.66666667  0.24990000  1
