# generated using pymatgen
data_Hf3H14(C3O2)8
_symmetry_space_group_name_H-M   'P 1'
_cell_length_a   14.66770000
_cell_length_b   14.66827977
_cell_length_c   14.66811076
_cell_angle_alpha   59.99971395
_cell_angle_beta   59.99929914
_cell_angle_gamma   59.99878265
_symmetry_Int_Tables_number   1
_chemical_formula_structural   Hf3H14(C3O2)8
_chemical_formula_sum   'Hf6 H28 C48 O32'
_cell_volume   2231.48078447
_cell_formula_units_Z   2
loop_
 _symmetry_equiv_pos_site_id
 _symmetry_equiv_pos_as_xyz
  1  'x, y, z'
loop_
 _atom_site_type_symbol
 _atom_site_label
 _atom_site_symmetry_multiplicity
 _atom_site_fract_x
 _atom_site_fract_y
 _atom_site_fract_z
 _atom_site_occupancy
  Hf  Hf1  1  0.88138000  0.11862000  0.88138000  1.0
  Hf  Hf2  1  0.88138000  0.11862000  0.11863000  1.0
  Hf  Hf3  1  0.88138000  0.88137000  0.11863000  1.0
  Hf  Hf4  1  0.11863000  0.88137000  0.88138000  1.0
  Hf  Hf5  1  0.11863000  0.88137000  0.11863000  1.0
  Hf  Hf6  1  0.11863000  0.11862000  0.88138000  1.0
  H  H1  1  0.57875000  0.86090000  0.40703000  1.0
  H  H2  1  0.57875000  0.40702000  0.15333000  1.0
  H  H3  1  0.40702000  0.57876000  0.86090000  1.0
  H  H4  1  0.57875000  0.15332000  0.40703000  1.0
  H  H5  1  0.40702000  0.15332000  0.86090000  1.0
  H  H6  1  0.86089000  0.40702000  0.57877000  1.0
  H  H7  1  0.15331000  0.86090000  0.57877000  1.0
  H  H8  1  0.40701000  0.57876000  0.15333000  1.0
  H  H9  1  0.86089000  0.40702000  0.15333000  1.0
  H  H10  1  0.90595000  0.28214000  0.90596000  1.0
  H  H11  1  0.15332000  0.57876000  0.86090000  1.0
  H  H12  1  0.15332000  0.86090000  0.40702000  1.0
  H  H13  1  0.86089000  0.57876000  0.40703000  1.0
  H  H14  1  0.28215000  0.90595000  0.90595000  1.0
  H  H15  1  0.40701000  0.86090000  0.57877000  1.0
  H  H16  1  0.86089000  0.15332000  0.57877000  1.0
  H  H17  1  0.90595000  0.90595000  0.28215000  1.0
  H  H18  1  0.15332000  0.57876000  0.40702000  1.0
  H  H19  1  0.90595000  0.90595000  0.90596000  1.0
  H  H20  1  0.57876000  0.15332000  0.86091000  1.0
  H  H21  1  0.57875000  0.86090000  0.15333000  1.0
  H  H22  1  0.15331000  0.40702000  0.57877000  1.0
  H  H23  1  0.40701000  0.86090000  0.15333000  1.0
  H  H24  1  0.86089000  0.57876000  0.15333000  1.0
  H  H25  1  0.57875000  0.40702000  0.86091000  1.0
  H  H26  1  0.86089000  0.15332000  0.40703000  1.0
  H  H27  1  0.40701000  0.15332000  0.57877000  1.0
  H  H28  1  0.15332000  0.40702000  0.86090000  1.0
  C  C1  1  0.54028000  0.44540000  0.09002000  1.0
  C  C2  1  0.29839000  0.00448000  0.69265000  1.0
  C  C3  1  0.54027000  0.92431000  0.09002000  1.0
  C  C4  1  0.92430000  0.09001000  0.54029000  1.0
  C  C5  1  0.00672000  0.00673000  0.58868000  1.0
  C  C6  1  0.09001000  0.92431000  0.54028000  1.0
  C  C7  1  0.92430000  0.54028000  0.09002000  1.0
  C  C8  1  0.09002000  0.44540000  0.54028000  1.0
  C  C9  1  0.44540000  0.54028000  0.92431000  1.0
  C  C10  1  0.54028000  0.09001000  0.44541000  1.0
  C  C11  1  0.00673000  0.58867000  0.00673000  1.0
  C  C12  1  0.09001000  0.54028000  0.92431000  1.0
  C  C13  1  0.39788000  0.58867000  0.00673000  1.0
  C  C14  1  0.00448000  0.69264000  0.29840000  1.0
  C  C15  1  0.69264000  0.00448000  0.29841000  1.0
  C  C16  1  0.00448000  0.00448000  0.29840000  1.0
  C  C17  1  0.00448000  0.29839000  0.00449000  1.0
  C  C18  1  0.92430000  0.54028000  0.44541000  1.0
  C  C19  1  0.29839000  0.69264000  0.00449000  1.0
  C  C20  1  0.44540000  0.09001000  0.54029000  1.0
  C  C21  1  0.54027000  0.92431000  0.44541000  1.0
  C  C22  1  0.09001000  0.92431000  0.44540000  1.0
  C  C23  1  0.00673000  0.39787000  0.58868000  1.0
  C  C24  1  0.39788000  0.00672000  0.00673000  1.0
  C  C25  1  0.39787000  0.00672000  0.58869000  1.0
  C  C26  1  0.00673000  0.39787000  0.00673000  1.0
  C  C27  1  0.44540000  0.09001000  0.92431000  1.0
  C  C28  1  0.58867000  0.39787000  0.00674000  1.0
  C  C29  1  0.44540000  0.54028000  0.09002000  1.0
  C  C30  1  0.00673000  0.58867000  0.39788000  1.0
  C  C31  1  0.58866000  0.00673000  0.00674000  1.0
  C  C32  1  0.00672000  0.00673000  0.39788000  1.0
  C  C33  1  0.54028000  0.09001000  0.92431000  1.0
  C  C34  1  0.58867000  0.00673000  0.39788000  1.0
  C  C35  1  0.44539000  0.92431000  0.54029000  1.0
  C  C36  1  0.92430000  0.09001000  0.44541000  1.0
  C  C37  1  0.92430000  0.44540000  0.09002000  1.0
  C  C38  1  0.69264000  0.29840000  0.00449000  1.0
  C  C39  1  0.92430000  0.44540000  0.54029000  1.0
  C  C40  1  0.09002000  0.54028000  0.44540000  1.0
  C  C41  1  0.29839000  0.00448000  0.00449000  1.0
  C  C42  1  0.09001000  0.44540000  0.92431000  1.0
  C  C43  1  0.54028000  0.44540000  0.92431000  1.0
  C  C44  1  0.00448000  0.29839000  0.69265000  1.0
  C  C45  1  0.00448000  0.69264000  0.00449000  1.0
  C  C46  1  0.44539000  0.92431000  0.09002000  1.0
  C  C47  1  0.00448000  0.00448000  0.69265000  1.0
  C  C48  1  0.69264000  0.00448000  0.00449000  1.0
  O  O1  1  0.26027000  0.73402000  0.92513000  1.0
  O  O2  1  0.04962000  0.85113000  0.04963000  1.0
  O  O3  1  0.92513000  0.26026000  0.73403000  1.0
  O  O4  1  0.26027000  0.08058000  0.92513000  1.0
  O  O5  1  0.08058000  0.73402000  0.26028000  1.0
  O  O6  1  0.92513000  0.26026000  0.08059000  1.0
  O  O7  1  0.08059000  0.26027000  0.92512000  1.0
  O  O8  1  0.08058000  0.92512000  0.73403000  1.0
  O  O9  1  0.04962000  0.04962000  0.85114000  1.0
  O  O10  1  0.08059000  0.73402000  0.92512000  1.0
  O  O11  1  0.08058000  0.92512000  0.26028000  1.0
  O  O12  1  0.26027000  0.73402000  0.08059000  1.0
  O  O13  1  0.20119000  0.93294000  0.93294000  1.0
  O  O14  1  0.26027000  0.92512000  0.08059000  1.0
  O  O15  1  0.73402000  0.26027000  0.08059000  1.0
  O  O16  1  0.73402000  0.08058000  0.26028000  1.0
  O  O17  1  0.26027000  0.08058000  0.73403000  1.0
  O  O18  1  0.08058000  0.26027000  0.73403000  1.0
  O  O19  1  0.85112000  0.04962000  0.04964000  1.0
  O  O20  1  0.73402000  0.92512000  0.08059000  1.0
  O  O21  1  0.92513000  0.73402000  0.26027000  1.0
  O  O22  1  0.92513000  0.08058000  0.26027000  1.0
  O  O23  1  0.93294000  0.20119000  0.93294000  1.0
  O  O24  1  0.73402000  0.92512000  0.26028000  1.0
  O  O25  1  0.92513000  0.73402000  0.08059000  1.0
  O  O26  1  0.73402000  0.26027000  0.92513000  1.0
  O  O27  1  0.04962000  0.04962000  0.04963000  1.0
  O  O28  1  0.73402000  0.08058000  0.92513000  1.0
  O  O29  1  0.93295000  0.93293000  0.20119000  1.0
  O  O30  1  0.93294000  0.93293000  0.93294000  1.0
  O  O31  1  0.92513000  0.08058000  0.73403000  1.0
  O  O32  1  0.26027000  0.92512000  0.73403000  1.0
