# generated using pymatgen
data_PrH2C5O6
_symmetry_space_group_name_H-M   'P 1'
_cell_length_a   9.14320000
_cell_length_b   9.14320000
_cell_length_c   14.77297873
_cell_angle_alpha   100.12087933
_cell_angle_beta   100.12187934
_cell_angle_gamma   115.60200000
_symmetry_Int_Tables_number   1
_chemical_formula_structural   PrH2C5O6
_chemical_formula_sum   'Pr4 H8 C20 O24'
_cell_volume   1051.42820095
_cell_formula_units_Z   4
loop_
 _symmetry_equiv_pos_site_id
 _symmetry_equiv_pos_as_xyz
  1  'x, y, z'
loop_
 _atom_site_type_symbol
 _atom_site_label
 _atom_site_symmetry_multiplicity
 _atom_site_fract_x
 _atom_site_fract_y
 _atom_site_fract_z
 _atom_site_occupancy
  Pr  Pr1  1  0.74081000  0.99081000  0.48162000  1.0
  Pr  Pr2  1  0.50919000  0.75919000  0.01838000  1.0
  Pr  Pr3  1  0.25919000  0.00919000  0.51838000  1.0
  Pr  Pr4  1  0.49081000  0.24081000  0.98162000  1.0
  H  H1  1  0.88200000  0.43800000  0.57000000  1.0
  H  H2  1  0.68800000  0.63200000  0.57000000  1.0
  H  H3  1  0.06200000  0.61800000  0.93000000  1.0
  H  H4  1  0.86800000  0.81200000  0.93000000  1.0
  H  H5  1  0.11800000  0.56200000  0.43000000  1.0
  H  H6  1  0.31200000  0.36800000  0.43000000  1.0
  H  H7  1  0.93800000  0.38200000  0.07000000  1.0
  H  H8  1  0.13200000  0.18800000  0.07000000  1.0
  C  C1  1  0.61881000  0.30741000  0.55842000  1.0
  C  C2  1  0.77862000  0.45882000  0.56484000  1.0
  C  C3  1  0.93961000  0.75101000  0.55842000  1.0
  C  C4  1  0.78622000  0.60602000  0.56484000  1.0
  C  C5  1  0.19259000  0.88119000  0.94158000  1.0
  C  C6  1  0.04118000  0.72138000  0.93516000  1.0
  C  C7  1  0.74899000  0.56039000  0.94158000  1.0
  C  C8  1  0.89398000  0.71378000  0.93516000  1.0
  C  C9  1  0.38119000  0.69259000  0.44158000  1.0
  C  C10  1  0.22138000  0.54118000  0.43516000  1.0
  C  C11  1  0.06039000  0.24899000  0.44158000  1.0
  C  C12  1  0.21378000  0.39398000  0.43516000  1.0
  C  C13  1  0.80741000  0.11881000  0.05842000  1.0
  C  C14  1  0.95882000  0.27862000  0.06484000  1.0
  C  C15  1  0.25101000  0.43961000  0.05842000  1.0
  C  C16  1  0.10602000  0.28622000  0.06484000  1.0
  C  C17  1  0.57450000  0.92550000  0.25000000  1.0
  C  C18  1  0.67550000  0.82450000  0.25000000  1.0
  C  C19  1  0.42550000  0.07450000  0.75000000  1.0
  C  C20  1  0.32450000  0.17550000  0.75000000  1.0
  O  O1  1  0.56749000  0.99029000  0.32958000  1.0
  O  O2  1  0.61485000  0.16691000  0.53316000  1.0
  O  O3  1  0.49319000  0.31805000  0.57584000  1.0
  O  O4  1  0.76209000  0.83929000  0.32958000  1.0
  O  O5  1  0.91831000  0.86625000  0.53316000  1.0
  O  O6  1  0.08265000  0.75779000  0.57584000  1.0
  O  O7  1  0.50971000  0.93251000  0.17042000  1.0
  O  O8  1  0.33309000  0.88515000  0.96684000  1.0
  O  O9  1  0.18195000  0.00681000  0.92416000  1.0
  O  O10  1  0.66071000  0.73791000  0.17042000  1.0
  O  O11  1  0.63375000  0.58169000  0.96684000  1.0
  O  O12  1  0.74221000  0.41735000  0.92416000  1.0
  O  O13  1  0.43251000  0.00971000  0.67042000  1.0
  O  O14  1  0.38515000  0.83309000  0.46684000  1.0
  O  O15  1  0.50681000  0.68195000  0.42416000  1.0
  O  O16  1  0.23791000  0.16071000  0.67042000  1.0
  O  O17  1  0.08169000  0.13375000  0.46684000  1.0
  O  O18  1  0.91735000  0.24221000  0.42416000  1.0
  O  O19  1  0.49029000  0.06749000  0.82958000  1.0
  O  O20  1  0.66691000  0.11485000  0.03316000  1.0
  O  O21  1  0.81805000  0.99319000  0.07584000  1.0
  O  O22  1  0.33929000  0.26209000  0.82958000  1.0
  O  O23  1  0.36625000  0.41831000  0.03316000  1.0
  O  O24  1  0.25779000  0.58265000  0.07584000  1.0
