# generated using pymatgen
data_H6C7N3
_symmetry_space_group_name_H-M   'P 1'
_cell_length_a   10.02580000
_cell_length_b   28.95675000
_cell_length_c   28.95680000
_cell_angle_alpha   120.00017136
_cell_angle_beta   90.00000000
_cell_angle_gamma   90.00000000
_symmetry_Int_Tables_number   1
_chemical_formula_structural   H6C7N3
_chemical_formula_sum   'H36 C42 N18'
_cell_volume   7280.30043734
_cell_formula_units_Z   6
loop_
 _symmetry_equiv_pos_site_id
 _symmetry_equiv_pos_as_xyz
  1  'x, y, z'
loop_
 _atom_site_type_symbol
 _atom_site_label
 _atom_site_symmetry_multiplicity
 _atom_site_fract_x
 _atom_site_fract_y
 _atom_site_fract_z
 _atom_site_occupancy
  C  1  1  0.91254500  0.64729400  0.27996400  1
  C  3  1  0.91214600  0.72262500  0.36662800  1
  C  5  1  0.91253600  0.63596100  0.35530300  1
  C  13  1  0.09524300  0.35656600  0.72131800  1
  C  15  1  0.09565200  0.28122900  0.63466200  1
  C  17  1  0.09525500  0.36788600  0.64597200  1
  C  25  1  0.97208200  0.43281300  0.85999900  1
  C  26  1  0.05350000  0.47865500  0.88557600  1
  C  27  1  0.06699800  0.50667000  0.94136500  1
  C  28  1  0.99860500  0.48886000  0.97235600  1
  C  30  1  0.90452600  0.41672200  0.89235400  1
  C  31  1  0.00909400  0.51501000  0.02891600  1
  C  32  1  0.94068200  0.49720500  0.05990800  1
  C  33  1  0.95418700  0.52522000  0.11569700  1
  C  34  1  0.03563500  0.57105400  0.14127400  1
  C  35  1  0.10317200  0.58714600  0.10891500  1
  C  43  1  0.04616000  0.60140400  0.20025100  1
  C  46  1  0.96158800  0.40245200  0.80102000  1
  C  49  1  0.97237200  0.43010900  0.56947300  1
  C  50  1  0.05471900  0.41020500  0.52391400  1
  C  51  1  0.06813400  0.43810200  0.49601800  1
  C  52  1  0.99869400  0.48665800  0.51365700  1
  C  54  1  0.90381700  0.47832100  0.58539900  1
  C  55  1  0.00899600  0.51717100  0.48760800  1
  C  56  1  0.93953600  0.56572100  0.50524200  1
  C  57  1  0.95296000  0.59361700  0.47734600  1
  C  58  1  0.03534700  0.57372500  0.43179800  1
  C  59  1  0.10388200  0.52551000  0.41587100  1
  C  67  1  0.04587000  0.60248100  0.40157600  1
  C  70  1  0.96188700  0.40136100  0.59970500  1
  C  73  1  0.97228300  0.14258000  0.57194700  1
  C  74  1  0.05279300  0.11702200  0.59249900  1
  C  75  1  0.06618400  0.06122900  0.56481500  1
  C  76  1  0.99860300  0.03021600  0.51581700  1
  C  78  1  0.90552200  0.11020600  0.52331200  1
  C  79  1  0.00902500  0.97365600  0.48549600  1
  C  80  1  0.94141100  0.94264300  0.43650700  1
  C  81  1  0.95481600  0.88685000  0.40882300  1
  C  82  1  0.03538600  0.86129000  0.42935600  1
  C  83  1  0.10213600  0.89366900  0.47799700  1
  C  91  1  0.04585000  0.80231500  0.40079900  1
  C  94  1  0.96187700  0.20155900  0.60049300  1
  H  8  1  0.88701200  0.78864200  0.43760200  1
  H  10  1  0.88918700  0.56482700  0.35017300  1
  H  12  1  0.88838900  0.65233500  0.21394500  1
  H  20  1  0.12077700  0.21520100  0.56369200  1
  H  22  1  0.11860300  0.43901600  0.65108700  1
  H  24  1  0.11939100  0.35154100  0.78734400  1
  H  37  1  0.16305400  0.62011000  0.12517100  1
  H  38  1  0.88035700  0.46433200  0.04261500  1
  H  39  1  0.90328000  0.51217100  0.13764800  1
  H  40  1  0.84474900  0.38372800  0.87609600  1
  H  41  1  0.10439500  0.49170700  0.86362500  1
  H  42  1  0.12729100  0.53955300  0.95866000  1
  H  44  1  0.11986000  0.63350100  0.21348600  1
  H  45  1  0.08102500  0.57389100  0.21324100  1
  H  47  1  0.92670900  0.42995500  0.78802100  1
  H  48  1  0.88791000  0.37034600  0.78778200  1
  H  61  1  0.16448600  0.50906900  0.38311600  1
  H  62  1  0.87852400  0.58103500  0.53790600  1
  H  63  1  0.90132200  0.62844000  0.49027300  1
  H  64  1  0.84331400  0.49478500  0.61817900  1
  H  65  1  0.10635500  0.37538000  0.51098500  1
  H  66  1  0.12910700  0.42277600  0.46334000  1
  H  68  1  0.12023000  0.58390200  0.36970600  1
  H  69  1  0.07984400  0.64307300  0.42925600  1
  H  71  1  0.92788700  0.36077000  0.57203500  1
  H  72  1  0.88754800  0.41994900  0.63158700  1
  H  85  1  0.16135400  0.87742600  0.49490700  1
  H  86  1  0.88174400  0.95992300  0.42072100  1
  H  87  1  0.90450700  0.86488400  0.37367400  1
  H  88  1  0.84641700  0.12645100  0.50636900  1
  H  89  1  0.10309300  0.13898400  0.62764800  1
  H  90  1  0.12580400  0.04394500  0.58061200  1
  H  92  1  0.11892300  0.78909700  0.41988900  1
  H  93  1  0.08152800  0.78929000  0.36039100  1
  H  95  1  0.92616900  0.21459600  0.64090100  1
  H  96  1  0.88884400  0.21478200  0.58139200  1
  N  2  1  0.91205700  0.70102400  0.31285900  1
  N  4  1  0.91202600  0.68973300  0.38746600  1
  N  6  1  0.91239500  0.61513000  0.30157000  1
  N  7  1  0.91352100  0.77852100  0.39936800  1
  N  9  1  0.91410100  0.60320400  0.37844500  1
  N  11  1  0.91410000  0.62414700  0.22406700  1
  N  14  1  0.09573200  0.30283500  0.68843000  1
  N  16  1  0.09577000  0.31411400  0.61381500  1
  N  18  1  0.09539400  0.38872600  0.69970500  1
  N  19  1  0.09423700  0.22533400  0.60192800  1
  N  21  1  0.09367600  0.40063700  0.62282100  1
  N  23  1  0.09366800  0.37972200  0.77721700  1
  N  29  1  0.92050400  0.44466800  0.94600500  1
  N  36  1  0.08722400  0.55919500  0.05526400  1
  N  53  1  0.91972500  0.50415000  0.55757200  1
  N  60  1  0.08800100  0.49968600  0.44370100  1
  N  77  1  0.92136300  0.05655100  0.49770200  1
  N  84  1  0.08630600  0.94732200  0.50360100  1
