# generated using pymatgen
data_CuH10C16(NO)4
_symmetry_space_group_name_H-M   'P 1'
_cell_length_a   11.84002000
_cell_length_b   11.92034000
_cell_length_c   12.60334000
_cell_angle_alpha   88.00540000
_cell_angle_beta   77.47102000
_cell_angle_gamma   62.89904000
_symmetry_Int_Tables_number   1
_chemical_formula_structural   CuH10C16(NO)4
_chemical_formula_sum   'Cu3 H30 C48 N12 O12'
_cell_volume   1541.58626417
_cell_formula_units_Z   3
loop_
 _symmetry_equiv_pos_site_id
 _symmetry_equiv_pos_as_xyz
  1  'x, y, z'
loop_
 _atom_site_type_symbol
 _atom_site_label
 _atom_site_symmetry_multiplicity
 _atom_site_fract_x
 _atom_site_fract_y
 _atom_site_fract_z
 _atom_site_occupancy
  Cu  Cu0  1  0.60026000  0.05080000  0.73644000  1
  Cu  Cu1  1  0.07809000  0.07143000  0.20516000  1
  Cu  Cu2  1  0.08506000  0.59485000  0.72395000  1
  H  H3  1  0.33137000  0.09324000  0.47697000  1
  H  H4  1  0.13836000  0.85827000  0.50047000  1
  H  H5  1  0.35811000  0.84359000  0.73534000  1
  H  H6  1  0.77434000  0.40781000  0.71191000  1
  H  H7  1  0.80035000  0.12100000  0.93529000  1
  H  H8  1  0.01706000  0.32710000  0.94210000  1
  H  H9  1  0.87926000  0.89872000  0.22153000  1
  H  H10  1  0.92263000  0.53826000  0.11442000  1
  H  H11  1  0.85730000  0.63303000  0.45708000  1
  H  H12  1  0.67514000  0.83692000  0.54795000  1
  H  H13  1  0.82730000  0.09020000  0.57314000  1
  H  H14  1  0.95382000  0.94988000  0.37548000  1
  H  H15  1  0.04087000  0.55297000  0.96776000  1
  H  H16  1  0.85378000  0.95002000  0.04982000  1
  H  H17  1  0.92644000  0.90205000  0.82618000  1
  H  H18  1  0.03239000  0.34218000  0.15985000  1
  H  H19  1  0.85941000  0.22615000  0.44101000  1
  H  H20  1  0.77939000  0.48157000  0.47319000  1
  H  H21  1  0.32990000  0.47656000  0.98215000  1
  H  H22  1  0.30110000  0.24610000  0.24920000  1
  H  H23  1  0.15937000  0.64565000  0.31111000  1
  H  H24  1  0.19552000  0.79224000  0.26397000  1
  H  H25  1  0.18228000  0.92915000  0.95242000  1
  H  H26  1  0.25158000  0.67738000  0.93049000  1
  H  H27  1  0.49369000  0.29013000  0.90436000  1
  H  H28  1  0.28030000  0.13330000  0.11725000  1
  H  H29  1  0.41050000  0.98104000  0.92340000  1
  H  H30  1  0.19858000  0.60077000  0.47267000  1
  H  H31  1  0.17373000  0.26455000  0.41052000  1
  H  H32  1  0.12227000  0.31892000  0.63302000  1
  C  C33  1  0.34813000  0.97785000  0.61325000  1
  C  C34  1  0.30595000  0.02337000  0.51789000  1
  C  C35  1  0.23274000  0.97878000  0.47542000  1
  C  C36  1  0.19909000  0.89014000  0.53050000  1
  C  C37  1  0.24411000  0.84131000  0.62424000  1
  C  C38  1  0.32034000  0.88419000  0.66427000  1
  C  C39  1  0.42592000  0.02889000  0.65592000  1
  C  C40  1  0.19476000  0.02390000  0.37052000  1
  C  C41  1  0.21454000  0.74147000  0.68171000  1
  C  C42  1  0.89702000  0.38092000  0.82463000  1
  C  C43  1  0.81432000  0.35382000  0.77778000  1
  C  C44  1  0.78479000  0.25583000  0.81422000  1
  C  C45  1  0.82855000  0.19280000  0.90412000  1
  C  C46  1  0.90860000  0.22097000  0.95313000  1
  C  C47  1  0.94729000  0.31115000  0.90982000  1
  C  C48  1  0.93703000  0.47900000  0.77934000  1
  C  C49  1  0.70976000  0.21525000  0.75571000  1
  C  C50  1  0.95375000  0.15294000  0.04918000  1
  C  C51  1  0.85846000  0.77615000  0.34725000  1
  C  C52  1  0.88382000  0.80693000  0.23937000  1
  C  C53  1  0.91186000  0.71801000  0.15547000  1
  C  C54  1  0.91195000  0.60227000  0.17929000  1
  C  C55  1  0.89297000  0.57166000  0.28756000  1
  C  C56  1  0.86695000  0.65775000  0.37283000  1
  C  C57  1  0.73375000  0.88605000  0.52928000  1
  C  C58  1  0.81478000  0.01673000  0.53755000  1
  C  C59  1  0.87609000  0.94952000  0.43863000  1
  C  C60  1  0.99909000  0.65339000  0.95939000  1
  C  C61  1  0.89988000  0.86152000  0.00023000  1
  C  C62  1  0.93982000  0.83620000  0.88936000  1
  C  C63  1  0.97476000  0.34450000  0.23971000  1
  C  C64  1  0.88473000  0.28820000  0.38761000  1
  C  C65  1  0.84456000  0.41498000  0.40481000  1
  C  C66  1  0.25018000  0.57323000  0.14334000  1
  C  C67  1  0.30274000  0.46828000  0.06894000  1
  C  C68  1  0.31790000  0.35190000  0.10843000  1
  C  C69  1  0.28425000  0.33808000  0.21977000  1
  C  C70  1  0.22999000  0.44529000  0.29214000  1
  C  C71  1  0.20996000  0.56278000  0.25431000  1
  C  C72  1  0.19924000  0.79521000  0.17762000  1
  C  C73  1  0.19579000  0.86212000  0.01449000  1
  C  C74  1  0.23066000  0.73591000  0.00332000  1
  C  C75  1  0.45283000  0.22718000  0.93371000  1
  C  C76  1  0.34213000  0.14278000  0.04430000  1
  C  C77  1  0.40798000  0.06783000  0.94933000  1
  C  C78  1  0.18224000  0.51890000  0.48612000  1
  C  C79  1  0.16957000  0.34185000  0.45668000  1
  C  C80  1  0.14332000  0.37075000  0.56621000  1
  N  N81  1  0.72612000  0.97704000  0.59246000  1
  N  N82  1  0.82456000  0.86605000  0.43406000  1
  N  N83  1  0.93716000  0.74422000  0.04466000  1
  N  N84  1  0.00112000  0.70638000  0.86544000  1
  N  N85  1  0.90223000  0.45045000  0.30990000  1
  N  N86  1  0.96553000  0.24592000  0.28462000  1
  N  N87  1  0.23131000  0.69388000  0.10826000  1
  N  N88  1  0.17657000  0.89783000  0.12335000  1
  N  N89  1  0.36990000  0.24515000  0.03327000  1
  N  N90  1  0.47709000  0.12093000  0.88213000  1
  N  N91  1  0.19443000  0.43667000  0.40566000  1
  N  N92  1  0.15070000  0.48150000  0.58338000  1
  O  O93  1  0.50477000  0.95387000  0.71427000  1
  O  O94  1  0.41640000  0.13511000  0.63269000  1
  O  O95  1  0.24152000  0.08693000  0.31194000  1
  O  O96  1  0.11090000  0.99376000  0.34370000  1
  O  O97  1  0.13142000  0.71801000  0.64537000  1
  O  O98  1  0.26792000  0.68855000  0.75708000  1
  O  O99  1  0.04351000  0.46819000  0.80380000  1
  O  O100  1  0.87512000  0.55954000  0.72035000  1
  O  O101  1  0.65063000  0.28144000  0.68805000  1
  O  O102  1  0.71644000  0.10575000  0.78291000  1
  O  O103  1  0.89633000  0.09768000  0.10627000  1
  O  O104  1  0.05681000  0.15488000  0.06864000  1
