# generated using pymatgen
data_YH6(C2O)6
_symmetry_space_group_name_H-M   'P 1'
_cell_length_a   9.84880000
_cell_length_b   10.61300000
_cell_length_c   12.63360000
_cell_angle_alpha   69.65800000
_cell_angle_beta   73.77200000
_cell_angle_gamma   62.53700000
_symmetry_Int_Tables_number   1
_chemical_formula_structural   YH6(C2O)6
_chemical_formula_sum   'Y2 H12 C24 O12'
_cell_volume   1087.31967486
_cell_formula_units_Z   2
loop_
 _symmetry_equiv_pos_site_id
 _symmetry_equiv_pos_as_xyz
  1  'x, y, z'
loop_
 _atom_site_type_symbol
 _atom_site_label
 _atom_site_symmetry_multiplicity
 _atom_site_fract_x
 _atom_site_fract_y
 _atom_site_fract_z
 _atom_site_occupancy
  Y  Y1  1  0.04889000  0.78007000  0.69120000  1.0
  Y  Y2  1  0.95111000  0.21993000  0.30880000  1.0
  H  H1  1  0.24460000  0.62680000  0.06130000  1.0
  H  H2  1  0.57820000  0.48560000  0.81370000  1.0
  H  H3  1  0.38530000  0.88970000  0.67060000  1.0
  H  H4  1  0.36350000  0.13400000  0.34570000  1.0
  H  H5  1  0.65640000  0.12810000  0.92760000  1.0
  H  H6  1  0.55720000  0.79650000  0.93850000  1.0
  H  H7  1  0.75540000  0.37320000  0.93870000  1.0
  H  H8  1  0.42180000  0.51440000  0.18630000  1.0
  H  H9  1  0.61470000  0.11030000  0.32940000  1.0
  H  H10  1  0.63650000  0.86600000  0.65430000  1.0
  H  H11  1  0.34360000  0.87190000  0.07240000  1.0
  H  H12  1  0.44280000  0.20350000  0.06150000  1.0
  C  C1  1  0.39160000  0.57040000  0.92330000  1.0
  C  C2  1  0.34800000  0.57590000  0.03560000  1.0
  C  C3  1  0.54550000  0.49240000  0.88880000  1.0
  C  C4  1  0.27540000  0.64510000  0.84090000  1.0
  C  C5  1  0.35080000  0.01360000  0.50980000  1.0
  C  C6  1  0.43150000  0.93370000  0.60240000  1.0
  C  C7  1  0.41840000  0.08040000  0.40730000  1.0
  C  C8  1  0.18990000  0.02560000  0.51910000  1.0
  C  C9  1  0.63090000  0.95440000  0.91860000  1.0
  C  C10  1  0.59380000  0.07620000  0.95660000  1.0
  C  C11  1  0.53490000  0.87810000  0.96290000  1.0
  C  C12  1  0.77440000  0.90120000  0.83600000  1.0
  C  C13  1  0.60840000  0.42960000  0.07670000  1.0
  C  C14  1  0.65200000  0.42410000  0.96440000  1.0
  C  C15  1  0.45450000  0.50760000  0.11120000  1.0
  C  C16  1  0.72460000  0.35490000  0.15910000  1.0
  C  C17  1  0.64920000  0.98640000  0.49020000  1.0
  C  C18  1  0.56850000  0.06630000  0.39760000  1.0
  C  C19  1  0.58160000  0.91960000  0.59270000  1.0
  C  C20  1  0.81010000  0.97440000  0.48090000  1.0
  C  C21  1  0.36910000  0.04560000  0.08140000  1.0
  C  C22  1  0.40620000  0.92380000  0.04340000  1.0
  C  C23  1  0.46510000  0.12190000  0.03710000  1.0
  C  C24  1  0.22560000  0.09880000  0.16400000  1.0
  O  O1  1  0.13670000  0.72390000  0.87249000  1.0
  O  O2  1  0.31630000  0.62680000  0.74137000  1.0
  O  O3  1  0.13420000  0.96010000  0.61183000  1.0
  O  O4  1  0.12190000  0.10160000  0.43328000  1.0
  O  O5  1  0.81840000  0.77600000  0.82051000  1.0
  O  O6  1  0.84980000  0.97960000  0.78368000  1.0
  O  O7  1  0.86330000  0.27610000  0.12751000  1.0
  O  O8  1  0.68370000  0.37320000  0.25863000  1.0
  O  O9  1  0.86580000  0.03990000  0.38817000  1.0
  O  O10  1  0.87810000  0.89840000  0.56672000  1.0
  O  O11  1  0.18160000  0.22400000  0.17949000  1.0
  O  O12  1  0.15020000  0.02040000  0.21632000  1.0
