# generated using pymatgen
data_H9(C7N)2
_symmetry_space_group_name_H-M   'P 1'
_cell_length_a   30.96260000
_cell_length_b   30.96260000
_cell_length_c   37.79800000
_cell_angle_alpha   90.00000000
_cell_angle_beta   90.00000000
_cell_angle_gamma   90.00000000
_symmetry_Int_Tables_number   1
_chemical_formula_structural   H9(C7N)2
_chemical_formula_sum   'H144 C224 N32'
_cell_volume   36236.28486793
_cell_formula_units_Z   16
loop_
 _symmetry_equiv_pos_site_id
 _symmetry_equiv_pos_as_xyz
  1  'x, y, z'
loop_
 _atom_site_type_symbol
 _atom_site_label
 _atom_site_symmetry_multiplicity
 _atom_site_fract_x
 _atom_site_fract_y
 _atom_site_fract_z
 _atom_site_occupancy
  H  7  1  0.18134600  0.10850700  0.16661400  1
  H  8  1  0.17438400  0.06081500  0.06231000  1
  H  9  1  0.06140700  0.07647900  0.12219000  1
  H  16  1  0.24133900  0.05402400  0.15966900  1
  H  17  1  0.35463100  0.07593300  0.10146800  1
  H  18  1  0.23468600  0.11566100  0.06063900  1
  H  29  1  0.69298700  0.06218300  0.68736700  1
  H  30  1  0.69318800  0.11728100  0.58533800  1
  H  31  1  0.80983800  0.08241300  0.63395400  1
  H  38  1  0.63297600  0.11359000  0.69013700  1
  H  39  1  0.51496000  0.08653700  0.64007100  1
  H  40  1  0.63133600  0.06812200  0.58518700  1
  H  51  1  0.24422100  0.58415600  0.57579700  1
  H  52  1  0.23018700  0.50018100  0.66249300  1
  H  53  1  0.35422100  0.53324600  0.62619400  1
  H  60  1  0.17619500  0.52038600  0.56650100  1
  H  61  1  0.06356000  0.57056200  0.61324700  1
  H  62  1  0.18200100  0.57937600  0.66682300  1
  H  73  1  0.64516800  0.54784500  0.06507400  1
  H  74  1  0.65450500  0.59224000  0.17017200  1
  H  75  1  0.53333000  0.58258000  0.12092100  1
  H  82  1  0.71088300  0.59460700  0.06592700  1
  H  83  1  0.82651900  0.55147800  0.11157600  1
  H  84  1  0.70931700  0.53358500  0.16556400  1
  H  95  1  0.97322200  0.27030000  0.32488500  1
  H  96  1  0.90836600  0.27674800  0.42282100  1
  H  97  1  0.94039900  0.15621800  0.37886100  1
  H  104  1  0.91003000  0.32958500  0.32136100  1
  H  105  1  0.94035300  0.45032700  0.36547200  1
  H  106  1  0.97145900  0.33687400  0.42085300  1
  H  117  1  0.90720000  0.84763200  0.82289000  1
  H  118  1  0.97378700  0.84557800  0.92034700  1
  H  119  1  0.93150400  0.96332300  0.87739500  1
  H  126  1  0.97544400  0.79310200  0.81916500  1
  H  127  1  0.95262900  0.67010800  0.86267800  1
  H  128  1  0.91384400  0.78122900  0.91811200  1
  H  139  1  0.47634900  0.34228700  0.94713400  1
  H  140  1  0.42518700  0.29835700  0.85002100  1
  H  141  1  0.43343200  0.43102000  0.87107000  1
  H  148  1  0.43712100  0.27690000  0.96428400  1
  H  149  1  0.48602500  0.15327100  0.94181100  1
  H  150  1  0.48422600  0.24766900  0.86227300  1
  H  161  1  0.41974800  0.80182200  0.43053100  1
  H  162  1  0.47327700  0.79036000  0.32836600  1
  H  163  1  0.44552100  0.67943500  0.38786700  1
  H  170  1  0.46794800  0.86370300  0.42728200  1
  H  171  1  0.44591800  0.97392600  0.36511700  1
  H  172  1  0.42455100  0.85100000  0.32211000  1
  H  183  1  0.98058600  0.00539100  0.04318400  1
  H  184  1  0.09500300  0.04142600  0.98960500  1
  H  185  1  0.07104900  0.00362100  0.93822400  1
  H  186  1  0.95650200  0.96789600  0.99173200  1
  H  188  1  0.00583800  0.97467900  0.90635500  1
  H  190  1  0.03101400  0.06113700  0.06748900  1
  H  197  1  0.89062600  0.12087400  0.54716900  1
  H  198  1  0.76565200  0.11674200  0.50212700  1
  H  199  1  0.79410000  0.14385300  0.44759800  1
  H  200  1  0.91901100  0.14795400  0.49275100  1
  H  202  1  0.86460700  0.15087700  0.41088700  1
  H  204  1  0.82760400  0.07753400  0.57351700  1
  H  211  1  0.41304300  0.42224500  0.70058700  1
  H  212  1  0.29326400  0.46858400  0.73872100  1
  H  213  1  0.30801900  0.43818300  0.79492500  1
  H  214  1  0.42794800  0.39196300  0.75714000  1
  H  216  1  0.36315700  0.41355000  0.83585600  1
  H  218  1  0.36894200  0.46977000  0.66359800  1
  H  225  1  0.46267100  0.63219500  0.21299100  1
  H  226  1  0.58724400  0.60281100  0.25214300  1
  H  227  1  0.56890500  0.63514000  0.30759000  1
  H  228  1  0.44434600  0.66441700  0.26842200  1
  H  230  1  0.50435700  0.65731800  0.34742300  1
  H  232  1  0.51415500  0.58028000  0.18183800  1
  H  239  1  0.35350000  0.66545400  0.46660100  1
  H  240  1  0.44370300  0.71545600  0.53991200  1
  H  241  1  0.42368500  0.66079400  0.58141400  1
  H  242  1  0.33377000  0.61066500  0.50787600  1
  H  244  1  0.38611100  0.58973000  0.59153400  1
  H  246  1  0.42126300  0.75636000  0.48369700  1
  H  253  1  0.80418300  0.48029500  0.29534400  1
  H  254  1  0.92534500  0.45062100  0.24970500  1
  H  255  1  0.90340200  0.48419400  0.19583800  1
  H  256  1  0.78232400  0.51415900  0.24152800  1
  H  258  1  0.85201800  0.53761000  0.16843700  1
  H  260  1  0.86918000  0.45799400  0.33177400  1
  H  267  1  0.53135400  0.09523000  0.82793500  1
  H  268  1  0.44051800  0.18994300  0.79708700  1
  H  269  1  0.45751600  0.17681000  0.73631900  1
  H  270  1  0.54839700  0.08206800  0.76721200  1
  H  272  1  0.49075000  0.12391900  0.69255200  1
  H  274  1  0.48440300  0.13610200  0.87368100  1
  H  281  1  0.98067300  0.50526400  0.53244100  1
  H  282  1  0.10278400  0.52347300  0.48449100  1
  H  283  1  0.07793500  0.48681600  0.43267400  1
  H  284  1  0.95581400  0.46875600  0.48063600  1
  H  286  1  0.00999100  0.46479000  0.39823500  1
  H  288  1  0.03773600  0.55736600  0.55661400  1
  H  295  1  0.90499100  0.61835200  0.03211000  1
  H  296  1  0.78101600  0.60851800  0.98575600  1
  H  297  1  0.80248100  0.65747000  0.94017100  1
  H  298  1  0.92647200  0.66724300  0.98649900  1
  H  300  1  0.85559600  0.71808200  0.92538500  1
  H  302  1  0.84865200  0.56203300  0.05164300  1
  H  309  1  0.43361000  0.99437700  0.18560800  1
  H  310  1  0.30677700  0.01393900  0.22414000  1
  H  311  1  0.32143600  0.96711100  0.27264100  1
  H  312  1  0.44834400  0.94785300  0.23468100  1
  H  314  1  0.37431600  0.90044100  0.28969500  1
  H  316  1  0.38446700  0.04555500  0.15562100  1
  H  323  1  0.32152400  0.20078700  0.93907100  1
  H  324  1  0.41181600  0.10004600  0.92290600  1
  H  325  1  0.40330900  0.07808300  0.98317600  1
  H  326  1  0.31286400  0.17855000  0.99923200  1
  H  328  1  0.37620200  0.09812700  0.04416300  1
  H  330  1  0.37477500  0.17268100  0.86930000  1
  H  337  1  0.79253600  0.99800000  0.81395800  1
  H  338  1  0.91231900  0.97704900  0.76291300  1
  H  339  1  0.88806400  0.01795200  0.71332600  1
  H  340  1  0.76833000  0.03920300  0.76432100  1
  H  342  1  0.83444800  0.07429200  0.69249900  1
  H  344  1  0.85876100  0.97121000  0.84640700  1
  H  351  1  0.45166400  0.99794500  0.55054200  1
  H  352  1  0.55452400  0.07161200  0.50840200  1
  H  353  1  0.54147600  0.04138900  0.45138100  1
  H  354  1  0.43839000  0.96795800  0.49339400  1
  H  356  1  0.48776900  0.00286100  0.41240000  1
  H  358  1  0.48813100  0.05710800  0.58575000  1
  H  365  1  0.98639600  0.63128400  0.69584300  1
  H  366  1  0.11507000  0.63644800  0.73339800  1
  H  367  1  0.09391200  0.68784600  0.77723900  1
  H  368  1  0.96530300  0.68241600  0.73986400  1
  H  370  1  0.03258300  0.74560900  0.79222700  1
  H  372  1  0.04180700  0.58012500  0.67412300  1
  H  379  1  0.08370600  0.13316700  0.30869600  1
  H  380  1  0.95854600  0.13605500  0.26394100  1
  H  381  1  0.98664500  0.10749300  0.20988400  1
  H  382  1  0.11190800  0.10470000  0.25444500  1
  H  384  1  0.05089800  0.06353700  0.18404000  1
  H  386  1  0.01186700  0.14168500  0.34540200  1
  H  393  1  0.45561400  0.51253100  0.04122700  1
  H  394  1  0.56525300  0.55759500  0.98559400  1
  H  395  1  0.54483800  0.51509500  0.93543800  1
  H  396  1  0.43521200  0.47005700  0.99112100  1
  H  398  1  0.48138400  0.47390000  0.90590700  1
  H  400  1  0.50458300  0.57651800  0.06271400  1
  C  1  1  0.18496400  0.08622200  0.11364600  1
  C  2  1  0.16366800  0.09774500  0.14546500  1
  C  3  1  0.11852900  0.09359200  0.14912500  1
  C  4  1  0.09412700  0.07931300  0.11978500  1
  C  5  1  0.11429600  0.06779800  0.08763800  1
  C  6  1  0.15958800  0.07102800  0.08508100  1
  C  10  1  0.23100400  0.08639200  0.11111700  1
  C  11  1  0.25628800  0.06729700  0.13803700  1
  C  12  1  0.30150400  0.06374200  0.13500700  1
  C  13  1  0.32204100  0.07959600  0.10424100  1
  C  14  1  0.29768200  0.09883300  0.07674400  1
  C  15  1  0.25245200  0.10212500  0.08065800  1
  C  23  1  0.68571700  0.09096200  0.63679000  1
  C  24  1  0.70919100  0.07394300  0.66578100  1
  C  25  1  0.75462300  0.07157900  0.66543200  1
  C  26  1  0.77698900  0.08508600  0.63482200  1
  C  27  1  0.75463600  0.10115400  0.60502100  1
  C  28  1  0.70929100  0.10488700  0.60672500  1
  C  32  1  0.63950000  0.09177800  0.63730900  1
  C  33  1  0.61638200  0.10372300  0.66811500  1
  C  34  1  0.57087200  0.10243600  0.66942100  1
  C  35  1  0.54784500  0.08871700  0.63913200  1
  C  36  1  0.56994500  0.07667500  0.60793100  1
  C  37  1  0.61543200  0.07838500  0.60743900  1
  C  45  1  0.23069100  0.54164300  0.61808300  1
  C  46  1  0.25773900  0.56389600  0.59419500  1
  C  47  1  0.30308100  0.56139000  0.59703100  1
  C  48  1  0.32143800  0.53460900  0.62339000  1
  C  49  1  0.29482100  0.51126200  0.64704500  1
  C  50  1  0.24962300  0.51581900  0.64464000  1
  C  54  1  0.18543200  0.54801900  0.61711700  1
  C  55  1  0.16107800  0.53542300  0.58725800  1
  C  56  1  0.11628100  0.54333900  0.58551800  1
  C  57  1  0.09585600  0.56404800  0.61435200  1
  C  58  1  0.11960700  0.57684400  0.64449400  1
  C  59  1  0.16439500  0.56898900  0.64548100  1
  C  67  1  0.65707000  0.56966400  0.11729100  1
  C  68  1  0.63106700  0.55972700  0.08760000  1
  C  69  1  0.58588700  0.56501700  0.08837100  1
  C  70  1  0.56613100  0.57937900  0.11991500  1
  C  71  1  0.59109000  0.58868100  0.15027600  1
  C  72  1  0.63637400  0.58447900  0.14840100  1
  C  76  1  0.70284400  0.56443200  0.11581300  1
  C  77  1  0.72657600  0.57916000  0.08617700  1
  C  78  1  0.77166900  0.57378200  0.08402300  1
  C  79  1  0.79370900  0.55444000  0.11261200  1
  C  80  1  0.77108800  0.54017100  0.14290400  1
  C  81  1  0.72579500  0.54473100  0.14389600  1
  C  89  1  0.94092500  0.28044700  0.37359900  1
  C  90  1  0.95925700  0.25531800  0.34619000  1
  C  91  1  0.96037400  0.20988400  0.34835700  1
  C  92  1  0.94068300  0.18922700  0.37749900  1
  C  93  1  0.92108500  0.21362600  0.40468000  1
  C  94  1  0.92252200  0.25908100  0.40303700  1
  C  98  1  0.94072800  0.32628100  0.37146400  1
  C  99  1  0.92325500  0.34738700  0.34148900  1
  C  100  1  0.92177900  0.39280600  0.33959500  1
  C  101  1  0.94042400  0.41732900  0.36709900  1
  C  102  1  0.95925000  0.39703700  0.39675600  1
  C  103  1  0.95806500  0.35162700  0.39920600  1
  C  111  1  0.94083100  0.83970300  0.87136900  1
  C  112  1  0.92009300  0.86343800  0.84424000  1
  C  113  1  0.91522600  0.90857300  0.84684100  1
  C  114  1  0.93372300  0.93038300  0.87589800  1
  C  115  1  0.95580100  0.90758500  0.90268000  1
  C  116  1  0.95798700  0.86218800  0.90079300  1
  C  120  1  0.94444500  0.79406700  0.86908500  1
  C  121  1  0.96380400  0.77431100  0.83930300  1
  C  122  1  0.96764400  0.72890500  0.83706500  1
  C  123  1  0.95066300  0.70310600  0.86441300  1
  C  124  1  0.93054100  0.72205800  0.89396500  1
  C  125  1  0.92825800  0.76750900  0.89646500  1
  C  133  1  0.45151200  0.31314700  0.90053900  1
  C  134  1  0.46243500  0.34817500  0.92302200  1
  C  135  1  0.45657600  0.39144300  0.91245300  1
  C  136  1  0.43825400  0.39980100  0.87899900  1
  C  137  1  0.42629100  0.36580600  0.85616100  1
  C  138  1  0.43381700  0.32281900  0.86681800  1
  C  142  1  0.45925400  0.26950500  0.91143700  1
  C  143  1  0.45069500  0.25585700  0.94656300  1
  C  144  1  0.46058800  0.21360200  0.95781500  1
  C  145  1  0.47870000  0.18400100  0.93376300  1
  C  146  1  0.48536300  0.19582600  0.89813500  1
  C  147  1  0.47681000  0.23880600  0.88763900  1
  C  155  1  0.44663200  0.80368500  0.37895100  1
  C  156  1  0.43190800  0.78343200  0.41039200  1
  C  157  1  0.43193400  0.73799000  0.41408500  1
  C  158  1  0.44639300  0.71240400  0.38569000  1
  C  159  1  0.46199900  0.73144700  0.35428800  1
  C  160  1  0.46158200  0.77680400  0.35115100  1
  C  164  1  0.44645400  0.84979200  0.37524700  1
  C  165  1  0.45850800  0.87704800  0.40372000  1
  C  166  1  0.45904400  0.92242200  0.40034900  1
  C  167  1  0.44685800  0.94103500  0.36771500  1
  C  168  1  0.43395600  0.91508100  0.33901500  1
  C  169  1  0.43412700  0.86968400  0.34300200  1
  C  177  1  0.05184600  0.00337300  0.96029400  1
  C  178  1  0.06598800  0.02561000  0.99058700  1
  C  179  1  0.04030700  0.02678500  0.02154600  1
  C  180  1  0.00012000  0.00508300  0.02131100  1
  C  181  1  0.98609900  0.98262000  0.99109400  1
  C  182  1  0.01184300  0.98134500  0.96018500  1
  C  187  1  0.99743500  0.96171500  0.92949300  1
  C  189  1  0.05338600  0.04860200  0.05167100  1
  C  191  1  0.81470800  0.13942900  0.46848500  1
  C  192  1  0.79792000  0.12374100  0.50060800  1
  C  193  1  0.82531100  0.11686400  0.53001700  1
  C  194  1  0.86985500  0.12589900  0.52647500  1
  C  195  1  0.88654300  0.14201600  0.49450200  1
  C  196  1  0.85914900  0.14907500  0.46512500  1
  C  201  1  0.87539100  0.16388100  0.43331400  1
  C  203  1  0.80995400  0.09993900  0.56140300  1
  C  205  1  0.33005600  0.43349000  0.77507000  1
  C  206  1  0.32137500  0.45158600  0.74172400  1
  C  207  1  0.35155000  0.44837900  0.71363500  1
  C  208  1  0.39009300  0.42503500  0.71996600  1
  C  209  1  0.39880300  0.40686800  0.75337000  1
  C  210  1  0.36916500  0.41129600  0.78168400  1
  C  215  1  0.37929600  0.39937800  0.81618100  1
  C  217  1  0.34518100  0.46912100  0.68129800  1
  C  219  1  0.54625200  0.63473600  0.28784300  1
  C  220  1  0.55709400  0.61589400  0.25516500  1
  C  221  1  0.52688100  0.61484100  0.22708400  1
  C  222  1  0.48537200  0.63257600  0.23270400  1
  C  223  1  0.47466600  0.65178300  0.26525200  1
  C  224  1  0.50510900  0.65341700  0.29312100  1
  C  229  1  0.49488700  0.67193900  0.32529000  1
  C  231  1  0.53687600  0.59671600  0.19467100  1
  C  233  1  0.40878600  0.66122600  0.55722200  1
  C  234  1  0.42031000  0.69368500  0.53290600  1
  C  235  1  0.40053100  0.69582600  0.49924300  1
  C  236  1  0.36862800  0.66481800  0.49068700  1
  C  237  1  0.35696600  0.63254300  0.51505900  1
  C  238  1  0.37681200  0.63026300  0.54875600  1
  C  243  1  0.36479800  0.59946500  0.57355700  1
  C  245  1  0.41316900  0.72708000  0.47515200  1
  C  247  1  0.88196400  0.48317000  0.21646400  1
  C  248  1  0.89478200  0.46310000  0.24812600  1
  C  249  1  0.86653200  0.46137600  0.27751700  1
  C  250  1  0.82519800  0.48038600  0.27441100  1
  C  251  1  0.81226300  0.50019000  0.24265600  1
  C  252  1  0.84049100  0.50186000  0.21323200  1
  C  257  1  0.82912200  0.52258500  0.18216900  1
  C  259  1  0.87961200  0.44419400  0.30953700  1
  C  261  1  0.47351600  0.15952500  0.75534400  1
  C  262  1  0.46357200  0.16733600  0.79112400  1
  C  263  1  0.48495300  0.14443600  0.81826300  1
  C  264  1  0.51595800  0.11293900  0.80884900  1
  C  265  1  0.52597600  0.10529000  0.77309100  1
  C  266  1  0.50508600  0.12863100  0.74576900  1
  C  271  1  0.51419400  0.12099700  0.71036500  1
  C  273  1  0.47310600  0.15217500  0.85288900  1
  C  275  1  0.05716900  0.49039100  0.45356900  1
  C  276  1  0.07182200  0.51185900  0.48407300  1
  C  277  1  0.04421800  0.51749800  0.51353800  1
  C  278  1  0.00150100  0.50159200  0.51159800  1
  C  279  1  0.98698400  0.47978800  0.48122400  1
  C  280  1  0.01476000  0.47360700  0.45194700  1
  C  285  1  0.00059600  0.45322100  0.42159400  1
  C  287  1  0.05808700  0.53796200  0.54393900  1
  C  289  1  0.82455200  0.64908900  0.95915600  1
  C  290  1  0.81195300  0.62020900  0.98593000  1
  C  291  1  0.84102400  0.60861800  0.01320600  1
  C  292  1  0.88337500  0.62561600  0.01247100  1
  C  293  1  0.89600300  0.65442500  0.98564200  1
  C  294  1  0.86661900  0.66680100  0.95882600  1
  C  299  1  0.87771300  0.69683100  0.93337500  1
  C  301  1  0.82813100  0.58332000  0.04138300  1
  C  303  1  0.34538700  0.97275000  0.25451900  1
  C  304  1  0.33686800  0.00041400  0.22586100  1
  C  305  1  0.36870300  0.00889900  0.19977000  1
  C  306  1  0.40974900  0.98935800  0.20391600  1
  C  307  1  0.41850500  0.96193100  0.23277000  1
  C  308  1  0.38628800  0.95318200  0.25824800  1
  C  313  1  0.39387500  0.92556800  0.28616100  1
  C  315  1  0.36019200  0.03457000  0.17029200  1
  C  317  1  0.38607800  0.10416400  0.97431600  1
  C  318  1  0.39093300  0.11691600  0.93878000  1
  C  319  1  0.36737200  0.15237300  0.92545300  1
  C  320  1  0.33899300  0.17490000  0.94807900  1
  C  321  1  0.33389000  0.16176600  0.98348800  1
  C  322  1  0.35714000  0.12604300  0.99711100  1
  C  327  1  0.35149500  0.11171400  0.03160700  1
  C  329  1  0.37171600  0.16423700  0.89257300  1
  C  331  1  0.86746200  0.01374000  0.73425300  1
  C  332  1  0.88159500  0.98926400  0.76334400  1
  C  333  1  0.85442100  0.98270400  0.79296800  1
  C  334  1  0.81280900  0.00153300  0.79273700  1
  C  335  1  0.79852700  0.02576300  0.76351100  1
  C  336  1  0.82572200  0.03220100  0.73390100  1
  C  341  1  0.81270600  0.05621300  0.70498200  1
  C  343  1  0.86895800  0.96121100  0.82278100  1
  C  345  1  0.52226800  0.03191500  0.47203800  1
  C  346  1  0.53002300  0.04964600  0.50570700  1
  C  347  1  0.50459900  0.03749600  0.53522400  1
  C  348  1  0.47080000  0.00748300  0.52986700  1
  C  349  1  0.46319700  0.98954800  0.49622200  1
  C  350  1  0.48905100  0.00123100  0.46684700  1
  C  355  1  0.48172300  0.98443200  0.43337500  1
  C  357  1  0.51245000  0.05387100  0.56880000  1
  C  359  1  0.07105500  0.67630300  0.76008000  1
  C  360  1  0.08342000  0.64594300  0.73432200  1
  C  361  1  0.05280800  0.62878100  0.71027300  1
  C  362  1  0.00941200  0.64272300  0.71291100  1
  C  363  1  0.99696700  0.67294100  0.73872100  1
  C  364  1  0.02767000  0.68999300  0.76260400  1
  C  369  1  0.01553900  0.71873400  0.78858900  1
  C  371  1  0.06426200  0.59971300  0.68400200  1
  C  373  1  0.00745900  0.11277800  0.23050500  1
  C  374  1  0.99094700  0.12973400  0.26224400  1
  C  375  1  0.01855400  0.13771300  0.29131700  1
  C  376  1  0.06295800  0.12786600  0.28804400  1
  C  377  1  0.07958400  0.11138300  0.25611800  1
  C  378  1  0.05202000  0.10387900  0.22693700  1
  C  383  1  0.06737700  0.08735300  0.19546000  1
  C  385  1  0.00260300  0.15457600  0.32249800  1
  C  387  1  0.52538800  0.51483400  0.95736000  1
  C  388  1  0.53740000  0.53981900  0.98683500  1
  C  389  1  0.51227300  0.53915700  0.01808100  1
  C  390  1  0.47419100  0.51404600  0.01883300  1
  C  391  1  0.46242500  0.48874400  0.98948300  1
  C  392  1  0.48832400  0.48823400  0.95865600  1
  C  397  1  0.47818300  0.46211500  0.93024700  1
  C  399  1  0.52579200  0.55994300  0.04839200  1
  N  19  1  0.31388400  0.11211800  0.04600800  1
  N  20  1  0.32116500  0.04270700  0.16094400  1
  N  21  1  0.09350800  0.05093900  0.06017400  1
  N  22  1  0.10063500  0.10371800  0.18006400  1
  N  41  1  0.55122600  0.06238400  0.57861200  1
  N  42  1  0.55271500  0.11149100  0.70039400  1
  N  43  1  0.77420100  0.11285100  0.57514700  1
  N  44  1  0.77385900  0.05366000  0.69320000  1
  N  63  1  0.10249700  0.59948100  0.67077900  1
  N  64  1  0.09574400  0.53004900  0.55667000  1
  N  65  1  0.30947100  0.48833700  0.67411000  1
  N  66  1  0.32526600  0.58718900  0.57570000  1
  N  85  1  0.78986500  0.52284700  0.17112800  1
  N  86  1  0.79130900  0.59026000  0.05595800  1
  N  87  1  0.57442800  0.60186400  0.18080100  1
  N  88  1  0.56432900  0.55324100  0.05965400  1
  N  107  1  0.97628700  0.41958300  0.42313900  1
  N  108  1  0.90511400  0.41145700  0.31111700  1
  N  109  1  0.90252100  0.19529600  0.43248800  1
  N  110  1  0.97835700  0.18825800  0.32190600  1
  N  129  1  0.91520700  0.69618500  0.91884500  1
  N  130  1  0.98467800  0.70851200  0.80964000  1
  N  131  1  0.97318300  0.92796700  0.93008300  1
  N  132  1  0.89634500  0.93006000  0.82071800  1
  N  151  1  0.50355900  0.16610200  0.87398500  1
  N  152  1  0.45329200  0.20234500  0.98911000  1
  N  153  1  0.41122200  0.37449000  0.82400100  1
  N  154  1  0.46723100  0.42248700  0.93511000  1
  N  173  1  0.42264500  0.93512800  0.30934200  1
  N  174  1  0.46858100  0.94539500  0.42904100  1
  N  175  1  0.47496600  0.70833200  0.32667600  1
  N  176  1  0.41846600  0.71684800  0.44252600  1
