# generated using pymatgen
data_Y2H15C33(NO5)3
_symmetry_space_group_name_H-M   'P 1'
_cell_length_a   14.47330000
_cell_length_b   20.37919000
_cell_length_c   21.30746000
_cell_angle_alpha   90.11206000
_cell_angle_beta   90.00000000
_cell_angle_gamma   90.00000000
_symmetry_Int_Tables_number   1
_chemical_formula_structural   Y2H15C33(NO5)3
_chemical_formula_sum   'Y8 H60 C132 N12 O60'
_cell_volume   6284.71131996
_cell_formula_units_Z   4
loop_
 _symmetry_equiv_pos_site_id
 _symmetry_equiv_pos_as_xyz
  1  'x, y, z'
loop_
 _atom_site_type_symbol
 _atom_site_label
 _atom_site_symmetry_multiplicity
 _atom_site_fract_x
 _atom_site_fract_y
 _atom_site_fract_z
 _atom_site_occupancy
  Y  Y0  1  0.05517000  0.17422000  0.90961000  1
  Y  Y1  1  0.80513000  0.34283000  0.92782000  1
  Y  Y2  1  0.44439000  0.82558000  0.40850000  1
  Y  Y3  1  0.69405000  0.65674000  0.42747000  1
  Y  Y4  1  0.94439000  0.67443000  0.59150000  1
  Y  Y5  1  0.19405000  0.84326000  0.57253000  1
  Y  Y6  1  0.55517000  0.32578000  0.09038000  1
  Y  Y7  1  0.30513000  0.15717000  0.07218000  1
  H  H8  1  0.71306000  0.94436000  0.92317000  1
  H  H9  1  0.53995000  0.83563000  0.79092000  1
  H  H10  1  0.65647000  0.71804000  0.10514000  1
  H  H11  1  0.68124000  0.21858000  0.99619000  1
  H  H12  1  0.54442000  0.03295000  0.01962000  1
  H  H13  1  0.80690000  0.04306000  0.92310000  1
  H  H14  1  0.61115000  0.80900000  0.06322000  1
  H  H15  1  0.58337000  0.66895000  0.91159000  1
  H  H16  1  0.62900000  0.87345000  0.87217000  1
  H  H17  1  0.44489000  0.83705000  0.69482000  1
  H  H18  1  0.56788000  0.75550000  0.52825000  1
  H  H19  1  0.70560000  0.73417000  0.70580000  1
  H  H20  1  0.64589000  0.69072000  0.21687000  1
  H  H21  1  0.62581000  0.48599000  0.26446000  1
  H  H22  1  0.59969000  0.54628000  0.07161000  1
  H  H23  1  0.78703000  0.05487000  0.42262000  1
  H  H24  1  0.95954000  0.16592000  0.29125000  1
  H  H25  1  0.84155000  0.28258000  0.60534000  1
  H  H26  1  0.81732000  0.78118000  0.49636000  1
  H  H27  1  0.95554000  0.96644000  0.51943000  1
  H  H28  1  0.69364000  0.95655000  0.42205000  1
  H  H29  1  0.88928000  0.19084000  0.56356000  1
  H  H30  1  0.91481000  0.33123000  0.41255000  1
  H  H31  1  0.87029000  0.12661000  0.37226000  1
  H  H32  1  0.05384000  0.16406000  0.19590000  1
  H  H33  1  0.93204000  0.24505000  0.02892000  1
  H  H34  1  0.79272000  0.26650000  0.20600000  1
  H  H35  1  0.85221000  0.30956000  0.71672000  1
  H  H36  1  0.87435000  0.51399000  0.76601000  1
  H  H37  1  0.89934000  0.45441000  0.57261000  1
  H  H38  1  0.28703000  0.44513000  0.57738000  1
  H  H39  1  0.45954000  0.33408000  0.70875000  1
  H  H40  1  0.34155000  0.21742000  0.39466000  1
  H  H41  1  0.31732000  0.71883000  0.50364000  1
  H  H42  1  0.45554000  0.53356000  0.48057000  1
  H  H43  1  0.19364000  0.54345000  0.57795000  1
  H  H44  1  0.38928000  0.30916000  0.43644000  1
  H  H45  1  0.41480000  0.16878000  0.58745000  1
  H  H46  1  0.37029000  0.37340000  0.62774000  1
  H  H47  1  0.55384000  0.33594000  0.80410000  1
  H  H48  1  0.43204000  0.25495000  0.97108000  1
  H  H49  1  0.29271000  0.23350000  0.79400000  1
  H  H50  1  0.35221000  0.19044000  0.28328000  1
  H  H51  1  0.37435000  0.98601000  0.23399000  1
  H  H52  1  0.39933000  0.04559000  0.42739000  1
  H  H53  1  0.21306000  0.55564000  0.07682000  1
  H  H54  1  0.03994000  0.66438000  0.20907000  1
  H  H55  1  0.15646000  0.78196000  0.89486000  1
  H  H56  1  0.18124000  0.28142000  0.00380000  1
  H  H57  1  0.04442000  0.46705000  0.98038000  1
  H  H58  1  0.30690000  0.45694000  0.07690000  1
  H  H59  1  0.11115000  0.69100000  0.93678000  1
  H  H60  1  0.08336000  0.83105000  0.08841000  1
  H  H61  1  0.12900000  0.62656000  0.12783000  1
  H  H62  1  0.94490000  0.66295000  0.30517000  1
  H  H63  1  0.06788000  0.74450000  0.47175000  1
  H  H64  1  0.20560000  0.76583000  0.29420000  1
  H  H65  1  0.14588000  0.80928000  0.78313000  1
  H  H66  1  0.12581000  0.01401000  0.73553000  1
  H  H67  1  0.09969000  0.95372000  0.92839000  1
  C  C68  1  0.82921000  0.17447000  0.93141000  1
  C  C69  1  0.75079000  0.13470000  0.95596000  1
  C  C70  1  0.67958000  0.16585000  0.98910000  1
  C  C71  1  0.60600000  0.12877000  0.01242000  1
  C  C72  1  0.60291000  0.06086000  0.00232000  1
  C  C73  1  0.67530000  0.02954000  0.97037000  1
  C  C74  1  0.74964000  0.06646000  0.94759000  1
  C  C75  1  0.52715000  0.16098000  0.04581000  1
  C  C76  1  0.63126000  0.91515000  0.99725000  1
  C  C77  1  0.62356000  0.84723000  0.97051000  1
  C  C78  1  0.61198000  0.79586000  0.01362000  1
  C  C79  1  0.59795000  0.73161000  0.99260000  1
  C  C80  1  0.59484000  0.71886000  0.92801000  1
  C  C81  1  0.60625000  0.76948000  0.88450000  1
  C  C82  1  0.62067000  0.83384000  0.90592000  1
  C  C83  1  0.60633000  0.74990000  0.81662000  1
  C  C84  1  0.57552000  0.78666000  0.70847000  1
  C  C85  1  0.50172000  0.81057000  0.67286000  1
  C  C86  1  0.50013000  0.80038000  0.60774000  1
  C  C87  1  0.42115000  0.82529000  0.56978000  1
  C  C88  1  0.57042000  0.76424000  0.57849000  1
  C  C89  1  0.64381000  0.73994000  0.61426000  1
  C  C90  1  0.72214000  0.70303000  0.58469000  1
  C  C91  1  0.64729000  0.75221000  0.67895000  1
  C  C92  1  0.58196000  0.67349000  0.03449000  1
  C  C93  1  0.62242000  0.62511000  0.13800000  1
  C  C94  1  0.63682000  0.64025000  0.20125000  1
  C  C95  1  0.63960000  0.59024000  0.24647000  1
  C  C96  1  0.62520000  0.52455000  0.22923000  1
  C  C97  1  0.61017000  0.50990000  0.16571000  1
  C  C98  1  0.61027000  0.55951000  0.12031000  1
  C  C99  1  0.65680000  0.61064000  0.31272000  1
  C  C100  1  0.59335000  0.44202000  0.14180000  1
  C  C101  1  0.67066000  0.82533000  0.43034000  1
  C  C102  1  0.74885000  0.86504000  0.45558000  1
  C  C103  1  0.81959000  0.83385000  0.48910000  1
  C  C104  1  0.89330000  0.87083000  0.51248000  1
  C  C105  1  0.89691000  0.93868000  0.50206000  1
  C  C106  1  0.82492000  0.97008000  0.46988000  1
  C  C107  1  0.75049000  0.93320000  0.44696000  1
  C  C108  1  0.97216000  0.83889000  0.54609000  1
  C  C109  1  0.86869000  0.08466000  0.49683000  1
  C  C110  1  0.87621000  0.15267000  0.47060000  1
  C  C111  1  0.88809000  0.20395000  0.51401000  1
  C  C112  1  0.90172000  0.26828000  0.49328000  1
  C  C113  1  0.90404000  0.28123000  0.42878000  1
  C  C114  1  0.89239000  0.23071000  0.38504000  1
  C  C115  1  0.87854000  0.16626000  0.40612000  1
  C  C116  1  0.89080000  0.25056000  0.31738000  1
  C  C117  1  0.92298000  0.21426000  0.20902000  1
  C  C118  1  0.99713000  0.19033000  0.17366000  1
  C  C119  1  0.99931000  0.20041000  0.10858000  1
  C  C120  1  0.07854000  0.17531000  0.07083000  1
  C  C121  1  0.92916000  0.23638000  0.07913000  1
  C  C122  1  0.85540000  0.26059000  0.11470000  1
  C  C123  1  0.77753000  0.29731000  0.08472000  1
  C  C124  1  0.85135000  0.24855000  0.17935000  1
  C  C125  1  0.91752000  0.32651000  0.53528000  1
  C  C126  1  0.87623000  0.37543000  0.63849000  1
  C  C127  1  0.86168000  0.36008000  0.70156000  1
  C  C128  1  0.85943000  0.40978000  0.74724000  1
  C  C129  1  0.87449000  0.47553000  0.73052000  1
  C  C130  1  0.88953000  0.49048000  0.66708000  1
  C  C131  1  0.88894000  0.44103000  0.62126000  1
  C  C132  1  0.84153000  0.38845000  0.81308000  1
  C  C133  1  0.90656000  0.55844000  0.64341000  1
  C  C134  1  0.17066000  0.67468000  0.56965000  1
  C  C135  1  0.24885000  0.63497000  0.54442000  1
  C  C136  1  0.31959000  0.66615000  0.51090000  1
  C  C137  1  0.39329000  0.62917000  0.48751000  1
  C  C138  1  0.39690000  0.56132000  0.49793000  1
  C  C139  1  0.32491000  0.52992000  0.53012000  1
  C  C140  1  0.25049000  0.56680000  0.55303000  1
  C  C141  1  0.47216000  0.66111000  0.45391000  1
  C  C142  1  0.36869000  0.41535000  0.50316000  1
  C  C143  1  0.37621000  0.34733000  0.52939000  1
  C  C144  1  0.38809000  0.29605000  0.48599000  1
  C  C145  1  0.40172000  0.23172000  0.50672000  1
  C  C146  1  0.40404000  0.21877000  0.57122000  1
  C  C147  1  0.39239000  0.26930000  0.61495000  1
  C  C148  1  0.37854000  0.33375000  0.59388000  1
  C  C149  1  0.39080000  0.24944000  0.68262000  1
  C  C150  1  0.42297000  0.28574000  0.79098000  1
  C  C151  1  0.49713000  0.30967000  0.82634000  1
  C  C152  1  0.49931000  0.29959000  0.89142000  1
  C  C153  1  0.57855000  0.32470000  0.92916000  1
  C  C154  1  0.42916000  0.26362000  0.92086000  1
  C  C155  1  0.35540000  0.23941000  0.88529000  1
  C  C156  1  0.27752000  0.20270000  0.91527000  1
  C  C157  1  0.35135000  0.25145000  0.82065000  1
  C  C158  1  0.41752000  0.17350000  0.46472000  1
  C  C159  1  0.37623000  0.12458000  0.36151000  1
  C  C160  1  0.36168000  0.13992000  0.29844000  1
  C  C161  1  0.35943000  0.09023000  0.25276000  1
  C  C162  1  0.37449000  0.02448000  0.26947000  1
  C  C163  1  0.38953000  0.00952000  0.33291000  1
  C  C164  1  0.38894000  0.05898000  0.37874000  1
  C  C165  1  0.34153000  0.11155000  0.18691000  1
  C  C166  1  0.40656000  0.94156000  0.35659000  1
  C  C167  1  0.32921000  0.32553000  0.06859000  1
  C  C168  1  0.25079000  0.36530000  0.04403000  1
  C  C169  1  0.17957000  0.33416000  0.01090000  1
  C  C170  1  0.10599000  0.37124000  0.98758000  1
  C  C171  1  0.10290000  0.43914000  0.99768000  1
  C  C172  1  0.17530000  0.47046000  0.02963000  1
  C  C173  1  0.24964000  0.43354000  0.05241000  1
  C  C174  1  0.02715000  0.33902000  0.95418000  1
  C  C175  1  0.13126000  0.58485000  0.00275000  1
  C  C176  1  0.12356000  0.65277000  0.02948000  1
  C  C177  1  0.11198000  0.70414000  0.98637000  1
  C  C178  1  0.09795000  0.76840000  0.00739000  1
  C  C179  1  0.09484000  0.78115000  0.07199000  1
  C  C180  1  0.10625000  0.73052000  0.11550000  1
  C  C181  1  0.12067000  0.66616000  0.09408000  1
  C  C182  1  0.10633000  0.75010000  0.18337000  1
  C  C183  1  0.07552000  0.71335000  0.29152000  1
  C  C184  1  0.00172000  0.68943000  0.32713000  1
  C  C185  1  0.00013000  0.69962000  0.39226000  1
  C  C186  1  0.92115000  0.67471000  0.43022000  1
  C  C187  1  0.07042000  0.73576000  0.42151000  1
  C  C188  1  0.14381000  0.76006000  0.38574000  1
  C  C189  1  0.22214000  0.79697000  0.41530000  1
  C  C190  1  0.14729000  0.74779000  0.32104000  1
  C  C191  1  0.08195000  0.82651000  0.96551000  1
  C  C192  1  0.12242000  0.87490000  0.86199000  1
  C  C193  1  0.13682000  0.85975000  0.79875000  1
  C  C194  1  0.13959000  0.90976000  0.75353000  1
  C  C195  1  0.12520000  0.97545000  0.77077000  1
  C  C196  1  0.11017000  0.99011000  0.83429000  1
  C  C197  1  0.11027000  0.94049000  0.87968000  1
  C  C198  1  0.15680000  0.88936000  0.68728000  1
  C  C199  1  0.09335000  0.05798000  0.85820000  1
  N  N200  1  0.67210000  0.96139000  0.95831000  1
  N  N201  1  0.57841000  0.79777000  0.77408000  1
  N  N202  1  0.62274000  0.67617000  0.09309000  1
  N  N203  1  0.82841000  0.03817000  0.45762000  1
  N  N204  1  0.92017000  0.20330000  0.27454000  1
  N  N205  1  0.87549000  0.32434000  0.59343000  1
  N  N206  1  0.32841000  0.46183000  0.54238000  1
  N  N207  1  0.42017000  0.29670000  0.72545000  1
  N  N208  1  0.37549000  0.17566000  0.40657000  1
  N  N209  1  0.17210000  0.53861000  0.04168000  1
  N  N210  1  0.07841000  0.70223000  0.22592000  1
  N  N211  1  0.12274000  0.82383000  0.90691000  1
  O  O212  1  0.90312000  0.14576000  0.91405000  1
  O  O213  1  0.81927000  0.23658000  0.93005000  1
  O  O214  1  0.53756000  0.21788000  0.06991000  1
  O  O215  1  0.45123000  0.12945000  0.04783000  1
  O  O216  1  0.60093000  0.92839000  0.04979000  1
  O  O217  1  0.34657000  0.84154000  0.59751000  1
  O  O218  1  0.43091000  0.82800000  0.51045000  1
  O  O219  1  0.71202000  0.67602000  0.53097000  1
  O  O220  1  0.79744000  0.70111000  0.61565000  1
  O  O221  1  0.63075000  0.69468000  0.80021000  1
  O  O222  1  0.68030000  0.56935000  0.35523000  1
  O  O223  1  0.64871000  0.67217000  0.32625000  1
  O  O224  1  0.56913000  0.39495000  0.17821000  1
  O  O225  1  0.60179000  0.43197000  0.08232000  1
  O  O226  1  0.53648000  0.62626000  0.01567000  1
  O  O227  1  0.59700000  0.85411000  0.41263000  1
  O  O228  1  0.68072000  0.76322000  0.42856000  1
  O  O229  1  0.96211000  0.78258000  0.57141000  1
  O  O230  1  0.04816000  0.87042000  0.54666000  1
  O  O231  1  0.89906000  0.07149000  0.54930000  1
  O  O232  1  0.15297000  0.15904000  0.09872000  1
  O  O233  1  0.06912000  0.17225000  0.01148000  1
  O  O234  1  0.78934000  0.32488000  0.03163000  1
  O  O235  1  0.70115000  0.29854000  0.11450000  1
  O  O236  1  0.86409000  0.30539000  0.30157000  1
  O  O237  1  0.81976000  0.42930000  0.85656000  1
  O  O238  1  0.84684000  0.32660000  0.82533000  1
  O  O239  1  0.93067000  0.60588000  0.67965000  1
  O  O240  1  0.89825000  0.56810000  0.58389000  1
  O  O241  1  0.96359000  0.37357000  0.51693000  1
  O  O242  1  0.09700000  0.64590000  0.58736000  1
  O  O243  1  0.18072000  0.73678000  0.57144000  1
  O  O244  1  0.46211000  0.71742000  0.42859000  1
  O  O245  1  0.54817000  0.62958000  0.45334000  1
  O  O246  1  0.39905000  0.42851000  0.45070000  1
  O  O247  1  0.65297000  0.34096000  0.90128000  1
  O  O248  1  0.56912000  0.32776000  0.98852000  1
  O  O249  1  0.28934000  0.17512000  0.96836000  1
  O  O250  1  0.20115000  0.20146000  0.88550000  1
  O  O251  1  0.36409000  0.19461000  0.69842000  1
  O  O252  1  0.31976000  0.07070000  0.14344000  1
  O  O253  1  0.34684000  0.17341000  0.17466000  1
  O  O254  1  0.43067000  0.89412000  0.32034000  1
  O  O255  1  0.39825000  0.93190000  0.41611000  1
  O  O256  1  0.46359000  0.12643000  0.48307000  1
  O  O257  1  0.40311000  0.35424000  0.08595000  1
  O  O258  1  0.31927000  0.26342000  0.06995000  1
  O  O259  1  0.03756000  0.28212000  0.93009000  1
  O  O260  1  0.95123000  0.37055000  0.95216000  1
  O  O261  1  0.10093000  0.57162000  0.95021000  1
  O  O262  1  0.84657000  0.65846000  0.40249000  1
  O  O263  1  0.93091000  0.67200000  0.48955000  1
  O  O264  1  0.21201000  0.82398000  0.46903000  1
  O  O265  1  0.29744000  0.79889000  0.38435000  1
  O  O266  1  0.13075000  0.80532000  0.19979000  1
  O  O267  1  0.18030000  0.93065000  0.64477000  1
  O  O268  1  0.14871000  0.82783000  0.67374000  1
  O  O269  1  0.06913000  0.10505000  0.82179000  1
  O  O270  1  0.10179000  0.06803000  0.91767000  1
  O  O271  1  0.03647000  0.87374000  0.98433000  1
