# generated using pymatgen
data_HoH6(C2O)6
_symmetry_space_group_name_H-M   'P 1'
_cell_length_a   9.81130000
_cell_length_b   10.41880000
_cell_length_c   11.07680000
_cell_angle_alpha   76.72100000
_cell_angle_beta   76.24200000
_cell_angle_gamma   65.93200000
_symmetry_Int_Tables_number   1
_chemical_formula_structural   HoH6(C2O)6
_chemical_formula_sum   'Ho2 H12 C24 O12'
_cell_volume   992.88518960
_cell_formula_units_Z   2
loop_
 _symmetry_equiv_pos_site_id
 _symmetry_equiv_pos_as_xyz
  1  'x, y, z'
loop_
 _atom_site_type_symbol
 _atom_site_label
 _atom_site_symmetry_multiplicity
 _atom_site_fract_x
 _atom_site_fract_y
 _atom_site_fract_z
 _atom_site_occupancy
  Ho  Ho1  1  0.94522000  0.22825000  0.32292000  1.0
  Ho  Ho2  1  0.05478000  0.77175000  0.67708000  1.0
  H  H1  1  0.45530000  0.18500000  0.10490000  1.0
  H  H2  1  0.30750000  0.92220000  0.00680000  1.0
  H  H3  1  0.43580000  0.41560000  0.20900000  1.0
  H  H4  1  0.74080000  0.50250000  0.92340000  1.0
  H  H5  1  0.39950000  0.88240000  0.67960000  1.0
  H  H6  1  0.34960000  0.14180000  0.34970000  1.0
  H  H7  1  0.54470000  0.81500000  0.89510000  1.0
  H  H8  1  0.69250000  0.07780000  0.99320000  1.0
  H  H9  1  0.56420000  0.58440000  0.79100000  1.0
  H  H10  1  0.25920000  0.49750000  0.07660000  1.0
  H  H11  1  0.60050000  0.11760000  0.32040000  1.0
  H  H12  1  0.65040000  0.85820000  0.65030000  1.0
  C  C1  1  0.35650000  0.06590000  0.06720000  1.0
  C  C2  1  0.47300000  0.11080000  0.06270000  1.0
  C  C3  1  0.38450000  0.95370000  0.00410000  1.0
  C  C4  1  0.20520000  0.13230000  0.14640000  1.0
  C  C5  1  0.60790000  0.44830000  0.07930000  1.0
  C  C6  1  0.46150000  0.44910000  0.12490000  1.0
  C  C7  1  0.64460000  0.50100000  0.95410000  1.0
  C  C8  1  0.72420000  0.38950000  0.16540000  1.0
  C  C9  1  0.35070000  0.01330000  0.51680000  1.0
  C  C10  1  0.44020000  0.92930000  0.60740000  1.0
  C  C11  1  0.40990000  0.08480000  0.40970000  1.0
  C  C12  1  0.19030000  0.02300000  0.53280000  1.0
  C  C13  1  0.64350000  0.93410000  0.93280000  1.0
  C  C14  1  0.52700000  0.88920000  0.93730000  1.0
  C  C15  1  0.61550000  0.04630000  0.99590000  1.0
  C  C16  1  0.79480000  0.86770000  0.85360000  1.0
  C  C17  1  0.39210000  0.55170000  0.92070000  1.0
  C  C18  1  0.53850000  0.55090000  0.87510000  1.0
  C  C19  1  0.35540000  0.49900000  0.04590000  1.0
  C  C20  1  0.27580000  0.61050000  0.83460000  1.0
  C  C21  1  0.64930000  0.98670000  0.48320000  1.0
  C  C22  1  0.55980000  0.07070000  0.39260000  1.0
  C  C23  1  0.59010000  0.91520000  0.59030000  1.0
  C  C24  1  0.80970000  0.97700000  0.46720000  1.0
  O  O1  1  0.11570000  0.06570000  0.17882000  1.0
  O  O2  1  0.17280000  0.24810000  0.18212000  1.0
  O  O3  1  0.68620000  0.35050000  0.27942000  1.0
  O  O4  1  0.85910000  0.37580000  0.12267000  1.0
  O  O5  1  0.14190000  0.95200000  0.62777000  1.0
  O  O6  1  0.11550000  0.10260000  0.44864000  1.0
  O  O7  1  0.88430000  0.93430000  0.82118000  1.0
  O  O8  1  0.82720000  0.75190000  0.81788000  1.0
  O  O9  1  0.31380000  0.64950000  0.72058000  1.0
  O  O10  1  0.14090000  0.62420000  0.87733000  1.0
  O  O11  1  0.85810000  0.04800000  0.37223000  1.0
  O  O12  1  0.88450000  0.89740000  0.55136000  1.0
