# generated using pymatgen
data_EuH3C9NO7
_symmetry_space_group_name_H-M   'P 1'
_cell_length_a   12.83708000
_cell_length_b   12.84406000
_cell_length_c   15.69755000
_cell_angle_alpha   85.28801000
_cell_angle_beta   85.35020000
_cell_angle_gamma   62.88655000
_symmetry_Int_Tables_number   1
_chemical_formula_structural   EuH3C9NO7
_chemical_formula_sum   'Eu4 H12 C36 N4 O28'
_cell_volume   2293.22133733
_cell_formula_units_Z   4
loop_
 _symmetry_equiv_pos_site_id
 _symmetry_equiv_pos_as_xyz
  1  'x, y, z'
loop_
 _atom_site_type_symbol
 _atom_site_label
 _atom_site_symmetry_multiplicity
 _atom_site_fract_x
 _atom_site_fract_y
 _atom_site_fract_z
 _atom_site_occupancy
  Eu  Eu0  1  0.98970000  0.35799000  0.51706000  1
  Eu  Eu1  1  0.35767000  0.99016000  0.01528000  1
  Eu  Eu2  1  0.01029000  0.64202000  0.48294000  1
  Eu  Eu3  1  0.64232000  0.00984000  0.98471000  1
  H  H4  1  0.80172000  0.73823000  0.22941000  1
  H  H5  1  0.69985000  0.52012000  0.62800000  1
  H  H6  1  0.69640000  0.48497000  0.34948000  1
  H  H7  1  0.30359000  0.51504000  0.65052000  1
  H  H8  1  0.51140000  0.30569000  0.14981000  1
  H  H9  1  0.30014000  0.47989000  0.37200000  1
  H  H10  1  0.48331000  0.29774000  0.86937000  1
  H  H11  1  0.73994000  0.80137000  0.72918000  1
  H  H12  1  0.26005000  0.19864000  0.27081000  1
  H  H13  1  0.51669000  0.70226000  0.13063000  1
  H  H14  1  0.19828000  0.26178000  0.77060000  1
  H  H15  1  0.48859000  0.69431000  0.85019000  1
  C  C16  1  0.67569000  0.58590000  0.67517000  1
  C  C17  1  0.30253000  0.25539000  0.26744000  1
  C  C18  1  0.47480000  0.46955000  0.75337000  1
  C  C19  1  0.52519000  0.53045000  0.24662000  1
  C  C20  1  0.82126000  0.65062000  0.60410000  1
  C  C21  1  0.53077000  0.52611000  0.74526000  1
  C  C22  1  0.46923000  0.47389000  0.25474000  1
  C  C23  1  0.40364000  0.41149000  0.75846000  1
  C  C24  1  0.41608000  0.32343000  0.82307000  1
  C  C25  1  0.68466000  0.55452000  0.30103000  1
  C  C26  1  0.34206000  0.27012000  0.82677000  1
  C  C27  1  0.57328000  0.85005000  0.86018000  1
  C  C28  1  0.41101000  0.40294000  0.25955000  1
  C  C29  1  0.31534000  0.44548000  0.69897000  1
  C  C30  1  0.24130000  0.39222000  0.70377000  1
  C  C31  1  0.44309000  0.31646000  0.19902000  1
  C  C32  1  0.74477000  0.69596000  0.23299000  1
  C  C33  1  0.38944000  0.24285000  0.20351000  1
  C  C34  1  0.85350000  0.56904000  0.35876000  1
  C  C35  1  0.59635000  0.58852000  0.24154000  1
  C  C36  1  0.32430000  0.41411000  0.32483000  1
  C  C37  1  0.61055000  0.75715000  0.79649000  1
  C  C38  1  0.69747000  0.74461000  0.73257000  1
  C  C39  1  0.25522000  0.30404000  0.76701000  1
  C  C40  1  0.72951000  0.65940000  0.67190000  1
  C  C41  1  0.55691000  0.68355000  0.80098000  1
  C  C42  1  0.14649000  0.43097000  0.64124000  1
  C  C43  1  0.75869000  0.60778000  0.29623000  1
  C  C44  1  0.58391000  0.67658000  0.17693000  1
  C  C45  1  0.35085000  0.17743000  0.89399000  1
  C  C46  1  0.64915000  0.82258000  0.10601000  1
  C  C47  1  0.58898000  0.59706000  0.74045000  1
  C  C48  1  0.17873000  0.34939000  0.39590000  1
  C  C49  1  0.65793000  0.72989000  0.17323000  1
  C  C50  1  0.27049000  0.34060000  0.32810000  1
  C  C51  1  0.42672000  0.14995000  0.13981000  1
  N  N52  1  0.82528000  0.26582000  0.49150000  1
  N  N53  1  0.73448000  0.17563000  0.00877000  1
  N  N54  1  0.26552000  0.82437000  0.99123000  1
  N  N55  1  0.17471000  0.73418000  0.50850000  1
  O  O56  1  0.07007000  0.78422000  0.54140000  1
  O  O57  1  0.88702000  0.46752000  0.39454000  1
  O  O58  1  0.21633000  0.92813000  0.95672000  1
  O  O59  1  0.74841000  0.25694000  0.03306000  1
  O  O60  1  0.89387000  0.64045000  0.37209000  1
  O  O61  1  0.73486000  0.84599000  0.09100000  1
  O  O62  1  0.47189000  0.88305000  0.89624000  1
  O  O63  1  0.15427000  0.26447000  0.41121000  1
  O  O64  1  0.78367000  0.07187000  0.04328000  1
  O  O65  1  0.10612000  0.35955000  0.62791000  1
  O  O66  1  0.25158000  0.74307000  0.96694000  1
  O  O67  1  0.92993000  0.21580000  0.45860000  1
  O  O68  1  0.12568000  0.44414000  0.43746000  1
  O  O69  1  0.80904000  0.33277000  0.55392000  1
  O  O70  1  0.26513000  0.15401000  0.90900000  1
  O  O71  1  0.84573000  0.73554000  0.58879000  1
  O  O72  1  0.52811000  0.11696000  0.10376000  1
  O  O73  1  0.55426000  0.87773000  0.06468000  1
  O  O74  1  0.19095000  0.66724000  0.44608000  1
  O  O75  1  0.44574000  0.12228000  0.93531000  1
  O  O76  1  0.25585000  0.74646000  0.53501000  1
  O  O77  1  0.35455000  0.11083000  0.12582000  1
  O  O78  1  0.66663000  0.19075000  0.94717000  1
  O  O79  1  0.33333333  0.80925000  0.05283000  1
  O  O80  1  0.87431000  0.55586000  0.56254000  1
  O  O81  1  0.64545000  0.88918000  0.87417000  1
  O  O82  1  0.74415000  0.25354000  0.46499000  1
  O  O83  1  0.11296000  0.53249000  0.60546000  1
