# generated using pymatgen
data_SmH8(C2O)8
_symmetry_space_group_name_H-M   'P 1'
_cell_length_a   8.53150000
_cell_length_b   10.58182000
_cell_length_c   14.63907000
_cell_angle_alpha   103.12034000
_cell_angle_beta   104.57071000
_cell_angle_gamma   97.62342000
_symmetry_Int_Tables_number   1
_chemical_formula_structural   SmH8(C2O)8
_chemical_formula_sum   'Sm2 H16 C32 O16'
_cell_volume   1220.19448240
_cell_formula_units_Z   2
loop_
 _symmetry_equiv_pos_site_id
 _symmetry_equiv_pos_as_xyz
  1  'x, y, z'
loop_
 _atom_site_type_symbol
 _atom_site_label
 _atom_site_symmetry_multiplicity
 _atom_site_fract_x
 _atom_site_fract_y
 _atom_site_fract_z
 _atom_site_occupancy
  Sm  Sm0  1  0.31401000  0.32699000  0.32240000  1
  Sm  Sm1  1  0.68592000  0.67200000  0.67636000  1
  H  H2  1  0.19981000  0.64046000  0.27772000  1
  H  H3  1  0.16793000  0.79551000  0.17050000  1
  H  H4  1  0.60580000  0.06579000  0.37139000  1
  H  H5  1  0.63544000  0.91108000  0.47752000  1
  H  H6  1  0.84406000  0.38847000  0.09195000  1
  H  H7  1  0.30711000  0.53054000  0.04766000  1
  H  H8  1  0.11197000  0.91260000  0.36157000  1
  H  H9  1  0.95077000  0.23116000  0.53118000  1
  H  H10  1  0.79927000  0.35854000  0.72188000  1
  H  H11  1  0.83103000  0.20326000  0.82910000  1
  H  H12  1  0.39363000  0.93294000  0.62858000  1
  H  H13  1  0.36381000  0.08698000  0.52186000  1
  H  H14  1  0.15569000  0.61224000  0.90757000  1
  H  H15  1  0.69238000  0.46995000  0.95176000  1
  H  H16  1  0.88821000  0.08690000  0.63833000  1
  H  H17  1  0.04945000  0.76854000  0.46888000  1
  C  C18  1  0.42045000  0.76557000  0.38300000  1
  C  C19  1  0.28846000  0.73290000  0.29634000  1
  C  C20  1  0.27041000  0.81915000  0.23728000  1
  C  C21  1  0.38537000  0.93952000  0.26420000  1
  C  C22  1  0.51817000  0.97230000  0.35067000  1
  C  C23  1  0.53470000  0.88622000  0.41001000  1
  C  C24  1  0.43817000  0.67193000  0.44615000  1
  C  C25  1  0.36353000  0.03373000  0.20203000  1
  C  C26  1  0.08314000  0.45540000  0.07687000  1
  C  C27  1  0.90972000  0.43789000  0.05089000  1
  C  C28  1  0.17305000  0.51777000  0.02566000  1
  C  C29  1  0.16995000  0.40883000  0.16047000  1
  C  C30  1  0.03365000  0.07900000  0.44052000  1
  C  C31  1  0.06202000  0.94905000  0.42184000  1
  C  C32  1  0.97096000  0.12989000  0.51855000  1
  C  C33  1  0.08560000  0.16678000  0.38306000  1
  C  C34  1  0.57924000  0.23292000  0.61622000  1
  C  C35  1  0.71099000  0.26585000  0.70303000  1
  C  C36  1  0.72887000  0.17969000  0.76219000  1
  C  C37  1  0.61396000  0.05937000  0.73545000  1
  C  C38  1  0.48120000  0.02642000  0.64893000  1
  C  C39  1  0.46489000  0.11221000  0.58931000  1
  C  C40  1  0.56179000  0.32673000  0.55319000  1
  C  C41  1  0.63635000  0.96552000  0.79793000  1
  C  C42  1  0.91636000  0.54519000  0.92257000  1
  C  C43  1  0.08986000  0.56278000  0.94856000  1
  C  C44  1  0.82647000  0.48283000  0.97379000  1
  C  C45  1  0.82976000  0.59211000  0.83915000  1
  C  C46  1  0.96662000  0.92074000  0.55936000  1
  C  C47  1  0.93806000  0.05059000  0.57800000  1
  C  C48  1  0.02917000  0.86979000  0.48132000  1
  C  C49  1  0.91436000  0.83290000  0.61668000  1
  O  O50  1  0.37444000  0.54953000  0.40745000  1
  O  O51  1  0.51425000  0.71910000  0.53718000  1
  O  O52  1  0.28488000  0.99144000  0.11251000  1
  O  O53  1  0.42514000  0.15804000  0.24225000  1
  O  O54  1  0.08392000  0.36039000  0.21003000  1
  O  O55  1  0.32706000  0.41920000  0.18503000  1
  O  O56  1  0.11879000  0.11799000  0.30344000  1
  O  O57  1  0.10951000  0.29307000  0.41645000  1
  O  O58  1  0.62722000  0.44904000  0.59200000  1
  O  O59  1  0.48389000  0.27944000  0.46249000  1
  O  O60  1  0.71536000  0.00849000  0.88739000  1
  O  O61  1  0.57551000  0.84105000  0.75814000  1
  O  O62  1  0.91650000  0.64068000  0.78997000  1
  O  O63  1  0.67271000  0.58196000  0.81441000  1
  O  O64  1  0.88064000  0.88159000  0.69609000  1
  O  O65  1  0.89057000  0.70665000  0.58316000  1
