# generated using pymatgen
data_Ga2P2H13C4N3O8
_symmetry_space_group_name_H-M   'P 1'
_cell_length_a   13.49783000
_cell_length_b   14.29097461
_cell_length_c   14.31481000
_cell_angle_alpha   110.48452927
_cell_angle_beta   108.34901000
_cell_angle_gamma   108.33286676
_symmetry_Int_Tables_number   1
_chemical_formula_structural   Ga2P2H13C4N3O8
_chemical_formula_sum   'Ga12 P12 H78 C24 N18 O48'
_cell_volume   2156.97470482
_cell_formula_units_Z   6
loop_
 _symmetry_equiv_pos_site_id
 _symmetry_equiv_pos_as_xyz
  1  'x, y, z'
loop_
 _atom_site_type_symbol
 _atom_site_label
 _atom_site_symmetry_multiplicity
 _atom_site_fract_x
 _atom_site_fract_y
 _atom_site_fract_z
 _atom_site_occupancy
  Ga  Ga0  1  0.14161000  0.62135000  0.16737000  1
  Ga  Ga1  1  0.18897000  0.45408000  0.86661000  1
  Ga  Ga2  1  0.52128000  0.54590000  0.37877000  1
  Ga  Ga3  1  0.73576000  0.41250000  0.54578000  1
  Ga  Ga4  1  0.97416000  0.83254000  0.45401000  1
  Ga  Ga5  1  0.32305000  0.13333000  0.58741000  1
  Ga  Ga6  1  0.85840000  0.37866000  0.83263000  1
  Ga  Ga7  1  0.81103000  0.54592000  0.13338000  1
  Ga  Ga8  1  0.47872000  0.45410000  0.62123000  1
  Ga  Ga9  1  0.26424000  0.58750000  0.45421000  1
  Ga  Ga10  1  0.02584000  0.16746000  0.54599000  1
  Ga  Ga11  1  0.67696000  0.86668000  0.41259000  1
  P  P12  1  0.06659000  0.60619000  0.94521000  1
  P  P13  1  0.06279000  0.66788000  0.35462000  1
  P  P14  1  0.46074000  0.33915000  0.39411000  1
  P  P15  1  0.39518000  0.68701000  0.33236000  1
  P  P16  1  0.12159000  0.05426000  0.66066000  1
  P  P17  1  0.70838000  0.64514000  0.31290000  1
  P  P18  1  0.93342000  0.39382000  0.05479000  1
  P  P19  1  0.93721000  0.33212000  0.64537000  1
  P  P20  1  0.53927000  0.66086000  0.60589000  1
  P  P21  1  0.60483000  0.31300000  0.66765000  1
  P  P22  1  0.87841000  0.94574000  0.33934000  1
  P  P23  1  0.29162000  0.35486000  0.68710000  1
  H  H24  1  0.31858000  0.60423000  0.83482000  1
  H  H25  1  0.23851000  0.65336000  0.89012000  1
  H  H26  1  0.30773000  0.54692000  0.08800000  1
  H  H27  1  0.10497000  0.23955000  0.80336000  1
  H  H28  1  0.03560000  0.29202000  0.86744000  1
  H  H29  1  0.47295000  0.74462000  0.01761000  1
  H  H30  1  0.36948000  0.72031000  0.07041000  1
  H  H31  1  0.38491000  0.41964000  0.10471000  1
  H  H32  1  0.35223000  0.36736000  0.95890000  1
  H  H33  1  0.50779000  0.64158000  0.12606000  1
  H  H34  1  0.45871000  0.55411000  0.97896000  1
  H  H35  1  0.18967000  0.23824000  0.96991000  1
  H  H36  1  0.16913000  0.35451000  0.04398000  1
  H  H37  1  0.71475000  0.23050000  0.39559000  1
  H  H38  1  0.58596000  0.23746000  0.34730000  1
  H  H39  1  0.76070000  0.54110000  0.45257000  1
  H  H40  1  0.86455000  0.56326000  0.75993000  1
  H  H41  1  0.74238000  0.57408000  0.70584000  1
  H  H42  1  0.72889000  0.27355000  0.25543000  1
  H  H43  1  0.64981000  0.35089000  0.27974000  1
  H  H44  1  0.96528000  0.68490000  0.57968000  1
  H  H45  1  0.98445000  0.59089000  0.63193000  1
  H  H46  1  0.86675000  0.48502000  0.35818000  1
  H  H47  1  0.90484000  0.42495000  0.44571000  1
  H  H48  1  0.95082000  0.73079000  0.76069000  1
  H  H49  1  0.81426000  0.68913000  0.64454000  1
  H  H50  1  0.48388000  0.16474000  0.76858000  1
  H  H51  1  0.34843000  0.10919000  0.76239000  1
  H  H52  1  0.21972000  0.91146000  0.45905000  1
  H  H53  1  0.30109000  0.19647000  0.43609000  1
  H  H54  1  0.16806000  0.13168000  0.42518000  1
  H  H55  1  0.45539000  0.98165000  0.72660000  1
  H  H56  1  0.29909000  0.92865000  0.64933000  1
  H  H57  1  0.28060000  0.89481000  0.31531000  1
  H  H58  1  0.39345000  0.04086000  0.40870000  1
  H  H59  1  0.38189000  0.87298000  0.51538000  1
  H  H60  1  0.47984000  0.02040000  0.57480000  1
  H  H61  1  0.21989000  0.02989000  0.26887000  1
  H  H62  1  0.12526000  0.95532000  0.31089000  1
  H  H63  1  0.68142000  0.39577000  0.16518000  1
  H  H64  1  0.76150000  0.34665000  0.10988000  1
  H  H65  1  0.69227000  0.45308000  0.91200000  1
  H  H66  1  0.89502000  0.76045000  0.19664000  1
  H  H67  1  0.96440000  0.70798000  0.13255000  1
  H  H68  1  0.52704000  0.25538000  0.98239000  1
  H  H69  1  0.63052000  0.27969000  0.92959000  1
  H  H70  1  0.61509000  0.58036000  0.89528000  1
  H  H71  1  0.64777000  0.63264000  0.04110000  1
  H  H72  1  0.49220000  0.35842000  0.87393000  1
  H  H73  1  0.54129000  0.44589000  0.02103000  1
  H  H74  1  0.81033000  0.76176000  0.03009000  1
  H  H75  1  0.83087000  0.64549000  0.95602000  1
  H  H76  1  0.28525000  0.76951000  0.60442000  1
  H  H77  1  0.41404000  0.76254000  0.65270000  1
  H  H78  1  0.23930000  0.45890000  0.54743000  1
  H  H79  1  0.13546000  0.43675000  0.24007000  1
  H  H80  1  0.25762000  0.42592000  0.29416000  1
  H  H81  1  0.27112000  0.72646000  0.74458000  1
  H  H82  1  0.35019000  0.64911000  0.72025000  1
  H  H83  1  0.03471000  0.31510000  0.42031000  1
  H  H84  1  0.01556000  0.40912000  0.36807000  1
  H  H85  1  0.13326000  0.51499000  0.64182000  1
  H  H86  1  0.09516000  0.57505000  0.55429000  1
  H  H87  1  0.04918000  0.26922000  0.23931000  1
  H  H88  1  0.18574000  0.31087000  0.35545000  1
  H  H89  1  0.51613000  0.83527000  0.23142000  1
  H  H90  1  0.65157000  0.89081000  0.23760000  1
  H  H91  1  0.78029000  0.08855000  0.54095000  1
  H  H92  1  0.69892000  0.80354000  0.56391000  1
  H  H93  1  0.83195000  0.86833000  0.57483000  1
  H  H94  1  0.54461000  0.01835000  0.27339000  1
  H  H95  1  0.70091000  0.07135000  0.35066000  1
  H  H96  1  0.71941000  0.10520000  0.68469000  1
  H  H97  1  0.60655000  0.95914000  0.59129000  1
  H  H98  1  0.61811000  0.12702000  0.48462000  1
  H  H99  1  0.52016000  0.97960000  0.42520000  1
  H  H100  1  0.78012000  0.97012000  0.73113000  1
  H  H101  1  0.87474000  0.04468000  0.68911000  1
  C  C102  1  0.39738000  0.67884000  0.01089000  1
  C  C103  1  0.43320000  0.59663000  0.03980000  1
  C  C104  1  0.32546000  0.40355000  0.02155000  1
  C  C105  1  0.19718000  0.32062000  0.98153000  1
  C  C106  1  0.71909000  0.33254000  0.32109000  1
  C  C107  1  0.83695000  0.44350000  0.40309000  1
  C  C108  1  0.92173000  0.61769000  0.59571000  1
  C  C109  1  0.87612000  0.66033000  0.67839000  1
  C  C110  1  0.38662000  0.98830000  0.66744000  1
  C  C111  1  0.39350000  0.95937000  0.55654000  1
  C  C112  1  0.30406000  0.97795000  0.38224000  1
  C  C113  1  0.21575000  0.01802000  0.33944000  1
  C  C114  1  0.60261000  0.32116000  0.98911000  1
  C  C115  1  0.56680000  0.40337000  0.96019000  1
  C  C116  1  0.67454000  0.59645000  0.97845000  1
  C  C117  1  0.80283000  0.67939000  0.01848000  1
  C  C118  1  0.28092000  0.66747000  0.67891000  1
  C  C119  1  0.16305000  0.55650000  0.59690000  1
  C  C120  1  0.07827000  0.38231000  0.40429000  1
  C  C121  1  0.12388000  0.33967000  0.32161000  1
  C  C122  1  0.61339000  0.01171000  0.33256000  1
  C  C123  1  0.60650000  0.04063000  0.44345000  1
  C  C124  1  0.69594000  0.02205000  0.61776000  1
  C  C125  1  0.78425000  0.98198000  0.66056000  1
  N  N126  1  0.29319000  0.61544000  0.89626000  1
  N  N127  1  0.32687000  0.50864000  0.02524000  1
  N  N128  1  0.11743000  0.30703000  0.87302000  1
  N  N129  1  0.67847000  0.28113000  0.38468000  1
  N  N130  1  0.81830000  0.51661000  0.49080000  1
  N  N131  1  0.80990000  0.56521000  0.69193000  1
  N  N132  1  0.39705000  0.10312000  0.71851000  1
  N  N133  1  0.30174000  0.97414000  0.48340000  1
  N  N134  1  0.24444000  0.12654000  0.43426000  1
  N  N135  1  0.70681000  0.38456000  0.10373000  1
  N  N136  1  0.67313000  0.49136000  0.97475000  1
  N  N137  1  0.88257000  0.69297000  0.12697000  1
  N  N138  1  0.32153000  0.71887000  0.61531000  1
  N  N139  1  0.18170000  0.48339000  0.50919000  1
  N  N140  1  0.19011000  0.43480000  0.30807000  1
  N  N141  1  0.60296000  0.89689000  0.28149000  1
  N  N142  1  0.69827000  0.02587000  0.51660000  1
  N  N143  1  0.75556000  0.87346000  0.56573000  1
  O  O144  1  0.11093000  0.51815000  0.94935000  1
  O  O145  1  0.09385000  0.67851000  0.07246000  1
  O  O146  1  0.92432000  0.53176000  0.87084000  1
  O  O147  1  0.11586000  0.67856000  0.89970000  1
  O  O148  1  0.11858000  0.70708000  0.28525000  1
  O  O149  1  0.08876000  0.78227000  0.45412000  1
  O  O150  1  0.11631000  0.60586000  0.40395000  1
  O  O151  1  0.92693000  0.59177000  0.28265000  1
  O  O152  1  0.59316000  0.43107000  0.48089000  1
  O  O153  1  0.41537000  0.39414000  0.32161000  1
  O  O154  1  0.39308000  0.33936000  0.46867000  1
  O  O155  1  0.43744000  0.22104000  0.32251000  1
  O  O156  1  0.41258000  0.57892000  0.29391000  1
  O  O157  1  0.30642000  0.67151000  0.21758000  1
  O  O158  1  0.51012000  0.79866000  0.39351000  1
  O  O159  1  0.33549000  0.69108000  0.40850000  1
  O  O160  1  0.16158000  0.05037000  0.56858000  1
  O  O161  1  0.02146000  0.92680000  0.60590000  1
  O  O162  1  0.05416000  0.12917000  0.66081000  1
  O  O163  1  0.21637000  0.09911000  0.77812000  1
  O  O164  1  0.83346000  0.71381000  0.42122000  1
  O  O165  1  0.63501000  0.54521000  0.32777000  1
  O  O166  1  0.71228000  0.59581000  0.20162000  1
  O  O167  1  0.64451000  0.71735000  0.30924000  1
  O  O168  1  0.88907000  0.48185000  0.05064000  1
  O  O169  1  0.90616000  0.32150000  0.92754000  1
  O  O170  1  0.07568000  0.46824000  0.12915000  1
  O  O171  1  0.88414000  0.32144000  0.10029000  1
  O  O172  1  0.88142000  0.29292000  0.71475000  1
  O  O173  1  0.91124000  0.21773000  0.54587000  1
  O  O174  1  0.88369000  0.39414000  0.59605000  1
  O  O175  1  0.07307000  0.40823000  0.71734000  1
  O  O176  1  0.40684000  0.56893000  0.51910000  1
  O  O177  1  0.58463000  0.60586000  0.67838000  1
  O  O178  1  0.60692000  0.66064000  0.53132000  1
  O  O179  1  0.56256000  0.77896000  0.67749000  1
  O  O180  1  0.58742000  0.42108000  0.70608000  1
  O  O181  1  0.69358000  0.32849000  0.78241000  1
  O  O182  1  0.48988000  0.20134000  0.60649000  1
  O  O183  1  0.66451000  0.30892000  0.59149000  1
  O  O184  1  0.83843000  0.94964000  0.43142000  1
  O  O185  1  0.97854000  0.07320000  0.39409000  1
  O  O186  1  0.94585000  0.87084000  0.33920000  1
  O  O187  1  0.78363000  0.90089000  0.22187000  1
  O  O188  1  0.16654000  0.28619000  0.57877000  1
  O  O189  1  0.36500000  0.45480000  0.67223000  1
  O  O190  1  0.28773000  0.40420000  0.79838000  1
  O  O191  1  0.35549000  0.28265000  0.69075000  1
