# generated using pymatgen
data_MnH8(C7O3)2
_symmetry_space_group_name_H-M   'P 1'
_cell_length_a   11.45416000
_cell_length_b   18.00401000
_cell_length_c   21.35744000
_cell_angle_alpha   89.93585000
_cell_angle_beta   89.99687000
_cell_angle_gamma   92.92176000
_symmetry_Int_Tables_number   1
_chemical_formula_structural   MnH8(C7O3)2
_chemical_formula_sum   'Mn12 H96 C168 O72'
_cell_volume   4398.62047566
_cell_formula_units_Z   12
loop_
 _symmetry_equiv_pos_site_id
 _symmetry_equiv_pos_as_xyz
  1  'x, y, z'
loop_
 _atom_site_type_symbol
 _atom_site_label
 _atom_site_symmetry_multiplicity
 _atom_site_fract_x
 _atom_site_fract_y
 _atom_site_fract_z
 _atom_site_occupancy
  Mn  Mn0  1  0.81564000  0.47950000  0.85853000  1
  Mn  Mn1  1  0.11054000  0.03614000  0.59180000  1
  Mn  Mn2  1  0.18197000  0.02089000  0.35711000  1
  Mn  Mn3  1  0.56321000  0.04239000  0.58556000  1
  Mn  Mn4  1  0.88903000  0.46447000  0.09384000  1
  Mn  Mn5  1  0.18418000  0.52096000  0.14106000  1
  Mn  Mn6  1  0.88626000  0.96366000  0.40529000  1
  Mn  Mn7  1  0.56293000  0.54223000  0.91404000  1
  Mn  Mn8  1  0.11152000  0.53780000  0.90652000  1
  Mn  Mn9  1  0.81623000  0.97890000  0.64063000  1
  Mn  Mn10  1  0.43388000  0.95779000  0.41378000  1
  Mn  Mn11  1  0.43610000  0.45771000  0.08531000  1
  H  H12  1  0.23493000  0.20492000  0.49298000  1
  H  H13  1  0.22123000  0.95801000  0.78041000  1
  H  H14  1  0.08408000  0.32686000  0.88889000  1
  H  H15  1  0.22195000  0.45795000  0.72031000  1
  H  H16  1  0.28751000  0.14540000  0.97561000  1
  H  H17  1  0.90241000  0.31375000  0.38168000  1
  H  H18  1  0.61925000  0.51089000  0.52360000  1
  H  H19  1  0.01371000  0.62019000  0.44800000  1
  H  H20  1  0.53095000  0.10894000  0.05770000  1
  H  H21  1  0.53382000  0.60801000  0.44107000  1
  H  H22  1  0.77883000  0.54257000  0.27972000  1
  H  H23  1  0.91602000  0.17559000  0.38716000  1
  H  H24  1  0.09508000  0.18876000  0.88111000  1
  H  H25  1  0.72572000  0.71696000  0.00742000  1
  H  H26  1  0.46188000  0.89325000  0.94163000  1
  H  H27  1  0.30270000  0.80199000  0.35214000  1
  H  H28  1  0.24359000  0.46319000  0.96206000  1
  H  H29  1  0.08155000  0.82629000  0.60942000  1
  H  H30  1  0.27313000  0.28249000  0.99224000  1
  H  H31  1  0.86109000  0.97642000  0.03056000  1
  H  H32  1  0.23246000  0.56411000  0.30161000  1
  H  H33  1  0.16687000  0.21407000  0.65210000  1
  H  H34  1  0.60922000  0.18636000  0.87443000  1
  H  H35  1  0.47414000  0.57668000  0.70126000  1
  H  H36  1  0.03524000  0.24811000  0.56748000  1
  H  H37  1  0.27544000  0.78431000  0.50654000  1
  H  H38  1  0.52625000  0.42367000  0.29912000  1
  H  H39  1  0.86316000  0.47693000  0.46850000  1
  H  H40  1  0.83075000  0.28379000  0.15213000  1
  H  H41  1  0.76861000  0.93606000  0.80195000  1
  H  H42  1  0.34737000  0.57829000  0.08564000  1
  H  H43  1  0.22690000  0.34255000  0.48331000  1
  H  H44  1  0.58727000  0.32190000  0.88410000  1
  H  H45  1  0.34491000  0.07833000  0.41193000  1
  H  H46  1  0.82933000  0.78608000  0.34624000  1
  H  H47  1  0.75427000  0.53759000  0.03893000  1
  H  H48  1  0.13560000  0.34970000  0.65296000  1
  H  H49  1  0.90212000  0.81246000  0.11890000  1
  H  H50  1  0.23144000  0.06416000  0.19670000  1
  H  H51  1  0.38902000  0.31459000  0.37510000  1
  H  H52  1  0.37587000  0.98954000  0.02273000  1
  H  H53  1  0.12991000  0.02402000  0.96797000  1
  H  H54  1  0.65386000  0.42117000  0.91452000  1
  H  H55  1  0.49621000  0.75709000  0.93995000  1
  H  H56  1  0.64281000  0.32775000  0.63014000  1
  H  H57  1  0.49657000  0.25486000  0.55994000  1
  H  H58  1  0.50186000  0.24574000  0.05841000  1
  H  H59  1  0.47433000  0.07603000  0.79750000  1
  H  H60  1  0.86047000  0.14816000  0.15223000  1
  H  H61  1  0.69624000  0.19743000  0.64761000  1
  H  H62  1  0.09558000  0.42967000  0.31627000  1
  H  H63  1  0.50109000  0.74434000  0.43970000  1
  H  H64  1  0.28784000  0.64700000  0.52261000  1
  H  H65  1  0.72325000  0.21564000  0.49270000  1
  H  H66  1  0.77188000  0.65588000  0.51656000  1
  H  H67  1  0.01415000  0.12133000  0.05025000  1
  H  H68  1  0.91655000  0.67448000  0.11204000  1
  H  H69  1  0.98214000  0.37959000  0.54970000  1
  H  H70  1  0.35522000  0.17158000  0.12928000  1
  H  H71  1  0.23503000  0.70623000  0.00607000  1
  H  H72  1  0.03553000  0.74807000  0.93270000  1
  H  H73  1  0.46566000  0.39150000  0.55937000  1
  H  H74  1  0.16770000  0.71449000  0.84691000  1
  H  H75  1  0.09149000  0.93001000  0.18393000  1
  H  H76  1  0.71165000  0.85421000  0.02295000  1
  H  H77  1  0.77218000  0.04059000  0.21900000  1
  H  H78  1  0.90519000  0.57108000  0.68404000  1
  H  H79  1  0.96197000  0.75201000  0.43071000  1
  H  H80  1  0.38915000  0.81473000  0.12367000  1
  H  H81  1  0.96316000  0.25333000  0.06789000  1
  H  H82  1  0.24548000  0.96240000  0.53764000  1
  H  H83  1  0.65234000  0.92197000  0.58714000  1
  H  H84  1  0.13329000  0.84960000  0.84704000  1
  H  H85  1  0.41072000  0.67903000  0.11504000  1
  H  H86  1  0.69580000  0.69864000  0.85319000  1
  H  H87  1  0.90474000  0.07279000  0.81294000  1
  H  H88  1  0.71028000  0.35295000  0.47706000  1
  H  H89  1  0.09700000  0.68835000  0.61700000  1
  H  H90  1  0.58860000  0.82097000  0.61593000  1
  H  H91  1  0.13652000  0.52286000  0.53155000  1
  H  H92  1  0.64467000  0.82971000  0.86944000  1
  H  H93  1  0.40967000  0.17887000  0.38367000  1
  H  H94  1  0.30383000  0.30252000  0.14610000  1
  H  H95  1  0.62227000  0.01211000  0.97508000  1
  H  H96  1  0.76596000  0.43462000  0.69666000  1
  H  H97  1  0.98447000  0.88011000  0.94969000  1
  H  H98  1  0.86274000  0.65079000  0.34629000  1
  H  H99  1  0.37569000  0.48811000  0.47568000  1
  H  H100  1  0.35415000  0.67116000  0.36880000  1
  H  H101  1  0.77034000  0.15993000  0.98259000  1
  H  H102  1  0.76181000  0.79313000  0.50489000  1
  H  H103  1  0.22620000  0.84362000  0.01721000  1
  H  H104  1  0.76463000  0.29720000  0.99423000  1
  H  H105  1  0.52525000  0.92359000  0.19931000  1
  H  H106  1  0.75180000  0.03639000  0.46057000  1
  H  H107  1  0.60853000  0.68533000  0.62521000  1
  C  C108  1  0.24010000  0.26248000  0.12601000  1
  C  C109  1  0.12933000  0.28578000  0.10881000  1
  C  C110  1  0.18662000  0.13917000  0.08895000  1
  C  C111  1  0.62959000  0.00285000  0.72290000  1
  C  C112  1  0.65348000  0.73862000  0.03362000  1
  C  C113  1  0.40188000  0.35231000  0.58045000  1
  C  C114  1  0.66261000  0.77367000  0.39220000  1
  C  C115  1  0.42672000  0.39279000  0.95237000  1
  C  C116  1  0.72906000  0.31058000  0.61712000  1
  C  C117  1  0.43047000  0.31157000  0.94031000  1
  C  C118  1  0.87000000  0.71537000  0.89120000  1
  C  C119  1  0.05982000  0.01416000  0.78988000  1
  C  C120  1  0.93581000  0.66460000  0.56631000  1
  C  C121  1  0.16369000  0.72963000  0.03172000  1
  C  C122  1  0.47439000  0.21659000  0.40576000  1
  C  C123  1  0.92291000  0.83996000  0.92813000  1
  C  C124  1  0.70220000  0.46611000  0.67184000  1
  C  C125  1  0.92106000  0.33931000  0.57153000  1
  C  C126  1  0.62287000  0.01076000  0.92414000  1
  C  C127  1  0.07592000  0.18203000  0.44057000  1
  C  C128  1  0.46322000  0.29297000  0.39958000  1
  C  C129  1  0.96854000  0.99475000  0.27530000  1
  C  C130  1  0.66418000  0.27341000  0.10605000  1
  C  C131  1  0.21348000  0.82987000  0.86658000  1
  C  C132  1  0.78107000  0.16895000  0.13269000  1
  C  C133  1  0.37897000  0.49452000  0.29347000  1
  C  C134  1  0.29616000  0.87938000  0.89430000  1
  C  C135  1  0.98390000  0.44691000  0.39570000  1
  C  C136  1  0.39916000  0.85374000  0.92013000  1
  C  C137  1  0.54066000  0.04836000  0.88941000  1
  C  C138  1  0.42963000  0.89364000  0.54831000  1
  C  C139  1  0.73052000  0.81194000  0.88263000  1
  C  C140  1  0.11570000  0.52115000  0.58125000  1
  C  C141  1  0.02140000  0.21277000  0.90427000  1
  C  C142  1  0.37806000  0.99451000  0.20494000  1
  C  C143  1  0.62014000  0.50983000  0.57455000  1
  C  C144  1  0.15889000  0.80625000  0.03747000  1
  C  C145  1  0.54871000  0.34137000  0.42612000  1
  C  C146  1  0.18602000  0.63851000  0.40936000  1
  C  C147  1  0.75920000  0.23757000  0.62692000  1
  C  C148  1  0.01285000  0.05526000  0.89355000  1
  C  C149  1  0.65140000  0.23745000  0.46623000  1
  C  C150  1  0.59491000  0.14768000  0.07915000  1
  C  C151  1  0.57105000  0.60749000  0.04735000  1
  C  C152  1  0.02747000  0.50572000  0.77629000  1
  C  C153  1  0.83561000  0.27341000  0.96856000  1
  C  C154  1  0.70093000  0.46865000  0.60676000  1
  C  C155  1  0.81023000  0.36096000  0.58885000  1
  C  C156  1  0.70386000  0.96982000  0.89193000  1
  C  C157  1  0.97629000  0.78898000  0.09578000  1
  C  C158  1  0.97661000  0.28966000  0.40433000  1
  C  C159  1  0.53459000  0.20729000  0.89895000  1
  C  C160  1  0.23310000  0.25332000  0.63311000  1
  C  C161  1  0.53765000  0.54668000  0.67473000  1
  C  C162  1  0.62921000  0.50272000  0.77586000  1
  C  C163  1  0.64579000  0.85527000  0.39530000  1
  C  C164  1  0.57895000  0.72307000  0.41853000  1
  C  C165  1  0.81252000  0.86204000  0.91046000  1
  C  C166  1  0.75946000  0.73859000  0.87346000  1
  C  C167  1  0.59689000  0.64729000  0.41946000  1
  C  C168  1  0.64576000  0.81482000  0.04174000  1
  C  C169  1  0.69676000  0.12050000  0.10509000  1
  C  C170  1  0.29541000  0.03123000  0.10649000  1
  C  C171  1  0.53884000  0.04678000  0.82401000  1
  C  C172  1  0.95097000  0.76661000  0.91836000  1
  C  C173  1  0.65267000  0.35552000  0.10213000  1
  C  C174  1  0.44885000  0.65851000  0.57389000  1
  C  C175  1  0.97316000  0.49481000  0.22392000  1
  C  C176  1  0.83371000  0.77010000  0.53037000  1
  C  C177  1  0.33415000  0.22603000  0.60663000  1
  C  C178  1  0.46068000  0.95339000  0.17330000  1
  C  C179  1  0.64435000  0.31378000  0.45802000  1
  C  C180  1  0.34968000  0.14446000  0.60221000  1
  C  C181  1  0.35308000  0.64588000  0.89560000  1
  C  C182  1  0.78266000  0.67071000  0.36580000  1
  C  C183  1  0.23298000  0.75400000  0.86635000  1
  C  C184  1  0.56877000  0.10611000  0.45116000  1
  C  C185  1  0.34707000  0.76247000  0.53316000  1
  C  C186  1  0.23888000  0.76202000  0.37231000  1
  C  C187  1  0.01093000  0.95227000  0.16705000  1
  C  C188  1  0.56602000  0.18769000  0.44035000  1
  C  C189  1  0.45788000  0.95225000  0.10789000  1
  C  C190  1  0.07613000  0.68210000  0.05840000  1
  C  C191  1  0.07598000  0.16138000  0.07176000  1
  C  C192  1  0.41788000  0.77808000  0.91902000  1
  C  C193  1  0.35309000  0.18511000  0.95693000  1
  C  C194  1  0.29936000  0.37857000  0.60630000  1
  C  C195  1  0.07527000  0.10117000  0.45317000  1
  C  C196  1  0.88442000  0.47916000  0.41886000  1
  C  C197  1  0.26906000  0.18919000  0.11653000  1
  C  C198  1  0.16220000  0.98435000  0.81240000  1
  C  C199  1  0.37574000  0.99048000  0.07366000  1
  C  C200  1  0.52393000  0.78320000  0.59385000  1
  C  C201  1  0.04788000  0.23467000  0.08188000  1
  C  C202  1  0.76382000  0.74664000  0.36567000  1
  C  C203  1  0.41880000  0.27643000  0.58096000  1
  C  C204  1  0.01357000  0.78847000  0.59009000  1
  C  C205  1  0.06344000  0.33560000  0.43293000  1
  C  C206  1  0.45832000  0.45175000  0.39051000  1
  C  C207  1  0.07592000  0.60137000  0.04541000  1
  C  C208  1  0.01517000  0.28990000  0.90848000  1
  C  C209  1  0.53870000  0.54793000  0.60928000  1
  C  C210  1  0.62200000  0.00560000  0.79286000  1
  C  C211  1  0.69948000  0.62134000  0.39340000  1
  C  C212  1  0.98550000  0.54823000  0.66742000  1
  C  C213  1  0.81272000  0.51484000  0.37651000  1
  C  C214  1  0.93544000  0.98679000  0.20808000  1
  C  C215  1  0.44916000  0.15829000  0.92495000  1
  C  C216  1  0.98430000  0.04972000  0.83034000  1
  C  C217  1  0.07529000  0.66049000  0.42656000  1
  C  C218  1  0.46145000  0.45323000  0.32511000  1
  C  C219  1  0.89954000  0.63659000  0.88373000  1
  C  C220  1  0.83860000  0.19668000  0.96240000  1
  C  C221  1  0.47553000  0.71711000  0.09336000  1
  C  C222  1  0.29577000  0.53078000  0.39197000  1
  C  C223  1  0.70459000  0.96720000  0.82684000  1
  C  C224  1  0.98447000  0.71197000  0.09215000  1
  C  C225  1  0.83917000  0.69352000  0.53645000  1
  C  C226  1  0.21535000  0.32939000  0.63342000  1
  C  C227  1  0.83126000  0.01520000  0.18646000  1
  C  C228  1  0.29625000  0.53322000  0.32694000  1
  C  C229  1  0.11077000  0.02238000  0.91807000  1
  C  C230  1  0.33451000  0.72727000  0.89275000  1
  C  C231  1  0.18371000  0.98628000  0.87666000  1
  C  C232  1  0.95032000  0.26617000  0.58176000  1
  C  C233  1  0.37581000  0.48960000  0.42474000  1
  C  C234  1  0.76429000  0.24505000  0.13276000  1
  C  C235  1  0.62053000  0.50512000  0.70587000  1
  C  C236  1  0.92396000  0.32054000  0.94208000  1
  C  C237  1  0.37004000  0.99697000  0.27487000  1
  C  C238  1  0.88120000  0.97823000  0.08034000  1
  C  C239  1  0.80809000  0.01338000  0.12235000  1
  C  C240  1  0.52268000  0.28356000  0.90570000  1
  C  C241  1  0.34524000  0.26123000  0.96566000  1
  C  C242  1  0.83703000  0.51682000  0.31256000  1
  C  C243  1  0.04690000  0.73382000  0.41659000  1
  C  C244  1  0.35369000  0.68621000  0.54167000  1
  C  C245  1  0.53459000  0.70680000  0.60040000  1
  C  C246  1  0.16364000  0.48377000  0.68757000  1
  C  C247  1  0.01649000  0.55371000  0.60447000  1
  C  C248  1  0.37093000  0.49700000  0.22355000  1
  C  C249  1  0.94077000  0.48748000  0.29137000  1
  C  C250  1  0.29528000  0.03324000  0.17150000  1
  C  C251  1  0.93359000  0.16658000  0.93186000  1
  C  C252  1  0.89881000  0.13561000  0.61635000  1
  C  C253  1  0.18749000  0.48551000  0.62357000  1
  C  C254  1  0.98428000  0.21259000  0.40726000  1
  C  C255  1  0.43264000  0.81210000  0.55898000  1
  C  C256  1  0.92118000  0.81797000  0.55662000  1
  C  C257  1  0.02826000  0.00568000  0.72242000  1
  C  C258  1  0.06271000  0.83555000  0.06743000  1
  C  C259  1  0.01524000  0.45253000  0.33283000  1
  C  C260  1  0.92063000  0.89870000  0.54364000  1
  C  C261  1  0.56775000  0.68873000  0.05901000  1
  C  C262  1  0.54919000  0.84199000  0.07302000  1
  C  C263  1  0.98073000  0.94638000  0.10414000  1
  C  C264  1  0.16372000  0.22894000  0.46764000  1
  C  C265  1  0.26808000  0.68874000  0.38170000  1
  C  C266  1  0.10097000  0.36476000  0.11626000  1
  C  C267  1  0.15941000  0.30568000  0.46264000  1
  C  C268  1  0.09978000  0.86440000  0.38225000  1
  C  C269  1  0.06007000  0.51323000  0.70885000  1
  C  C270  1  0.12809000  0.78527000  0.38968000  1
  C  C271  1  0.02231000  0.71153000  0.59410000  1
  C  C272  1  0.57906000  0.22379000  0.07983000  1
  C  C273  1  0.46380000  0.79340000  0.09948000  1
  C  C274  1  0.92468000  0.40149000  0.95473000  1
  C  C275  1  0.86995000  0.21465000  0.60917000  1
  O  O276  1  0.51424000  0.06362000  0.41178000  1
  O  O277  1  0.73193000  0.90042000  0.38406000  1
  O  O278  1  0.89745000  0.91871000  0.48907000  1
  O  O279  1  0.05713000  0.41215000  0.43764000  1
  O  O280  1  0.45209000  0.12560000  0.58682000  1
  O  O281  1  0.93705000  0.08964000  0.93419000  1
  O  O282  1  0.09742000  0.58131000  0.99074000  1
  O  O283  1  0.78682000  0.93415000  0.92691000  1
  O  O284  1  0.21165000  0.06700000  0.07238000  1
  O  O285  1  0.10895000  0.50408000  0.81613000  1
  O  O286  1  0.42282000  0.45193000  0.18976000  1
  O  O287  1  0.57742000  0.04791000  0.68907000  1
  O  O288  1  0.29089000  0.53693000  0.07662000  1
  O  O289  1  0.91675000  0.50056000  0.78694000  1
  O  O290  1  0.07933000  0.99979000  0.28577000  1
  O  O291  1  0.09702000  0.08097000  0.50780000  1
  O  O292  1  0.88684000  0.99647000  0.31510000  1
  O  O293  1  0.89139000  0.49653000  0.18428000  1
  O  O294  1  0.90315000  0.42239000  0.00913000  1
  O  O295  1  0.62738000  0.58477000  0.99981000  1
  O  O296  1  0.71325000  0.54554000  0.40038000  1
  O  O297  1  0.81280000  0.58908000  0.87914000  1
  O  O298  1  0.94727000  0.44787000  0.90835000  1
  O  O299  1  0.45207000  0.58178000  0.57508000  1
  O  O300  1  0.81778000  0.04493000  0.43144000  1
  O  O301  1  0.28150000  0.95499000  0.90189000  1
  O  O302  1  0.00611000  0.11921000  0.61634000  1
  O  O303  1  0.99375000  0.38110000  0.11768000  1
  O  O304  1  0.70853000  0.46357000  0.92303000  1
  O  O305  1  0.05287000  0.55487000  0.09158000  1
  O  O306  1  0.00755000  0.62158000  0.88221000  1
  O  O307  1  0.48094000  0.43679000  0.91393000  1
  O  O308  1  0.69697000  0.95206000  0.70184000  1
  O  O309  1  0.55304000  0.37762000  0.08528000  1
  O  O310  1  0.18759000  0.91117000  0.37750000  1
  O  O311  1  0.26289000  0.09958000  0.61292000  1
  O  O312  1  0.70889000  0.04453000  0.09817000  1
  O  O313  1  0.57756000  0.54787000  0.80963000  1
  O  O314  1  0.08380000  0.49961000  0.21294000  1
  O  O315  1  0.30173000  0.04750000  0.29572000  1
  O  O316  1  0.37115000  0.41494000  0.00035000  1
  O  O317  1  0.54276000  0.87389000  0.40992000  1
  O  O318  1  0.54401000  0.41804000  0.42533000  1
  O  O319  1  0.10957000  0.00357000  0.68254000  1
  O  O320  1  0.45351000  0.08165000  0.92353000  1
  O  O321  1  0.18864000  0.41156000  0.12087000  1
  O  O322  1  0.05642000  0.91215000  0.06328000  1
  O  O323  1  0.28971000  0.03646000  0.42136000  1
  O  O324  1  0.30307000  0.54770000  0.20266000  1
  O  O325  1  0.51508000  0.56410000  0.08568000  1
  O  O326  1  0.54340000  0.91852000  0.07307000  1
  O  O327  1  0.26773000  0.59959000  0.88572000  1
  O  O328  1  0.45760000  0.62872000  0.90858000  1
  O  O329  1  0.70833000  0.96329000  0.57728000  1
  O  O330  1  0.81138000  0.08883000  0.62217000  1
  O  O331  1  0.74194000  0.39756000  0.11474000  1
  O  O332  1  0.17751000  0.45551000  0.93292000  1
  O  O333  1  0.81750000  0.54545000  0.06982000  1
  O  O334  1  0.42233000  0.95211000  0.30863000  1
  O  O335  1  0.28666000  0.45449000  0.59965000  1
  O  O336  1  0.21185000  0.56645000  0.42605000  1
  O  O337  1  0.17726000  0.95452000  0.56540000  1
  O  O338  1  0.94441000  0.94514000  0.58963000  1
  O  O339  1  0.91771000  0.00016000  0.71167000  1
  O  O340  1  0.37415000  0.91822000  0.50112000  1
  O  O341  1  0.99254000  0.88098000  0.38082000  1
  O  O342  1  0.48470000  0.93595000  0.58765000  1
  O  O343  1  0.78300000  0.43269000  0.57155000  1
  O  O344  1  0.62342000  0.08171000  0.49867000  1
  O  O345  1  0.69714000  0.45210000  0.79695000  1
  O  O346  1  0.94285000  0.58802000  0.56245000  1
  O  O347  1  0.05183000  0.05500000  0.40692000  1
