# generated using pymatgen
data_Cu2H24(C3N)13
_symmetry_space_group_name_H-M   'P 1'
_cell_length_a   8.73890000
_cell_length_b   19.21421000
_cell_length_c   22.01699000
_cell_angle_alpha   89.96228000
_cell_angle_beta   90.00000000
_cell_angle_gamma   89.99955000
_symmetry_Int_Tables_number   1
_chemical_formula_structural   Cu2H24(C3N)13
_chemical_formula_sum   'Cu8 H96 C156 N52'
_cell_volume   3696.89532258
_cell_formula_units_Z   4
loop_
 _symmetry_equiv_pos_site_id
 _symmetry_equiv_pos_as_xyz
  1  'x, y, z'
loop_
 _atom_site_type_symbol
 _atom_site_label
 _atom_site_symmetry_multiplicity
 _atom_site_fract_x
 _atom_site_fract_y
 _atom_site_fract_z
 _atom_site_occupancy
  Cu  Cu0  1  0.25286000  0.89410000  0.49957000  1
  Cu  Cu1  1  0.24717000  0.39408000  0.99957000  1
  Cu  Cu2  1  0.75148000  0.76899000  0.50134000  1
  Cu  Cu3  1  0.74852000  0.26899000  0.00134000  1
  Cu  Cu4  1  0.75284000  0.60592000  0.00045000  1
  Cu  Cu5  1  0.74714000  0.10591000  0.50041000  1
  Cu  Cu6  1  0.25147000  0.73101000  0.99866000  1
  Cu  Cu7  1  0.24851000  0.23101000  0.49867000  1
  H  H8  1  0.11377000  0.04064000  0.46937000  1
  H  H9  1  0.19085000  0.13516000  0.39712000  1
  H  H10  1  0.37577000  0.89869000  0.37159000  1
  H  H11  1  0.47149000  0.09550000  0.25400000  1
  H  H12  1  0.43870000  0.15108000  0.17075000  1
  H  H13  1  0.51126000  0.24325000  0.09695000  1
  H  H14  1  0.89832000  0.13562000  0.04362000  1
  H  H15  1  0.83920000  0.03665000  0.11313000  1
  H  H16  1  0.68258000  0.94217000  0.13597000  1
  H  H17  1  0.71555000  0.73629000  0.08621000  1
  H  H18  1  0.58190000  0.64322000  0.14686000  1
  H  H19  1  0.44848000  0.79104000  0.27397000  1
  H  H20  1  0.37818000  0.04497000  0.52841000  1
  H  H21  1  0.32257000  0.13523000  0.60528000  1
  H  H22  1  0.11548000  0.90184000  0.62604000  1
  H  H23  1  0.03135000  0.09619000  0.74703000  1
  H  H24  1  0.05902000  0.15212000  0.83156000  1
  H  H25  1  0.97685000  0.24429000  0.90512000  1
  H  H26  1  0.59105000  0.13335000  0.95347000  1
  H  H27  1  0.65987000  0.03445000  0.88551000  1
  H  H28  1  0.81980000  0.94198000  0.86412000  1
  H  H29  1  0.79592000  0.73730000  0.91598000  1
  H  H30  1  0.92316000  0.64399000  0.85453000  1
  H  H31  1  0.05023000  0.79102000  0.72530000  1
  H  H32  1  0.38622000  0.54066000  0.96935000  1
  H  H33  1  0.30908000  0.63517000  0.89711000  1
  H  H34  1  0.12426000  0.39868000  0.87158000  1
  H  H35  1  0.02846000  0.59550000  0.75400000  1
  H  H36  1  0.06129000  0.65107000  0.67074000  1
  H  H37  1  0.98875000  0.74325000  0.59695000  1
  H  H38  1  0.60168000  0.63564000  0.54361000  1
  H  H39  1  0.66077000  0.53666000  0.61311000  1
  H  H40  1  0.81738000  0.44216000  0.63597000  1
  H  H41  1  0.78439000  0.23627000  0.58623000  1
  H  H42  1  0.91811000  0.14321000  0.64687000  1
  H  H43  1  0.05157000  0.29104000  0.77396000  1
  H  H44  1  0.12183000  0.54497000  0.02840000  1
  H  H45  1  0.17739000  0.63523000  0.10528000  1
  H  H46  1  0.38453000  0.40185000  0.12604000  1
  H  H47  1  0.46863000  0.59620000  0.24703000  1
  H  H48  1  0.44097000  0.65214000  0.33156000  1
  H  H49  1  0.52318000  0.74430000  0.40511000  1
  H  H50  1  0.90897000  0.63335000  0.45345000  1
  H  H51  1  0.84011000  0.53445000  0.38550000  1
  H  H52  1  0.68016000  0.44199000  0.36412000  1
  H  H53  1  0.70399000  0.23731000  0.41600000  1
  H  H54  1  0.57681000  0.14400000  0.35453000  1
  H  H55  1  0.44978000  0.29102000  0.22529000  1
  H  H56  1  0.61375000  0.45935000  0.03065000  1
  H  H57  1  0.69088000  0.36484000  0.10289000  1
  H  H58  1  0.87575000  0.60132000  0.12842000  1
  H  H59  1  0.97152000  0.40450000  0.24601000  1
  H  H60  1  0.93870000  0.34894000  0.32926000  1
  H  H61  1  0.01124000  0.25675000  0.40305000  1
  H  H62  1  0.39831000  0.36437000  0.45639000  1
  H  H63  1  0.33921000  0.46335000  0.38688000  1
  H  H64  1  0.18261000  0.55784000  0.36403000  1
  H  H65  1  0.21559000  0.76373000  0.41377000  1
  H  H66  1  0.08189000  0.85680000  0.35314000  1
  H  H67  1  0.94844000  0.70896000  0.22604000  1
  H  H68  1  0.87816000  0.45503000  0.97160000  1
  H  H69  1  0.82260000  0.36478000  0.89472000  1
  H  H70  1  0.61545000  0.59815000  0.87397000  1
  H  H71  1  0.53136000  0.40381000  0.75297000  1
  H  H72  1  0.55903000  0.34787000  0.66844000  1
  H  H73  1  0.47682000  0.25571000  0.59489000  1
  H  H74  1  0.09103000  0.36666000  0.54654000  1
  H  H75  1  0.15988000  0.46556000  0.61450000  1
  H  H76  1  0.31983000  0.55802000  0.63588000  1
  H  H77  1  0.29597000  0.76269000  0.58401000  1
  H  H78  1  0.42318000  0.85601000  0.64547000  1
  H  H79  1  0.55022000  0.70899000  0.77471000  1
  H  H80  1  0.88622000  0.95936000  0.53064000  1
  H  H81  1  0.80913000  0.86484000  0.60288000  1
  H  H82  1  0.62426000  0.10132000  0.62841000  1
  H  H83  1  0.52850000  0.90450000  0.74600000  1
  H  H84  1  0.56129000  0.84892000  0.82925000  1
  H  H85  1  0.48873000  0.75675000  0.90305000  1
  H  H86  1  0.10168000  0.86438000  0.95639000  1
  H  H87  1  0.16079000  0.96335000  0.88687000  1
  H  H88  1  0.31741000  0.05783000  0.86403000  1
  H  H89  1  0.28446000  0.26371000  0.91379000  1
  H  H90  1  0.41809000  0.35679000  0.85314000  1
  H  H91  1  0.55152000  0.20896000  0.72603000  1
  H  H92  1  0.62182000  0.95504000  0.47159000  1
  H  H93  1  0.67743000  0.86478000  0.39473000  1
  H  H94  1  0.88451000  0.09817000  0.37395000  1
  H  H95  1  0.96863000  0.90381000  0.25297000  1
  H  H96  1  0.94098000  0.84788000  0.16845000  1
  H  H97  1  0.02315000  0.75570000  0.09490000  1
  H  H98  1  0.40895000  0.86665000  0.04654000  1
  H  H99  1  0.34012000  0.96556000  0.11450000  1
  H  H100  1  0.18019000  0.05802000  0.13588000  1
  H  H101  1  0.20405000  0.26270000  0.08401000  1
  H  H102  1  0.07683000  0.35601000  0.14547000  1
  H  H103  1  0.94977000  0.20899000  0.27470000  1
  C  C104  1  0.44392000  0.85305000  0.49779000  1
  C  C105  1  0.57106000  0.82185000  0.49912000  1
  C  C106  1  0.18734000  0.02946000  0.43080000  1
  C  C107  1  0.22683000  0.08161000  0.38941000  1
  C  C108  1  0.35739000  0.00216000  0.33200000  1
  C  C109  1  0.32771000  0.95068000  0.37549000  1
  C  C110  1  0.44659000  0.98688000  0.27650000  1
  C  C111  1  0.49875000  0.04227000  0.24069000  1
  C  C112  1  0.58579000  0.02768000  0.18888000  1
  C  C113  1  0.63238000  0.08486000  0.14810000  1
  C  C114  1  0.54207000  0.14520000  0.14381000  1
  C  C115  1  0.58195000  0.19706000  0.10289000  1
  C  C116  1  0.79663000  0.13625000  0.07215000  1
  C  C117  1  0.76285000  0.08128000  0.11105000  1
  C  C118  1  0.61822000  0.95777000  0.17596000  1
  C  C119  1  0.55654000  0.90561000  0.21325000  1
  C  C120  1  0.57334000  0.83125000  0.19650000  1
  C  C121  1  0.65453000  0.74912000  0.12809000  1
  C  C122  1  0.58263000  0.69711000  0.16220000  1
  C  C123  1  0.50665000  0.77822000  0.23170000  1
  C  C124  1  0.93726000  0.82087000  0.49920000  1
  C  C125  1  0.30776000  0.03212000  0.56778000  1
  C  C126  1  0.27860000  0.08264000  0.61187000  1
  C  C127  1  0.14274000  0.00355000  0.66778000  1
  C  C128  1  0.16581000  0.95343000  0.62248000  1
  C  C129  1  0.05405000  0.98775000  0.72342000  1
  C  C130  1  0.00329000  0.04287000  0.75986000  1
  C  C131  1  0.91572000  0.02791000  0.81148000  1
  C  C132  1  0.86605000  0.08471000  0.85213000  1
  C  C133  1  0.95374000  0.14572000  0.85724000  1
  C  C134  1  0.90863000  0.19752000  0.89744000  1
  C  C135  1  0.69448000  0.13500000  0.92594000  1
  C  C136  1  0.73358000  0.07994000  0.88794000  1
  C  C137  1  0.88372000  0.95790000  0.82410000  1
  C  C138  1  0.94459000  0.90596000  0.78641000  1
  C  C139  1  0.92841000  0.83159000  0.80328000  1
  C  C140  1  0.85158000  0.74995000  0.87297000  1
  C  C141  1  0.92113000  0.69762000  0.83847000  1
  C  C142  1  0.99342000  0.77840000  0.76793000  1
  C  C143  1  0.05610000  0.35303000  0.99781000  1
  C  C144  1  0.92894000  0.32186000  0.99913000  1
  C  C145  1  0.31265000  0.52947000  0.93079000  1
  C  C146  1  0.27313000  0.58161000  0.88940000  1
  C  C147  1  0.14258000  0.50216000  0.83199000  1
  C  C148  1  0.17230000  0.45068000  0.87548000  1
  C  C149  1  0.05337000  0.48688000  0.77649000  1
  C  C150  1  0.00121000  0.54226000  0.74068000  1
  C  C151  1  0.91418000  0.52768000  0.68888000  1
  C  C152  1  0.86760000  0.58486000  0.64809000  1
  C  C153  1  0.95793000  0.64519000  0.64380000  1
  C  C154  1  0.91805000  0.69706000  0.60288000  1
  C  C155  1  0.70337000  0.63626000  0.57214000  1
  C  C156  1  0.73713000  0.58128000  0.61103000  1
  C  C157  1  0.88175000  0.45777000  0.67595000  1
  C  C158  1  0.94343000  0.40560000  0.71325000  1
  C  C159  1  0.92663000  0.33124000  0.69650000  1
  C  C160  1  0.84542000  0.24911000  0.62810000  1
  C  C161  1  0.91736000  0.19710000  0.66220000  1
  C  C162  1  0.99336000  0.27822000  0.73169000  1
  C  C163  1  0.56276000  0.32088000  0.99920000  1
  C  C164  1  0.19224000  0.53212000  0.06777000  1
  C  C165  1  0.22138000  0.58264000  0.11187000  1
  C  C166  1  0.35724000  0.50355000  0.16778000  1
  C  C167  1  0.33419000  0.45344000  0.12248000  1
  C  C168  1  0.44593000  0.48775000  0.22341000  1
  C  C169  1  0.49668000  0.54288000  0.25985000  1
  C  C170  1  0.58424000  0.52792000  0.31148000  1
  C  C171  1  0.63394000  0.58471000  0.35212000  1
  C  C172  1  0.54625000  0.64573000  0.35724000  1
  C  C173  1  0.59139000  0.69753000  0.39743000  1
  C  C174  1  0.80553000  0.63500000  0.42593000  1
  C  C175  1  0.76641000  0.57994000  0.38793000  1
  C  C176  1  0.61625000  0.45791000  0.32410000  1
  C  C177  1  0.55537000  0.40597000  0.28641000  1
  C  C178  1  0.57154000  0.33160000  0.30329000  1
  C  C179  1  0.64835000  0.24996000  0.37299000  1
  C  C180  1  0.57882000  0.19762000  0.33848000  1
  C  C181  1  0.50656000  0.27841000  0.26793000  1
  C  C182  1  0.94389000  0.64698000  0.00222000  1
  C  C183  1  0.07106000  0.67815000  0.00088000  1
  C  C184  1  0.68733000  0.47054000  0.06921000  1
  C  C185  1  0.72685000  0.41839000  0.11060000  1
  C  C186  1  0.85740000  0.49784000  0.16801000  1
  C  C187  1  0.82770000  0.54933000  0.12452000  1
  C  C188  1  0.94662000  0.51313000  0.22351000  1
  C  C189  1  0.99877000  0.45774000  0.25932000  1
  C  C190  1  0.08580000  0.47233000  0.31112000  1
  C  C191  1  0.13239000  0.41514000  0.35191000  1
  C  C192  1  0.04206000  0.35482000  0.35620000  1
  C  C193  1  0.08194000  0.30295000  0.39712000  1
  C  C194  1  0.29662000  0.36375000  0.42786000  1
  C  C195  1  0.26285000  0.41873000  0.38896000  1
  C  C196  1  0.11824000  0.54224000  0.32405000  1
  C  C197  1  0.05657000  0.59440000  0.28675000  1
  C  C198  1  0.07337000  0.66876000  0.30350000  1
  C  C199  1  0.15457000  0.75090000  0.37190000  1
  C  C200  1  0.08264000  0.80291000  0.33780000  1
  C  C201  1  0.00664000  0.72179000  0.26831000  1
  C  C202  1  0.43727000  0.67913000  0.00080000  1
  C  C203  1  0.80775000  0.46788000  0.93223000  1
  C  C204  1  0.77861000  0.41736000  0.88814000  1
  C  C205  1  0.64274000  0.49645000  0.83223000  1
  C  C206  1  0.66580000  0.54656000  0.87753000  1
  C  C207  1  0.55406000  0.51225000  0.77659000  1
  C  C208  1  0.50331000  0.45713000  0.74015000  1
  C  C209  1  0.41574000  0.47208000  0.68853000  1
  C  C210  1  0.36606000  0.41529000  0.64788000  1
  C  C211  1  0.45374000  0.35427000  0.64276000  1
  C  C212  1  0.40861000  0.30248000  0.60256000  1
  C  C213  1  0.19447000  0.36501000  0.57407000  1
  C  C214  1  0.23359000  0.42006000  0.61207000  1
  C  C215  1  0.38374000  0.54210000  0.67590000  1
  C  C216  1  0.44461000  0.59404000  0.71359000  1
  C  C217  1  0.42844000  0.66841000  0.69672000  1
  C  C218  1  0.35163000  0.75005000  0.62702000  1
  C  C219  1  0.42117000  0.80238000  0.66152000  1
  C  C220  1  0.49344000  0.72160000  0.73207000  1
  C  C221  1  0.55607000  0.14695000  0.50218000  1
  C  C222  1  0.42893000  0.17816000  0.50087000  1
  C  C223  1  0.81266000  0.97054000  0.56920000  1
  C  C224  1  0.77315000  0.91839000  0.61059000  1
  C  C225  1  0.64260000  0.99784000  0.66800000  1
  C  C226  1  0.67230000  0.04933000  0.62451000  1
  C  C227  1  0.55340000  0.01313000  0.72350000  1
  C  C228  1  0.50124000  0.95774000  0.75931000  1
  C  C229  1  0.41420000  0.97232000  0.81112000  1
  C  C230  1  0.36761000  0.91514000  0.85190000  1
  C  C231  1  0.45792000  0.85480000  0.85619000  1
  C  C232  1  0.41803000  0.80294000  0.89712000  1
  C  C233  1  0.20336000  0.86375000  0.92785000  1
  C  C234  1  0.23714000  0.91872000  0.88896000  1
  C  C235  1  0.38177000  0.04223000  0.82404000  1
  C  C236  1  0.44345000  0.09440000  0.78675000  1
  C  C237  1  0.42665000  0.16875000  0.80350000  1
  C  C238  1  0.34546000  0.25088000  0.87192000  1
  C  C239  1  0.41736000  0.30290000  0.83781000  1
  C  C240  1  0.49334000  0.22179000  0.76831000  1
  C  C241  1  0.06275000  0.17913000  0.50080000  1
  C  C242  1  0.69223000  0.96789000  0.43222000  1
  C  C243  1  0.72141000  0.91737000  0.38813000  1
  C  C244  1  0.85725000  0.99646000  0.33222000  1
  C  C245  1  0.83419000  0.04658000  0.37752000  1
  C  C246  1  0.94594000  0.01226000  0.27659000  1
  C  C247  1  0.99669000  0.95713000  0.24015000  1
  C  C248  1  0.08426000  0.97209000  0.18852000  1
  C  C249  1  0.13395000  0.91529000  0.14788000  1
  C  C250  1  0.04625000  0.85428000  0.14277000  1
  C  C251  1  0.09137000  0.80248000  0.10257000  1
  C  C252  1  0.30551000  0.86500000  0.07406000  1
  C  C253  1  0.26641000  0.92006000  0.11207000  1
  C  C254  1  0.11627000  0.04210000  0.17590000  1
  C  C255  1  0.05540000  0.09404000  0.21359000  1
  C  C256  1  0.07158000  0.16841000  0.19672000  1
  C  C257  1  0.14840000  0.25005000  0.12702000  1
  C  C258  1  0.07885000  0.30239000  0.16152000  1
  C  C259  1  0.00658000  0.22160000  0.23207000  1
  N  N260  1  0.24250000  0.96434000  0.42497000  1
  N  N261  1  0.31061000  0.06845000  0.34001000  1
  N  N262  1  0.47209000  0.91960000  0.26299000  1
  N  N263  1  0.65034000  0.81617000  0.14497000  1
  N  N264  1  0.51077000  0.71125000  0.21475000  1
  N  N265  1  0.70694000  0.19327000  0.06698000  1
  N  N266  1  0.04600000  0.85674000  0.50425000  1
  N  N267  1  0.24702000  0.96806000  0.57215000  1
  N  N268  1  0.19620000  0.06908000  0.66156000  1
  N  N269  1  0.02753000  0.92034000  0.73630000  1
  N  N270  1  0.85402000  0.81679000  0.85555000  1
  N  N271  1  0.98970000  0.71142000  0.78517000  1
  N  N272  1  0.78065000  0.19291000  0.93149000  1
  N  N273  1  0.25750000  0.46434000  0.92496000  1
  N  N274  1  0.18934000  0.56845000  0.84001000  1
  N  N275  1  0.02789000  0.41959000  0.76299000  1
  N  N276  1  0.84961000  0.31616000  0.64498000  1
  N  N277  1  0.98924000  0.21125000  0.71475000  1
  N  N278  1  0.79307000  0.69327000  0.56698000  1
  N  N279  1  0.45403000  0.35674000  0.00425000  1
  N  N280  1  0.25299000  0.46806000  0.07214000  1
  N  N281  1  0.30377000  0.56908000  0.16156000  1
  N  N282  1  0.47243000  0.42035000  0.23630000  1
  N  N283  1  0.64590000  0.31680000  0.35557000  1
  N  N284  1  0.51029000  0.21142000  0.28517000  1
  N  N285  1  0.71937000  0.69291000  0.43148000  1
  N  N286  1  0.74249000  0.53567000  0.07504000  1
  N  N287  1  0.81064000  0.43155000  0.15999000  1
  N  N288  1  0.97211000  0.58041000  0.23701000  1
  N  N289  1  0.15038000  0.68385000  0.35502000  1
  N  N290  1  0.01076000  0.78875000  0.28525000  1
  N  N291  1  0.20692000  0.30674000  0.43302000  1
  N  N292  1  0.54596000  0.64328000  0.99575000  1
  N  N293  1  0.74700000  0.53195000  0.92787000  1
  N  N294  1  0.69622000  0.43092000  0.83845000  1
  N  N295  1  0.52755000  0.57966000  0.76370000  1
  N  N296  1  0.35407000  0.68321000  0.64444000  1
  N  N297  1  0.48971000  0.78859000  0.71483000  1
  N  N298  1  0.28063000  0.30710000  0.56852000  1
  N  N299  1  0.75751000  0.03566000  0.57503000  1
  N  N300  1  0.68936000  0.93155000  0.65998000  1
  N  N301  1  0.52791000  0.08041000  0.73701000  1
  N  N302  1  0.34966000  0.18383000  0.85504000  1
  N  N303  1  0.48922000  0.28875000  0.78525000  1
  N  N304  1  0.29305000  0.80674000  0.93302000  1
  N  N305  1  0.95400000  0.14327000  0.49575000  1
  N  N306  1  0.75299000  0.03195000  0.42785000  1
  N  N307  1  0.80379000  0.93093000  0.33844000  1
  N  N308  1  0.97245000  0.07966000  0.26370000  1
  N  N309  1  0.14596000  0.18321000  0.14444000  1
  N  N310  1  0.01030000  0.28859000  0.21483000  1
  N  N311  1  0.21934000  0.80709000  0.06852000  1
