# generated using pymatgen
data_CuH8C23(NO7)2
_symmetry_space_group_name_H-M   'P 1'
_cell_length_a   7.76063000
_cell_length_b   9.38891000
_cell_length_c   27.81154000
_cell_angle_alpha   88.09687000
_cell_angle_beta   90.00374000
_cell_angle_gamma   90.00095000
_symmetry_Int_Tables_number   1
_chemical_formula_structural   CuH8C23(NO7)2
_chemical_formula_sum   'Cu2 H16 C46 N4 O28'
_cell_volume   2025.33827160
_cell_formula_units_Z   2
loop_
 _symmetry_equiv_pos_site_id
 _symmetry_equiv_pos_as_xyz
  1  'x, y, z'
loop_
 _atom_site_type_symbol
 _atom_site_label
 _atom_site_symmetry_multiplicity
 _atom_site_fract_x
 _atom_site_fract_y
 _atom_site_fract_z
 _atom_site_occupancy
  Cu  Cu0  1  0.33092000  0.50000000  0.50000000  1
  Cu  Cu1  1  0.66908000  0.50000000  0.50000000  1
  H  H2  1  0.73698000  0.61590000  0.73954000  1
  H  H3  1  0.73690000  0.38408000  0.26046000  1
  H  H4  1  0.28416000  0.35491000  0.74417000  1
  H  H5  1  0.28402000  0.64497000  0.25583000  1
  H  H6  1  0.83518000  0.68785000  0.66643000  1
  H  H7  1  0.83518000  0.31218000  0.33357000  1
  H  H8  1  0.29563000  0.29539000  0.62130000  1
  H  H9  1  0.29557000  0.70457000  0.37869000  1
  H  H10  1  0.74431000  0.97875000  0.81061000  1
  H  H11  1  0.74352000  0.02102000  0.18953000  1
  H  H12  1  0.98532000  0.16116000  0.84414000  1
  H  H13  1  0.98514000  0.83893000  0.15583000  1
  H  H14  1  0.48625000  0.95199000  0.05392000  1
  H  H15  1  0.48639000  0.04787000  0.94605000  1
  H  H16  1  0.81008000  0.12895000  0.06226000  1
  H  H17  1  0.81108000  0.86932000  0.93805000  1
  C  C18  1  0.50000000  0.78053000  0.49994000  1
  C  C19  1  0.50000000  0.21947000  0.50006000  1
  C  C20  1  0.50021000  0.49617000  0.59287000  1
  C  C21  1  0.50020000  0.50383000  0.40713000  1
  C  C22  1  0.50397000  0.61488000  0.82083000  1
  C  C23  1  0.50388000  0.38500000  0.17918000  1
  C  C24  1  0.54927000  0.36420000  0.82476000  1
  C  C25  1  0.54908000  0.63569000  0.17524000  1
  C  C26  1  0.38098000  0.41303000  0.72344000  1
  C  C27  1  0.38087000  0.58688000  0.27655000  1
  C  C28  1  0.63681000  0.56003000  0.72063000  1
  C  C29  1  0.63673000  0.43993000  0.27937000  1
  C  C30  1  0.37754000  0.41087000  0.67322000  1
  C  C31  1  0.37746000  0.58907000  0.32678000  1
  C  C32  1  0.63324000  0.56430000  0.67022000  1
  C  C33  1  0.63320000  0.43570000  0.32978000  1
  C  C34  1  0.51072000  0.48609000  0.74722000  1
  C  C35  1  0.51060000  0.51384000  0.25278000  1
  C  C36  1  0.55113000  0.49631000  0.89835000  1
  C  C37  1  0.55111000  0.50352000  0.10165000  1
  C  C38  1  0.53657000  0.62344000  0.87071000  1
  C  C39  1  0.53655000  0.37640000  0.12931000  1
  C  C40  1  0.56926000  0.36709000  0.87495000  1
  C  C41  1  0.56912000  0.63277000  0.12505000  1
  C  C42  1  0.57451000  0.75243000  0.89288000  1
  C  C43  1  0.57453000  0.24740000  0.10714000  1
  C  C44  1  0.61974000  0.24729000  0.90251000  1
  C  C45  1  0.61956000  0.75258000  0.09749000  1
  C  C46  1  0.50266000  0.48998000  0.64602000  1
  C  C47  1  0.50262000  0.51000000  0.35398000  1
  C  C48  1  0.56687000  0.63139000  0.02338000  1
  C  C49  1  0.56702000  0.36840000  0.97663000  1
  C  C50  1  0.57270000  0.36993000  0.02783000  1
  C  C51  1  0.57257000  0.62987000  0.97218000  1
  C  C52  1  0.56161000  0.50123000  0.05067000  1
  C  C53  1  0.56162000  0.49857000  0.94934000  1
  C  C54  1  0.56728000  0.75826000  0.04910000  1
  C  C55  1  0.56758000  0.24155000  0.95091000  1
  C  C56  1  0.61138000  0.24833000  0.05730000  1
  C  C57  1  0.61117000  0.75149000  0.94273000  1
  C  C58  1  0.50000000  0.93524000  0.49998000  1
  C  C59  1  0.49999000  0.06476000  0.50002000  1
  C  C60  1  0.60282000  0.88313000  0.86320000  1
  C  C61  1  0.60254000  0.11666000  0.13684000  1
  C  C62  1  0.78932000  0.18167000  0.89121000  1
  C  C63  1  0.78940000  0.81790000  0.10870000  1
  N  N64  1  0.51580000  0.48722000  0.79885000  1
  N  N65  1  0.51566000  0.51268000  0.20115000  1
  N  N66  1  0.92318000  0.50000000  0.50000000  1
  N  N67  1  0.07682000  0.50000000  0.50000000  1
  O  O68  1  0.35724000  0.71161000  0.50000000  1
  O  O69  1  0.64276000  0.28839000  0.50000000  1
  O  O70  1  0.35724000  0.28839000  0.50000000  1
  O  O71  1  0.64276000  0.71161000  0.50000000  1
  O  O72  1  0.35723000  0.50000000  0.56974000  1
  O  O73  1  0.64277000  0.50000000  0.43026000  1
  O  O74  1  0.35723000  0.50000000  0.43026000  1
  O  O75  1  0.64277000  0.50000000  0.56974000  1
  O  O76  1  0.45942000  0.73217000  0.79434000  1
  O  O77  1  0.45930000  0.26773000  0.20567000  1
  O  O78  1  0.55991000  0.23949000  0.80223000  1
  O  O79  1  0.55963000  0.76042000  0.19775000  1
  O  O80  1  0.75384000  0.64267000  0.64404000  1
  O  O81  1  0.75384000  0.35736000  0.35596000  1
  O  O82  1  0.25279000  0.32781000  0.65259000  1
  O  O83  1  0.25271000  0.67212000  0.34740000  1
  O  O84  1  0.49170000  0.97520000  0.86115000  1
  O  O85  1  0.74851000  0.89322000  0.83375000  1
  O  O86  1  0.49137000  0.02462000  0.13881000  1
  O  O87  1  0.74800000  0.10650000  0.16638000  1
  O  O88  1  0.86858000  0.11539000  0.92261000  1
  O  O89  1  0.86771000  0.20749000  0.84647000  1
  O  O90  1  0.86929000  0.88305000  0.07716000  1
  O  O91  1  0.86730000  0.79297000  0.15356000  1
  O  O92  1  0.50111000  0.88175000  0.02855000  1
  O  O93  1  0.50149000  0.11802000  0.97144000  1
  O  O94  1  0.71492000  0.14443000  0.03897000  1
  O  O95  1  0.71471000  0.85539000  0.96105000  1
