# generated using pymatgen
data_H3C4N2O
_symmetry_space_group_name_H-M   'P 1'
_cell_length_a   9.89513333
_cell_length_b   14.55660000
_cell_length_c   14.55660000
_cell_angle_alpha   120.00000000
_cell_angle_beta   90.00000000
_cell_angle_gamma   90.00000000
_symmetry_Int_Tables_number   1
_chemical_formula_structural   H3C4N2O
_chemical_formula_sum   'H18 C24 N12 O6'
_cell_volume   1815.81742205
_cell_formula_units_Z   6
loop_
 _symmetry_equiv_pos_site_id
 _symmetry_equiv_pos_as_xyz
  1  'x, y, z'
loop_
 _atom_site_type_symbol
 _atom_site_label
 _atom_site_symmetry_multiplicity
 _atom_site_fract_x
 _atom_site_fract_y
 _atom_site_fract_z
 _atom_site_occupancy
  C  1  1  0.98609850  0.93530600  0.55564800  1
  C  2  1  0.98273350  0.87220500  0.44351600  1
  C  5  1  0.12015000  0.89185300  0.66107900  1
  C  49  1  0.98277050  0.76018600  0.38595300  1
  C  64  1  0.12000150  0.74277750  0.08693650  1
  C  109  1  0.98282100  0.59285000  0.37953600  1
  C  110  1  0.98281400  0.59926800  0.21861500  1
  C  112  1  0.97960200  0.37535150  0.60986650  1
  C  114  1  0.97964850  0.20801550  0.60344650  1
  C  116  1  0.97960300  0.36893300  0.77078600  1
  C  118  1  0.97966600  0.42338450  0.88280350  1
  C  120  1  0.98605750  0.59384250  0.04349650  1
  C  121  1  0.98276900  0.54481100  0.10659700  1
  C  123  1  0.97641700  0.37435100  0.94590400  1
  C  125  1  0.84236200  0.22547050  0.90247950  1
  C  129  1  0.97965350  0.43291800  0.55541200  1
  C  131  1  0.98631750  0.42316050  0.38496650  1
  C  132  1  0.98278800  0.53529100  0.43399300  1
  C  134  1  0.97615900  0.54504850  0.60444150  1
  C  137  1  0.84152650  0.65016500  0.75305400  1
  C  139  1  0.12084250  0.31801050  0.23630250  1
  C  143  1  0.97970100  0.09599800  0.54588100  1
  C  145  1  0.97637600  0.03289650  0.43374650  1
  C  147  1  0.84221550  0.07633400  0.32835200  1
  H  6  1  0.11210750  0.85591800  0.71098000  1
  H  7  1  0.16069850  0.97199750  0.70940050  1
  H  8  1  0.19032800  0.84426900  0.59649400  1
  H  50  1  0.11190500  0.82861200  0.12287100  1
  H  65  1  0.16052900  0.71096700  0.00678000  1
  H  66  1  0.19022150  0.72580200  0.13450700  1
  H  67  1  0.84926650  0.70008950  0.83890450  1
  H  68  1  0.80089900  0.69839250  0.72114250  1
  H  126  1  0.85040500  0.13963350  0.86653850  1
  H  127  1  0.77215200  0.24248150  0.85493250  1
  H  128  1  0.80185900  0.25728750  0.98264550  1
  H  138  1  0.77156400  0.58542450  0.73591350  1
  H  140  1  0.11304500  0.26808150  0.15045550  1
  H  141  1  0.16149100  0.26978100  0.26820300  1
  H  142  1  0.19081250  0.38273700  0.25340700  1
  H  148  1  0.85020350  0.11227800  0.27845300  1
  H  149  1  0.77204900  0.12389650  0.39294950  1
  H  150  1  0.80169200  0.99618150  0.28002950  1
  N  3  1  0.97913500  0.92553250  0.38888350  1
  N  61  1  0.98265950  0.70081650  0.43431750  1
  N  62  1  0.98266550  0.70700050  0.27798650  1
  N  111  1  0.98272350  0.54448650  0.27180150  1
  N  113  1  0.97976050  0.26738950  0.55508450  1
  N  115  1  0.97975250  0.26119650  0.71141050  1
  N  117  1  0.97969650  0.42371650  0.71760150  1
  N  119  1  0.98323150  0.53134400  0.93613100  1
  N  122  1  0.97920600  0.43685000  0.05326800  1
  N  130  1  0.98347150  0.37829050  0.44745850  1
  N  133  1  0.97896900  0.58991800  0.54194600  1
  N  144  1  0.98330350  0.04266950  0.60051150  1
  O  4  1  0.98751150  0.89372950  0.62164450  1
  O  63  1  0.98740000  0.70142000  0.08507500  1
  O  124  1  0.97499250  0.26677500  0.90431800  1
  O  135  1  0.97435500  0.61103700  0.71201400  1
  O  136  1  0.98803850  0.35716500  0.27739300  1
  O  146  1  0.97488100  0.07448150  0.36775750  1
