# generated using pymatgen
data_ZnH12C13NO5
_symmetry_space_group_name_H-M   'P 1'
_cell_length_a   8.92763000
_cell_length_b   10.05433000
_cell_length_c   10.64263000
_cell_angle_alpha   90.04185000
_cell_angle_beta   92.51781000
_cell_angle_gamma   91.00531000
_symmetry_Int_Tables_number   1
_chemical_formula_structural   ZnH12C13NO5
_chemical_formula_sum   'Zn2 H24 C26 N2 O10'
_cell_volume   954.22649935
_cell_formula_units_Z   2
loop_
 _symmetry_equiv_pos_site_id
 _symmetry_equiv_pos_as_xyz
  1  'x, y, z'
loop_
 _atom_site_type_symbol
 _atom_site_label
 _atom_site_symmetry_multiplicity
 _atom_site_fract_x
 _atom_site_fract_y
 _atom_site_fract_z
 _atom_site_occupancy
  Zn  Zn0  1  0.50001000  0.34687000  0.50002000  1
  Zn  Zn1  1  0.49999000  0.65313000  0.49998000  1
  H  H2  1  0.15395000  0.86211000  0.41349000  1
  H  H3  1  0.68133000  0.65228000  0.88708000  1
  H  H4  1  0.23559000  0.27494000  0.87816000  1
  H  H5  1  0.43785000  0.22583000  0.88507000  1
  H  H6  1  0.23639000  0.27958000  0.10220000  1
  H  H7  1  0.43741000  0.22567000  0.11062000  1
  H  H8  1  0.20071000  0.13597000  0.53103000  1
  H  H9  1  0.74057000  0.62936000  0.21411000  1
  H  H10  1  0.11947000  0.93128000  0.21794000  1
  H  H11  1  0.28350000  0.03301000  0.18889000  1
  H  H12  1  0.10038000  0.07932000  0.12756000  1
  H  H13  1  0.01553000  0.10989000  0.34612000  1
  H  H14  1  0.16314000  0.22290000  0.30856000  1
  H  H15  1  0.21322000  0.80714000  0.61680000  1
  H  H16  1  0.81795000  0.81442000  0.42446000  1
  H  H17  1  0.95327000  0.77651000  0.55079000  1
  H  H18  1  0.92206000  0.94389000  0.49846000  1
  H  H19  1  0.79997000  0.90965000  0.69995000  1
  H  H20  1  0.71424000  0.76467000  0.65637000  1
  H  H21  1  0.88288000  0.17383000  0.51550000  1
  H  H22  1  0.92801000  0.25965000  0.66055000  1
  H  H23  1  0.95173000  0.08577000  0.65595000  1
  H  H24  1  0.67954000  0.24570000  0.67800000  1
  H  H25  1  0.71508000  0.10017000  0.75323000  1
  C  C26  1  0.50435000  0.50018000  0.26114000  1
  C  C27  1  0.60251000  0.59050000  0.93658000  1
  C  C28  1  0.50299000  0.50391000  0.87072000  1
  C  C29  1  0.39505000  0.43236000  0.93247000  1
  C  C30  1  0.34950000  0.28916000  0.92317000  1
  C  C31  1  0.35029000  0.28995000  0.06569000  1
  C  C32  1  0.38846000  0.92790000  0.43993000  1
  C  C33  1  0.61400000  0.93071000  0.55922000  1
  C  C34  1  0.61046000  0.07414000  0.56516000  1
  C  C35  1  0.39346000  0.06895000  0.43116000  1
  C  C36  1  0.22795000  0.07515000  0.44794000  1
  C  C37  1  0.21926000  0.49925000  0.49935000  1
  C  C38  1  0.22844000  0.92666000  0.47447000  1
  C  C39  1  0.50221000  0.50044000  0.73891000  1
  C  C40  1  0.78071000  0.50064000  0.49994000  1
  C  C41  1  0.06543000  0.49873000  0.49902000  1
  C  C42  1  0.93449000  0.50070000  0.49917000  1
  C  C43  1  0.39729000  0.43283000  0.06059000  1
  C  C44  1  0.50948000  0.50238000  0.12886000  1
  C  C45  1  0.60999000  0.58833000  0.06697000  1
  C  C46  1  0.13663000  0.11676000  0.32775000  1
  C  C47  1  0.16272000  0.03466000  0.20912000  1
  C  C48  1  0.74842000  0.86033000  0.61579000  1
  C  C49  1  0.86727000  0.84764000  0.51703000  1
  C  C50  1  0.71751000  0.14741000  0.65909000  1
  C  C51  1  0.87911000  0.16626000  0.61911000  1
  N  N52  1  0.49901000  0.85720000  0.49914000  1
  N  N53  1  0.49901000  0.14285000  0.49918000  1
  O  O54  1  0.50002000  0.38531000  0.31679000  1
  O  O55  1  0.50000000  0.61465000  0.31676000  1
  O  O56  1  0.28535000  0.38535000  0.50002000  1
  O  O57  1  0.28534000  0.61469000  0.49998000  1
  O  O58  1  0.50000000  0.38535000  0.68324000  1
  O  O59  1  0.49998000  0.61469000  0.68321000  1
  O  O60  1  0.71466000  0.38531000  0.50002000  1
  O  O61  1  0.71465000  0.61465000  0.49998000  1
  O  O62  1  0.72112000  0.66438000  0.12822000  1
  O  O63  1  0.21458000  0.90449000  0.60386000  1
