# generated using pymatgen
data_H6C11N4O
_symmetry_space_group_name_H-M   'P 1'
_cell_length_a   9.95393333
_cell_length_b   21.31220000
_cell_length_c   55.26080000
_cell_angle_alpha   90.00000000
_cell_angle_beta   90.00000000
_cell_angle_gamma   90.00000000
_symmetry_Int_Tables_number   1
_chemical_formula_structural   H6C11N4O
_chemical_formula_sum   'H108 C198 N72 O18'
_cell_volume   11723.03815812
_cell_formula_units_Z   18
loop_
 _symmetry_equiv_pos_site_id
 _symmetry_equiv_pos_as_xyz
  1  'x, y, z'
loop_
 _atom_site_type_symbol
 _atom_site_label
 _atom_site_symmetry_multiplicity
 _atom_site_fract_x
 _atom_site_fract_y
 _atom_site_fract_z
 _atom_site_occupancy
  C  1  1  0.00341700  0.37530200  0.17339200  1
  C  3  1  0.05135150  0.27094100  0.15986700  1
  C  5  1  0.02933700  0.29254200  0.20235100  1
  C  7  1  0.99837300  0.64206500  0.83163000  1
  C  9  1  0.03682900  0.74703800  0.84536400  1
  C  11  1  0.02244800  0.72511600  0.80281100  1
  C  13  1  0.99571600  0.64291800  0.17365000  1
  C  15  1  0.01723900  0.74983400  0.16051500  1
  C  17  1  0.99298150  0.72595600  0.20272600  1
  C  19  1  0.00235000  0.37441100  0.83146800  1
  C  21  1  0.02424100  0.26773000  0.84479500  1
  C  23  1  0.99867000  0.29098100  0.80254500  1
  C  25  1  0.01127700  0.87489400  0.67410100  1
  C  27  1  0.04809700  0.76963000  0.66042100  1
  C  29  1  0.03624600  0.79213400  0.70279100  1
  C  31  1  0.00740150  0.14238400  0.33114200  1
  C  33  1  0.03439000  0.24813500  0.34490100  1
  C  35  1  0.03200050  0.22520100  0.30247500  1
  C  37  1  0.99274850  0.14261100  0.67333800  1
  C  39  1  0.02565800  0.24893500  0.66021600  1
  C  41  1  0.98451400  0.22643500  0.70222100  1
  C  43  1  0.99956900  0.87461700  0.33183100  1
  C  45  1  0.03449350  0.76851400  0.34499300  1
  C  47  1  0.99058000  0.79057600  0.30304600  1
  C  49  1  0.06872600  0.06776100  0.09172100  1
  C  51  1  0.04780400  0.01011700  0.05478600  1
  C  53  1  0.05373200  0.95439300  0.09239800  1
  C  55  1  0.03905300  0.95013800  0.91398000  1
  C  57  1  0.03150000  0.00838000  0.95098400  1
  C  59  1  0.04520800  0.06387500  0.91340100  1
  C  61  1  0.06901100  0.56722000  0.59174500  1
  C  63  1  0.05215550  0.50975800  0.55471100  1
  C  65  1  0.06261200  0.45354900  0.59217250  1
  C  67  1  0.04011600  0.45099100  0.41381900  1
  C  69  1  0.03642500  0.50897400  0.45092700  1
  C  71  1  0.05623350  0.56463500  0.41344800  1
  C  73  1  0.98689100  0.57686800  0.17056600  1
  C  74  1  0.03650300  0.54288700  0.15031100  1
  C  75  1  0.03571800  0.47563200  0.15008800  1
  C  76  1  0.98723100  0.44093300  0.17025500  1
  C  77  1  0.93050100  0.47569000  0.18951200  1
  C  78  1  0.92995700  0.54108500  0.18961000  1
  C  80  1  0.15474800  0.47671800  0.11243200  1
  C  81  1  0.16003200  0.54254000  0.11301300  1
  C  87  1  0.35111200  0.60087700  0.10274700  1
  C  91  1  0.99191400  0.44044400  0.83443000  1
  C  92  1  0.03991800  0.47494400  0.85468100  1
  C  93  1  0.03574900  0.54216400  0.85491100  1
  C  94  1  0.98589100  0.57628100  0.83471000  1
  C  95  1  0.93148600  0.54100000  0.81539100  1
  C  96  1  0.93383600  0.47563400  0.81532800  1
  C  98  1  0.15512400  0.54245067  0.89252000  1
  C  99  1  0.16381900  0.47671400  0.89193400  1
  C  105  1  0.35877600  0.42105100  0.90203300  1
  C  109  1  0.98649900  0.07635300  0.67053300  1
  C  110  1  0.04028000  0.04225800  0.65063600  1
  C  111  1  0.04249000  0.97501000  0.65067200  1
  C  112  1  0.99458100  0.94043400  0.67089100  1
  C  113  1  0.93545400  0.97506900  0.68993900  1
  C  114  1  0.93009300  0.04043700  0.68960600  1
  C  116  1  0.16514100  0.97613400  0.61341100  1
  C  117  1  0.16747400  0.04200400  0.61372400  1
  C  123  1  0.35777700  0.10128000  0.60385300  1
  C  127  1  0.99144150  0.94083300  0.33460400  1
  C  128  1  0.04404700  0.97534800  0.35449900  1
  C  129  1  0.04311300  0.04259100  0.35451300  1
  C  130  1  0.99379200  0.07672600  0.33430500  1
  C  131  1  0.93669850  0.04167300  0.31518300  1
  C  132  1  0.93389750  0.97629600  0.31550700  1
  C  134  1  0.16613100  0.04261400  0.39172400  1
  C  135  1  0.17184600  0.97678800  0.39133500  1
  C  141  1  0.36571900  0.91978400  0.40093700  1
  C  145  1  0.07537300  0.12186000  0.10680900  1
  C  146  1  0.04138500  0.18367400  0.09940800  1
  C  147  1  0.03725600  0.23451100  0.11639200  1
  C  148  1  0.06678300  0.22497600  0.14137400  1
  C  149  1  0.10644500  0.16367200  0.14812800  1
  C  150  1  0.11082600  0.11425500  0.13151300  1
  C  152  1  0.95807200  0.30242000  0.08481700  1
  C  153  1  0.95857600  0.25222200  0.06835500  1
  C  159  1  0.78681400  0.23645200  0.04013033  1
  C  163  1  0.04317400  0.89633200  0.89864500  1
  C  164  1  0.01190900  0.83400200  0.90583000  1
  C  165  1  0.01453100  0.78315600  0.88881000  1
  C  166  1  0.04574000  0.79319600  0.86392600  1
  C  167  1  0.08012800  0.85521000  0.85729800  1
  C  168  1  0.07954100  0.90445900  0.87397300  1
  C  170  1  0.94070600  0.71328700  0.92010200  1
  C  171  1  0.93204800  0.76358200  0.93650000  1
  C  177  1  0.74612700  0.74763400  0.96178200  1
  C  181  1  0.04787000  0.90111400  0.10798000  1
  C  182  1  0.05477800  0.83765700  0.10025500  1
  C  183  1  0.04542900  0.78655500  0.11709300  1
  C  184  1  0.02928000  0.79727600  0.14240833  1
  C  185  1  0.02476800  0.86096300  0.14973300  1
  C  186  1  0.03393000  0.91059600  0.13327267  1
  C  188  1  0.07448700  0.71454400  0.08415600  1
  C  189  1  0.08959700  0.76461400  0.06787900  1
  C  195  1  0.25116550  0.76512100  0.03720400  1
  C  199  1  0.04649400  0.11690900  0.89765000  1
  C  200  1  0.05999600  0.18026900  0.90518200  1
  C  201  1  0.05378800  0.23127200  0.88824600  1
  C  202  1  0.03530200  0.22047100  0.86298500  1
  C  203  1  0.02630700  0.15679900  0.85579900  1
  C  204  1  0.03141400  0.10734400  0.87237400  1
  C  206  1  0.09058300  0.30309500  0.92097800  1
  C  207  1  0.10253200  0.25301100  0.93733300  1
  C  213  1  0.26542200  0.24978800  0.96775000  1
  C  217  1  0.07211800  0.62103400  0.60703900  1
  C  218  1  0.03696500  0.68284000  0.59979200  1
  C  219  1  0.03165500  0.73339800  0.61690100  1
  C  220  1  0.06057200  0.72357700  0.64188500  1
  C  221  1  0.09960400  0.66213300  0.64855700  1
  C  222  1  0.10581250  0.61310000  0.63181100  1
  C  224  1  0.95314100  0.80167800  0.58541100  1
  C  225  1  0.95480800  0.75176400  0.56881900  1
  C  231  1  0.78407100  0.73653600  0.54035700  1
  C  235  1  0.04021750  0.39740700  0.39832700  1
  C  236  1  0.00760700  0.33513800  0.40541900  1
  C  237  1  0.00902400  0.28441100  0.38832600  1
  C  238  1  0.03979750  0.29450900  0.36343300  1
  C  239  1  0.07321150  0.35663600  0.35680800  1
  C  240  1  0.07437600  0.40567100  0.37355900  1
  C  242  1  0.93573750  0.21444200  0.41960500  1
  C  243  1  0.92827000  0.26460400  0.43608600  1
  C  249  1  0.74339400  0.24857633  0.46162000  1
  C  253  1  0.06046200  0.40017900  0.60775600  1
  C  254  1  0.06750600  0.33672300  0.60002500  1
  C  255  1  0.05843800  0.28556600  0.61685800  1
  C  256  1  0.04272100  0.29623500  0.64218300  1
  C  257  1  0.04111900  0.35991300  0.64955800  1
  C  258  1  0.04956700  0.40955067  0.63310700  1
  C  260  1  0.08533250  0.21362000  0.58385800  1
  C  261  1  0.10033800  0.26371800  0.56758600  1
  C  267  1  0.26083050  0.26411600  0.53673300  1
  C  271  1  0.06192700  0.61768000  0.39771700  1
  C  272  1  0.07427700  0.68106100  0.40530100  1
  C  273  1  0.06822800  0.73212400  0.38837900  1
  C  274  1  0.05138400  0.72135500  0.36308200  1
  C  275  1  0.04725900  0.65764800  0.35580000  1
  C  276  1  0.05180050  0.60817400  0.37235900  1
  C  278  1  0.09976500  0.80400000  0.42125700  1
  C  279  1  0.11170300  0.75390700  0.43761200  1
  C  285  1  0.27178400  0.75127400  0.46851400  1
  C  289  1  0.03900250  0.24312900  0.27781300  1
  C  290  1  0.12300600  0.21137700  0.26108500  1
  C  291  1  0.12034800  0.22686500  0.23599900  1
  C  292  1  0.03319700  0.27438800  0.22720400  1
  C  293  1  0.95281850  0.30676500  0.24432700  1
  C  294  1  0.95561900  0.29161200  0.26909800  1
  C  296  1  0.29541000  0.15185900  0.22883700  1
  C  297  1  0.29996100  0.13740600  0.25362600  1
  C  303  1  0.50484950  0.12030200  0.27326000  1
  C  307  1  0.04037000  0.77415600  0.72744300  1
  C  308  1  0.12392600  0.80536100  0.74438100  1
  C  309  1  0.11834100  0.79005000  0.76946500  1
  C  310  1  0.02864700  0.74327400  0.77800500  1
  C  311  1  0.94877900  0.71136300  0.76068500  1
  C  312  1  0.95439000  0.72638200  0.73591500  1
  C  314  1  0.29578900  0.86346400  0.77708700  1
  C  315  1  0.30316200  0.87774200  0.75229900  1
  C  321  1  0.51014400  0.89265200  0.73311400  1
  C  325  1  0.98062600  0.77265600  0.27827300  1
  C  326  1  0.89620200  0.80453000  0.26154500  1
  C  327  1  0.90033750  0.79018900  0.23635700  1
  C  328  1  0.98775000  0.74308200  0.22752600  1
  C  329  1  0.06672200  0.70960800  0.24446600  1
  C  330  1  0.06382350  0.72426800  0.26927700  1
  C  332  1  0.72539600  0.86490200  0.22912600  1
  C  333  1  0.71847300  0.87822600  0.25399700  1
  C  339  1  0.51328750  0.89418800  0.27367500  1
  C  343  1  0.97743100  0.24416600  0.72705200  1
  C  344  1  0.89617700  0.21178500  0.74413800  1
  C  345  1  0.90339600  0.22608900  0.76931000  1
  C  346  1  0.99088300  0.27361900  0.77778200  1
  C  347  1  0.06686200  0.30746800  0.76051300  1
  C  348  1  0.06088600  0.29287000  0.73571600  1
  C  350  1  0.73136850  0.15039300  0.77726700  1
  C  351  1  0.72142800  0.13708600  0.75243000  1
  C  357  1  0.51442400  0.11999200  0.73351800  1
  C  361  1  0.02951000  0.00930900  0.97680400  1
  C  362  1  0.93492000  0.97463500  0.99059100  1
  C  363  1  0.94037700  0.97434900  0.01641300  1
  C  364  1  0.03906500  0.00956300  0.02901000  1
  C  365  1  0.12858700  0.04637900  0.01508800  1
  C  366  1  0.12435800  0.04601500  0.98958500  1
  C  368  1  0.74206300  0.91090800  0.01748000  1
  C  369  1  0.73336300  0.91317700  0.99211700  1
  C  375  1  0.52396300  0.92787800  0.97375600  1
  C  379  1  0.03414250  0.50969900  0.47675700  1
  C  380  1  0.93882450  0.47530467  0.49049600  1
  C  381  1  0.94422300  0.47474800  0.51631900  1
  C  382  1  0.04351500  0.50945000  0.52895500  1
  C  383  1  0.13385050  0.54599800  0.51511000  1
  C  384  1  0.12968950  0.54587100  0.48960900  1
  C  386  1  0.74480600  0.41210267  0.51731200  1
  C  387  1  0.73614500  0.41462600  0.49195100  1
  C  393  1  0.52671550  0.43018700  0.47370600  1
  H  83  1  0.19924800  0.45192500  0.09879900  1
  H  84  1  0.88731700  0.56209400  0.20439800  1
  H  85  1  0.88923000  0.45382500  0.20425000  1
  H  88  1  0.39607900  0.62479867  0.08730800  1
  H  89  1  0.42036500  0.56420000  0.10871300  1
  H  90  1  0.33779550  0.63524400  0.11724100  1
  H  101  1  0.19844300  0.56773200  0.90614300  1
  H  102  1  0.89219300  0.45423800  0.80053100  1
  H  103  1  0.88935600  0.56246200  0.80064300  1
  H  106  1  0.40553200  0.39766600  0.91742200  1
  H  107  1  0.42552500  0.45872900  0.89607000  1
  H  108  1  0.34743500  0.38661500  0.88750900  1
  H  119  1  0.21201000  0.95140600  0.60002200  1
  H  120  1  0.88530400  0.06130833  0.70420400  1
  H  121  1  0.89434500  0.95308800  0.70466900  1
  H  124  1  0.40330200  0.12535000  0.58850200  1
  H  125  1  0.42752800  0.06505300  0.61003400  1
  H  126  1  0.34243700  0.13567400  0.61827500  1
  H  137  1  0.21244750  0.06776400  0.40505900  1
  H  138  1  0.88999950  0.95512000  0.30088900  1
  H  139  1  0.89479900  0.06336300  0.30045900  1
  H  142  1  0.41307650  0.89616800  0.41621300  1
  H  143  1  0.43322350  0.95689200  0.39472400  1
  H  144  1  0.35183400  0.88532000  0.38649200  1
  H  155  1  0.92691500  0.34612200  0.07972800  1
  H  156  1  0.14038100  0.07163000  0.13817300  1
  H  157  1  0.13216350  0.15324667  0.16560800  1
  H  160  1  0.76294850  0.24562133  0.02120800  1
  H  161  1  0.71131200  0.25983800  0.05131400  1
  H  162  1  0.78170500  0.18577200  0.04308000  1
  H  173  1  0.91451600  0.66879600  0.92507100  1
  H  174  1  0.10757500  0.94730000  0.86733600  1
  H  175  1  0.10686600  0.86618600  0.83991500  1
  H  178  1  0.71960900  0.74780400  0.98091900  1
  H  179  1  0.71505300  0.70268200  0.95412800  1
  H  180  1  0.69079700  0.78543400  0.95284800  1
  H  191  1  0.08004400  0.66924000  0.07832500  1
  H  192  1  0.02656200  0.95469100  0.14046800  1
  H  193  1  0.01282300  0.87316200  0.16751400  1
  H  196  1  0.26192950  0.75504700  0.01796500  1
  H  197  1  0.31923000  0.73421800  0.04714600  1
  H  198  1  0.28024000  0.81401400  0.04020400  1
  H  209  1  0.10019100  0.34830400  0.92672700  1
  H  210  1  0.01989100  0.06338600  0.86525100  1
  H  211  1  0.01245700  0.14450400  0.83807100  1
  H  214  1  0.27801600  0.25988900  0.98695200  1
  H  215  1  0.33569500  0.27920600  0.95764000  1
  H  216  1  0.28995000  0.20033300  0.96480400  1
  H  227  1  0.92181600  0.84540400  0.58038700  1
  H  228  1  0.13601100  0.57054700  0.63843600  1
  H  229  1  0.12511600  0.65145200  0.66602300  1
  H  232  1  0.76098000  0.74594200  0.52142200  1
  H  233  1  0.70825200  0.75988400  0.55148500  1
  H  234  1  0.77859100  0.68582800  0.54321800  1
  H  245  1  0.90934400  0.16996000  0.42455400  1
  H  246  1  0.10275500  0.44840500  0.36689100  1
  H  247  1  0.09950950  0.36777300  0.33941900  1
  H  250  1  0.71771350  0.24869600  0.48079300  1
  H  251  1  0.71190650  0.20366300  0.45398900  1
  H  252  1  0.68773150  0.28642333  0.45278400  1
  H  263  1  0.09020550  0.16832600  0.57799200  1
  H  264  1  0.04328400  0.45357700  0.64038300  1
  H  265  1  0.03060000  0.37216900  0.66736200  1
  H  268  1  0.27090700  0.25404700  0.51748000  1
  H  269  1  0.32910500  0.23314433  0.54659700  1
  H  270  1  0.29021700  0.31297700  0.53970400  1
  H  281  1  0.10748050  0.84924200  0.42706700  1
  H  282  1  0.04288200  0.56423200  0.36512300  1
  H  283  1  0.03620100  0.64527000  0.33801900  1
  H  286  1  0.28244250  0.76143033  0.48774900  1
  H  287  1  0.34245200  0.78095700  0.45861067  1
  H  288  1  0.29745500  0.70191300  0.46564800  1
  H  299  1  0.35837100  0.13046200  0.21680600  1
  H  300  1  0.89256900  0.31507400  0.28061500  1
  H  301  1  0.88825500  0.34135400  0.23885100  1
  H  304  1  0.56881250  0.08211300  0.27954500  1
  H  305  1  0.47924050  0.14952700  0.28885400  1
  H  306  1  0.56199600  0.14805300  0.26018600  1
  H  317  1  0.35856500  0.88435800  0.78927900  1
  H  318  1  0.89169200  0.70334900  0.72421100  1
  H  319  1  0.88273550  0.67722300  0.76601400  1
  H  322  1  0.57646500  0.93014400  0.72700100  1
  H  323  1  0.48408000  0.86380600  0.71743800  1
  H  324  1  0.56497200  0.86419100  0.74628300  1
  H  335  1  0.66319850  0.88670000  0.21707600  1
  H  336  1  0.12731100  0.70050100  0.28061500  1
  H  337  1  0.13093100  0.67508800  0.23876600  1
  H  340  1  0.44838850  0.93202600  0.27996300  1
  H  341  1  0.53966950  0.86510800  0.28927400  1
  H  342  1  0.45684200  0.86612333  0.26060800  1
  H  353  1  0.67126800  0.12827400  0.78957500  1
  H  354  1  0.12229800  0.31699800  0.72412400  1
  H  355  1  0.13103300  0.34230200  0.76593700  1
  H  358  1  0.44962600  0.08179400  0.72752800  1
  H  359  1  0.53842600  0.14901900  0.71778100  1
  H  360  1  0.45888300  0.14794000  0.74674600  1
  H  371  1  0.67110000  0.88817300  0.02753900  1
  H  372  1  0.19416000  0.07195900  0.98035800  1
  H  373  1  0.20109600  0.07267800  0.02344700  1
  H  376  1  0.44552200  0.90146400  0.96449700  1
  H  377  1  0.56001300  0.96435400  0.96145700  1
  H  378  1  0.47960300  0.94967300  0.98978600  1
  H  389  1  0.67352200  0.38948167  0.52733700  1
  H  390  1  0.20009150  0.57158400  0.48043533  1
  H  391  1  0.20672400  0.57195400  0.52352600  1
  H  394  1  0.44789800  0.40414467  0.46439400  1
  H  395  1  0.56305750  0.46682100  0.46150400  1
  H  396  1  0.48273900  0.45176933  0.48981300  1
  N  2  1  0.02817900  0.33306400  0.15539200  1
  N  4  1  0.05290350  0.25295400  0.18362200  1
  N  6  1  0.00420600  0.35280800  0.19640500  1
  N  8  1  0.01763700  0.68458500  0.84974100  1
  N  10  1  0.04058100  0.76507000  0.82161600  1
  N  12  1  0.00060400  0.66450200  0.80861400  1
  N  14  1  0.01363500  0.68666800  0.15581550  1
  N  16  1  0.00628500  0.76724400  0.18428600  1
  N  18  1  0.98736300  0.66492000  0.19666900  1
  N  20  1  0.02080500  0.33094800  0.84938800  1
  N  22  1  0.01225600  0.24999400  0.82107100  1
  N  24  1  0.99321800  0.35206300  0.80851100  1
  N  26  1  0.02958600  0.83217200  0.65599300  1
  N  28  1  0.05081900  0.75147200  0.68416300  1
  N  30  1  0.01549500  0.85286000  0.69716500  1
  N  32  1  0.01969550  0.18537400  0.34930900  1
  N  34  1  0.04012950  0.26612500  0.32115000  1
  N  36  1  0.01412450  0.16427200  0.30808300  1
  N  38  1  0.01870100  0.18580500  0.65560900  1
  N  40  1  0.01014700  0.26669900  0.68385100  1
  N  42  1  0.97689900  0.16543600  0.69611300  1
  N  44  1  0.02692300  0.83163700  0.34956600  1
  N  46  1  0.01764100  0.75051333  0.32140700  1
  N  48  1  0.98263600  0.85157000  0.30911800  1
  N  50  1  0.05791700  0.06566900  0.06712900  1
  N  52  1  0.04576500  0.95526800  0.06774000  1
  N  54  1  0.06539600  0.01138800  0.10290200  1
  N  56  1  0.02943900  0.95254600  0.93860900  1
  N  58  1  0.04087200  0.06318600  0.93808000  1
  N  60  1  0.04513700  0.00663100  0.90297000  1
  N  62  1  0.05848500  0.56531200  0.56714500  1
  N  64  1  0.05396800  0.45465600  0.56752100  1
  N  66  1  0.07007700  0.51060000  0.60273800  1
  N  68  1  0.03036450  0.45332500  0.43845200  1
  N  70  1  0.05048750  0.56373400  0.43811500  1
  N  72  1  0.05150950  0.50750400  0.40297100  1
  N  79  1  0.09545300  0.44616400  0.13106800  1
  N  82  1  0.10003100  0.57273400  0.13177600  1
  N  97  1  0.09407200  0.57232600  0.87390800  1
  N  100  1  0.10516800  0.44582000  0.87319700  1
  N  115  1  0.10536400  0.94553900  0.63198500  1
  N  118  1  0.10427500  0.07212800  0.63215800  1
  N  133  1  0.10479300  0.07266500  0.37318500  1
  N  136  1  0.10976750  0.94606000  0.37292000  1
  N  151  1  0.99542600  0.29134500  0.10800300  1
  N  154  1  0.00098550  0.19535400  0.07631600  1
  N  169  1  0.97894400  0.72531800  0.89705700  1
  N  172  1  0.96938600  0.82140800  0.92874100  1
  N  187  1  0.05469200  0.72739600  0.10792000  1
  N  190  1  0.07710800  0.82379800  0.07657100  1
  N  205  1  0.06838500  0.29034700  0.89727000  1
  N  208  1  0.08459000  0.19399100  0.92879900  1
  N  223  1  0.98970400  0.79030800  0.60861700  1
  N  226  1  0.99752950  0.69484000  0.57667200  1
  N  241  1  0.97327050  0.22656200  0.39652900  1
  N  244  1  0.96604950  0.32241600  0.42837400  1
  N  259  1  0.06650000  0.22640600  0.60765600  1
  N  262  1  0.08857750  0.32291000  0.57630300  1
  N  277  1  0.07996150  0.79125600  0.39747900  1
  N  280  1  0.09603900  0.69480900  0.42900400  1
  N  295  1  0.20728450  0.19601900  0.22112600  1
  N  298  1  0.21288050  0.16727200  0.26860800  1
  N  313  1  0.20514500  0.82016700  0.78458300  1
  N  316  1  0.21620900  0.84860800  0.73707900  1
  N  331  1  0.81462650  0.82130000  0.22134500  1
  N  334  1  0.80488250  0.84802900  0.26901000  1
  N  349  1  0.82048500  0.19448500  0.78467300  1
  N  352  1  0.80500200  0.16779700  0.73705400  1
  N  367  1  0.84353900  0.94202900  0.02856700  1
  N  370  1  0.83090100  0.94408400  0.97974100  1
  N  385  1  0.84687500  0.44269100  0.52844300  1
  N  388  1  0.83423050  0.44526267  0.47961300  1
  O  86  1  0.22463000  0.57489200  0.09514400  1
  O  104  1  0.23079850  0.44519200  0.90973300  1
  O  122  1  0.23259050  0.07450400  0.59595900  1
  O  140  1  0.23933700  0.94496800  0.40899100  1
  O  158  1  0.91932000  0.26041400  0.04488300  1
  O  176  1  0.88917000  0.75608533  0.95981300  1
  O  194  1  0.11334700  0.75427800  0.04386500  1
  O  212  1  0.12838600  0.26324000  0.96128300  1
  O  230  1  0.91650700  0.76030200  0.54531400  1
  O  248  1  0.88636800  0.25697400  0.45945200  1
  O  266  1  0.12319100  0.25339500  0.54354400  1
  O  284  1  0.13511700  0.76419200  0.46163800  1
  O  302  1  0.38686150  0.09334200  0.26241200  1
  O  320  1  0.39285900  0.92087000  0.74373550  1
  O  338  1  0.63054900  0.92179600  0.26281700  1
  O  356  1  0.63345700  0.09303300  0.74398400  1
  O  374  1  0.62962900  0.88497000  0.98018100  1
  O  392  1  0.63196800  0.38690167  0.47997100  1
