# generated using pymatgen
data_Cr3H36C60O13
_symmetry_space_group_name_H-M   'P 1'
_cell_length_a   12.61705146
_cell_length_b   12.61726000
_cell_length_c   26.80165000
_cell_angle_alpha   90.00340000
_cell_angle_beta   90.00126997
_cell_angle_gamma   60.00211983
_symmetry_Int_Tables_number   1
_chemical_formula_structural   Cr3H36C60O13
_chemical_formula_sum   'Cr6 H72 C120 O26'
_cell_volume   3695.08442767
_cell_formula_units_Z   2
loop_
 _symmetry_equiv_pos_site_id
 _symmetry_equiv_pos_as_xyz
  1  'x, y, z'
loop_
 _atom_site_type_symbol
 _atom_site_label
 _atom_site_symmetry_multiplicity
 _atom_site_fract_x
 _atom_site_fract_y
 _atom_site_fract_z
 _atom_site_occupancy
  Cr  Cr0  1  0.75882000  0.75355000  0.25000000  1
  Cr  Cr1  1  0.48763000  0.75882000  0.25000000  1
  Cr  Cr2  1  0.75355000  0.48763000  0.25000000  1
  Cr  Cr3  1  0.51237000  0.24645000  0.75000000  1
  Cr  Cr4  1  0.24645000  0.24118000  0.75000000  1
  Cr  Cr5  1  0.24118000  0.51237000  0.75000000  1
  H  H6  1  0.30093000  0.64218000  0.87701000  1
  H  H7  1  0.05713000  0.30078000  0.62298000  1
  H  H8  1  0.64221000  0.05684000  0.87700000  1
  H  H9  1  0.30093000  0.64219000  0.62300000  1
  H  H10  1  0.05682000  0.30096000  0.87700000  1
  H  H11  1  0.64221000  0.05684000  0.62300000  1
  H  H12  1  0.94353000  0.35764000  0.37698000  1
  H  H13  1  0.35774000  0.69897000  0.12301000  1
  H  H14  1  0.69904000  0.94317000  0.37701000  1
  H  H15  1  0.94320000  0.35777000  0.12300000  1
  H  H16  1  0.35775000  0.69900000  0.37700000  1
  H  H17  1  0.69903000  0.94319000  0.12300000  1
  H  H18  1  0.22187000  0.76273000  0.95463000  1
  H  H19  1  0.01577000  0.22166000  0.54535000  1
  H  H20  1  0.76279000  0.01528000  0.95462000  1
  H  H21  1  0.22186000  0.76272000  0.54539000  1
  H  H22  1  0.01528000  0.22192000  0.95461000  1
  H  H23  1  0.76278000  0.01531000  0.54539000  1
  H  H24  1  0.98528000  0.23695000  0.45458000  1
  H  H25  1  0.23713000  0.77796000  0.04540000  1
  H  H26  1  0.77802000  0.98482000  0.45461000  1
  H  H27  1  0.98478000  0.23718000  0.04538000  1
  H  H28  1  0.23712000  0.77797000  0.45461000  1
  H  H29  1  0.77804000  0.98478000  0.04539000  1
  H  H30  1  0.70807000  0.37121000  0.82826000  1
  H  H31  1  0.78933000  0.34052000  0.88511000  1
  H  H32  1  0.73703000  0.23751000  0.86459000  1
  H  H33  1  0.92047000  0.70788000  0.67192000  1
  H  H34  1  0.02467000  0.73739000  0.63548000  1
  H  H35  1  0.86930000  0.78931000  0.61513000  1
  H  H36  1  0.37114000  0.92076000  0.82828000  1
  H  H37  1  0.34038000  0.87028000  0.88514000  1
  H  H38  1  0.23745000  0.02557000  0.86459000  1
  H  H39  1  0.70808000  0.37121000  0.67174000  1
  H  H40  1  0.73702000  0.23752000  0.63542000  1
  H  H41  1  0.78934000  0.34050000  0.61489000  1
  H  H42  1  0.02557000  0.73697000  0.86458000  1
  H  H43  1  0.92071000  0.70810000  0.82830000  1
  H  H44  1  0.87030000  0.78935000  0.88516000  1
  H  H45  1  0.37118000  0.92074000  0.67173000  1
  H  H46  1  0.23750000  0.02548000  0.63541000  1
  H  H47  1  0.34047000  0.87019000  0.61488000  1
  H  H48  1  0.97329000  0.76311000  0.36459000  1
  H  H49  1  0.12848000  0.66101000  0.38545000  1
  H  H50  1  0.07904000  0.62936000  0.32853000  1
  H  H51  1  0.76265000  0.26307000  0.13537000  1
  H  H52  1  0.62900000  0.29186000  0.17169000  1
  H  H53  1  0.65976000  0.21066000  0.11482000  1
  H  H54  1  0.29189000  0.07921000  0.32831000  1
  H  H55  1  0.26307000  0.97433000  0.36460000  1
  H  H56  1  0.21068000  0.12959000  0.38518000  1
  H  H57  1  0.07923000  0.62889000  0.17170000  1
  H  H58  1  0.12964000  0.65973000  0.11484000  1
  H  H59  1  0.97435000  0.76259000  0.13542000  1
  H  H60  1  0.76264000  0.26305000  0.36461000  1
  H  H61  1  0.65974000  0.21065000  0.38518000  1
  H  H62  1  0.62895000  0.29187000  0.32831000  1
  H  H63  1  0.29190000  0.07921000  0.17171000  1
  H  H64  1  0.21066000  0.12966000  0.11485000  1
  H  H65  1  0.26304000  0.97437000  0.13540000  1
  H  H66  1  0.76848000  0.23668000  0.95538000  1
  H  H67  1  0.99358000  0.76907000  0.54476000  1
  H  H68  1  0.23658000  0.99500000  0.95539000  1
  H  H69  1  0.76851000  0.23669000  0.54462000  1
  H  H70  1  0.99500000  0.76842000  0.95540000  1
  H  H71  1  0.23667000  0.99486000  0.54462000  1
  H  H72  1  0.00345000  0.76429000  0.45556000  1
  H  H73  1  0.76354000  0.23170000  0.04458000  1
  H  H74  1  0.23169000  0.00478000  0.45541000  1
  H  H75  1  0.00488000  0.76349000  0.04460000  1
  H  H76  1  0.76359000  0.23172000  0.45541000  1
  H  H77  1  0.23163000  0.00490000  0.04460000  1
  C  C78  1  0.54204000  0.90181000  0.17843000  1
  C  C79  1  0.55616000  0.54204000  0.32157000  1
  C  C80  1  0.90181000  0.55615000  0.17843000  1
  C  C81  1  0.54204000  0.90181000  0.32157000  1
  C  C82  1  0.55615000  0.54204000  0.17843000  1
  C  C83  1  0.90178000  0.55618000  0.32158000  1
  C  C84  1  0.44386000  0.09818000  0.67843000  1
  C  C85  1  0.09818000  0.45797000  0.82157000  1
  C  C86  1  0.45796000  0.44386000  0.67843000  1
  C  C87  1  0.44385000  0.09819000  0.82157000  1
  C  C88  1  0.09816000  0.45796000  0.67844000  1
  C  C89  1  0.45796000  0.44386000  0.82157000  1
  C  C90  1  0.49855000  0.50387000  0.02624000  1
  C  C91  1  0.99722000  0.49877000  0.47382000  1
  C  C92  1  0.50386000  0.99760000  0.02625000  1
  C  C93  1  0.49857000  0.50388000  0.47376000  1
  C  C94  1  0.99760000  0.49854000  0.02625000  1
  C  C95  1  0.50389000  0.99755000  0.47376000  1
  C  C96  1  0.00200000  0.49632000  0.52631000  1
  C  C97  1  0.49616000  0.50148000  0.97375000  1
  C  C98  1  0.50151000  0.00232000  0.52626000  1
  C  C99  1  0.00238000  0.49615000  0.97375000  1
  C  C100  1  0.49617000  0.50150000  0.52626000  1
  C  C101  1  0.50147000  0.00238000  0.97375000  1
  C  C102  1  0.30855000  0.69941000  0.02591000  1
  C  C103  1  0.99220000  0.30848000  0.47409000  1
  C  C104  1  0.69946000  0.99196000  0.02591000  1
  C  C105  1  0.30855000  0.69941000  0.47410000  1
  C  C106  1  0.99196000  0.30858000  0.02590000  1
  C  C107  1  0.69945000  0.99197000  0.47410000  1
  C  C108  1  0.00832000  0.30039000  0.52590000  1
  C  C109  1  0.30049000  0.69135000  0.97411000  1
  C  C110  1  0.69140000  0.00808000  0.52591000  1
  C  C111  1  0.00808000  0.30052000  0.97409000  1
  C  C112  1  0.30049000  0.69135000  0.52591000  1
  C  C113  1  0.69140000  0.00808000  0.97410000  1
  C  C114  1  0.41937000  0.61453000  0.10383000  1
  C  C115  1  0.96610000  0.41942000  0.39619000  1
  C  C116  1  0.61456000  0.96605000  0.10383000  1
  C  C117  1  0.41938000  0.61455000  0.39618000  1
  C  C118  1  0.96605000  0.41939000  0.10382000  1
  C  C119  1  0.61457000  0.96604000  0.39618000  1
  C  C120  1  0.03399000  0.38536000  0.60385000  1
  C  C121  1  0.38541000  0.58061000  0.89617000  1
  C  C122  1  0.58063000  0.03394000  0.60384000  1
  C  C123  1  0.03395000  0.38544000  0.89617000  1
  C  C124  1  0.38542000  0.58061000  0.60383000  1
  C  C125  1  0.58061000  0.03396000  0.89617000  1
  C  C126  1  0.48240000  0.48414000  0.87002000  1
  C  C127  1  0.03331000  0.48241000  0.63003000  1
  C  C128  1  0.48412000  0.03348000  0.87002000  1
  C  C129  1  0.48240000  0.48414000  0.62999000  1
  C  C130  1  0.03348000  0.48240000  0.87002000  1
  C  C131  1  0.48414000  0.03345000  0.62999000  1
  C  C132  1  0.96635000  0.51606000  0.37007000  1
  C  C133  1  0.51590000  0.51758000  0.12998000  1
  C  C134  1  0.51761000  0.96650000  0.37003000  1
  C  C135  1  0.96651000  0.51589000  0.12998000  1
  C  C136  1  0.51591000  0.51759000  0.37003000  1
  C  C137  1  0.51760000  0.96651000  0.12998000  1
  C  C138  1  0.40683000  0.60559000  0.05231000  1
  C  C139  1  0.98751000  0.40690000  0.44772000  1
  C  C140  1  0.60562000  0.98754000  0.05231000  1
  C  C141  1  0.40684000  0.60560000  0.44770000  1
  C  C142  1  0.98754000  0.40684000  0.05230000  1
  C  C143  1  0.60563000  0.98752000  0.44770000  1
  C  C144  1  0.01242000  0.39436000  0.55233000  1
  C  C145  1  0.39436000  0.59316000  0.94770000  1
  C  C146  1  0.59318000  0.01244000  0.55231000  1
  C  C147  1  0.01246000  0.39438000  0.94769000  1
  C  C148  1  0.39437000  0.59315000  0.55231000  1
  C  C149  1  0.59316000  0.01247000  0.94769000  1
  C  C150  1  0.59040000  0.40486000  0.10502000  1
  C  C151  1  0.00426000  0.59078000  0.39507000  1
  C  C152  1  0.40485000  0.00478000  0.10503000  1
  C  C153  1  0.59041000  0.40486000  0.39498000  1
  C  C154  1  0.00478000  0.59037000  0.10503000  1
  C  C155  1  0.40487000  0.00475000  0.39498000  1
  C  C156  1  0.99466000  0.59528000  0.60514000  1
  C  C157  1  0.59516000  0.40972000  0.89495000  1
  C  C158  1  0.40970000  0.99513000  0.60505000  1
  C  C159  1  0.99519000  0.59515000  0.89496000  1
  C  C160  1  0.59517000  0.40971000  0.60505000  1
  C  C161  1  0.40966000  0.99519000  0.89496000  1
  C  C162  1  0.59243000  0.40418000  0.05256000  1
  C  C163  1  0.00277000  0.59281000  0.44753000  1
  C  C164  1  0.40416000  0.00345000  0.05257000  1
  C  C165  1  0.59245000  0.40420000  0.44744000  1
  C  C166  1  0.00344000  0.59240000  0.05257000  1
  C  C167  1  0.40420000  0.00338000  0.44744000  1
  C  C168  1  0.99583000  0.59613000  0.55268000  1
  C  C169  1  0.59588000  0.40768000  0.94742000  1
  C  C170  1  0.40769000  0.99643000  0.55258000  1
  C  C171  1  0.99651000  0.59586000  0.94743000  1
  C  C172  1  0.59590000  0.40768000  0.55258000  1
  C  C173  1  0.40763000  0.99652000  0.94742000  1
  C  C174  1  0.69198000  0.31205000  0.97414000  1
  C  C175  1  0.99499000  0.69245000  0.52598000  1
  C  C176  1  0.31197000  0.99610000  0.97415000  1
  C  C177  1  0.69200000  0.31206000  0.52586000  1
  C  C178  1  0.99609000  0.69193000  0.97416000  1
  C  C179  1  0.31204000  0.99599000  0.52586000  1
  C  C180  1  0.00271000  0.68868000  0.47429000  1
  C  C181  1  0.68812000  0.30816000  0.02582000  1
  C  C182  1  0.30817000  0.00372000  0.47417000  1
  C  C183  1  0.00382000  0.68807000  0.02584000  1
  C  C184  1  0.68815000  0.30818000  0.47417000  1
  C  C185  1  0.30811000  0.00382000  0.02584000  1
  C  C186  1  0.71370000  0.33476000  0.86647000  1
  C  C187  1  0.95094000  0.71377000  0.63368000  1
  C  C188  1  0.33467000  0.95163000  0.86648000  1
  C  C189  1  0.71371000  0.33476000  0.63354000  1
  C  C190  1  0.95162000  0.71370000  0.86649000  1
  C  C191  1  0.33474000  0.95155000  0.63353000  1
  C  C192  1  0.04758000  0.66606000  0.36665000  1
  C  C193  1  0.66544000  0.28630000  0.13349000  1
  C  C194  1  0.28632000  0.04830000  0.36651000  1
  C  C195  1  0.04833000  0.66537000  0.13351000  1
  C  C196  1  0.66542000  0.28630000  0.36651000  1
  C  C197  1  0.28631000  0.04833000  0.13351000  1
  O  O198  1  0.87907000  0.66006000  0.19476000  1
  O  O199  1  0.46087000  0.87907000  0.30524000  1
  O  O200  1  0.66006000  0.46087000  0.19476000  1
  O  O201  1  0.87907000  0.66006000  0.30524000  1
  O  O202  1  0.46087000  0.87907000  0.19476000  1
  O  O203  1  0.66006000  0.46087000  0.30524000  1
  O  O204  1  0.53913000  0.33994000  0.69476000  1
  O  O205  1  0.33994000  0.12093000  0.80524000  1
  O  O206  1  0.12093000  0.53913000  0.69476000  1
  O  O207  1  0.53913000  0.33994000  0.80524000  1
  O  O208  1  0.33994000  0.12093000  0.69476000  1
  O  O209  1  0.12093000  0.53913000  0.80524000  1
  O  O210  1  0.64953000  0.85156000  0.19813000  1
  O  O211  1  0.49891000  0.64953000  0.30187000  1
  O  O212  1  0.85156000  0.49891000  0.19813000  1
  O  O213  1  0.64953000  0.85156000  0.30187000  1
  O  O214  1  0.49891000  0.64953000  0.19813000  1
  O  O215  1  0.85156000  0.49891000  0.30187000  1
  O  O216  1  0.50109000  0.14844000  0.69813000  1
  O  O217  1  0.14844000  0.35047000  0.80187000  1
  O  O218  1  0.35047000  0.50109000  0.69813000  1
  O  O219  1  0.50109000  0.14844000  0.80187000  1
  O  O220  1  0.14844000  0.35047000  0.69813000  1
  O  O221  1  0.35047000  0.50109000  0.80187000  1
  O  O222  1  0.66666667  0.66666667  0.25000000  1
  O  O223  1  0.33333333  0.33333333  0.75000000  1
