# generated using pymatgen
data_H13C20(NO)2
_symmetry_space_group_name_H-M   'P 1'
_cell_length_a   19.61545000
_cell_length_b   19.61545000
_cell_length_c   58.84630000
_cell_angle_alpha   90.00000000
_cell_angle_beta   90.00000000
_cell_angle_gamma   120.00000000
_symmetry_Int_Tables_number   1
_chemical_formula_structural   H13C20(NO)2
_chemical_formula_sum   'H156 C240 N24 O24'
_cell_volume   19608.58904567
_cell_formula_units_Z   12
loop_
 _symmetry_equiv_pos_site_id
 _symmetry_equiv_pos_as_xyz
  1  'x, y, z'
loop_
 _atom_site_type_symbol
 _atom_site_label
 _atom_site_symmetry_multiplicity
 _atom_site_fract_x
 _atom_site_fract_y
 _atom_site_fract_z
 _atom_site_occupancy
  C  1  1  0.97543700  0.98882000  0.00961000  1
  C  2  1  0.99023550  0.02406750  0.03151100  1
  C  3  1  0.94732500  0.98310000  0.05094800  1
  C  4  1  0.88715050  0.90427150  0.04840400  1
  C  5  1  0.86981250  0.86435950  0.02729600  1
  C  6  1  0.91420650  0.90889350  0.00828600  1
  C  10  1  0.01959500  0.03157800  0.99003200  1
  C  11  1  0.09544800  0.09930500  0.99217900  1
  C  12  1  0.14105200  0.14428600  0.97346600  1
  C  13  1  0.11043050  0.11706750  0.95152100  1
  C  14  1  0.03531500  0.05060500  0.94815200  1
  C  15  1  0.99097850  0.00951350  0.96746400  1
  C  27  1  0.01732950  0.02766850  0.34294800  1
  C  28  1  0.03770900  0.01280300  0.36485000  1
  C  29  1  0.03977800  0.05579800  0.38428200  1
  C  30  1  0.02117350  0.11600550  0.38173800  1
  C  31  1  0.99853900  0.13331600  0.36063600  1
  C  32  1  0.99865050  0.08891150  0.34162500  1
  C  36  1  0.01593050  0.98351550  0.32336800  1
  C  37  1  0.00776550  0.90764250  0.32551600  1
  C  38  1  0.00712500  0.86202600  0.30680400  1
  C  39  1  0.01051550  0.89264550  0.28485900  1
  C  40  1  0.01914600  0.96775300  0.28148700  1
  C  41  1  0.02250700  0.01213800  0.30079900  1
  C  53  1  0.01447650  0.98596950  0.67629100  1
  C  54  1  0.97932200  0.96576500  0.69820700  1
  C  55  1  0.02031600  0.96380700  0.71763700  1
  C  56  1  0.09912550  0.98241250  0.71508100  1
  C  57  1  0.13895500  0.00480900  0.69395900  1
  C  58  1  0.09438300  0.00460800  0.67495100  1
  C  62  1  0.97165850  0.98725450  0.65671200  1
  C  63  1  0.90401500  0.99553200  0.65885500  1
  C  64  1  0.85891700  0.99596700  0.64014900  1
  C  65  1  0.88599100  0.99232400  0.61820500  1
  C  66  1  0.95244200  0.98365500  0.61483700  1
  C  67  1  0.99359250  0.98048550  0.63414500  1
  C  79  1  0.94465650  0.94907950  0.89373600  1
  C  80  1  0.96163250  0.90096750  0.87970200  1
  C  81  1  0.95031800  0.89891600  0.85603400  1
  C  82  1  0.92029450  0.94364850  0.84563700  1
  C  83  1  0.89903600  0.98801700  0.85995900  1
  C  84  1  0.91124200  0.99092000  0.88357000  1
  C  87  1  0.91828000  0.94927700  0.82143100  1
  C  88  1  0.89447050  0.88279950  0.80725900  1
  C  89  1  0.90135100  0.89058800  0.78346300  1
  C  90  1  0.93184950  0.96511150  0.77299200  1
  C  91  1  0.95250500  0.03111800  0.78702300  1
  C  92  1  0.94630550  0.02337550  0.81079900  1
  C  99  1  0.94738250  0.97506950  0.74923100  1
  C  100  1  0.96543600  0.95934100  0.91716800  1
  C  103  1  0.00846900  0.05858900  0.22707500  1
  C  104  1  0.94340200  0.04179500  0.21305300  1
  C  105  1  0.95262350  0.05303450  0.18938300  1
  C  106  1  0.02732100  0.08278700  0.17897100  1
  C  107  1  0.09294700  0.10387600  0.19328000  1
  C  108  1  0.08367950  0.09175050  0.21689400  1
  C  111  1  0.03489200  0.08469700  0.15476400  1
  C  112  1  0.99240450  0.10872350  0.14059300  1
  C  113  1  0.99324500  0.10178400  0.11679700  1
  C  114  1  0.03700750  0.07098750  0.10632400  1
  C  115  1  0.08217950  0.05010050  0.12035600  1
  C  116  1  0.08070550  0.05636650  0.14413300  1
  C  123  1  0.03143950  0.05545950  0.08256400  1
  C  124  1  0.99795300  0.03783800  0.25051000  1
  C  127  1  0.05396100  0.99474700  0.56039000  1
  C  128  1  0.10224750  0.05982450  0.54637400  1
  C  129  1  0.10436550  0.05060450  0.52270700  1
  C  130  1  0.05952550  0.97589950  0.51229200  1
  C  131  1  0.01499800  0.91026200  0.52659700  1
  C  132  1  0.01203700  0.91952400  0.55020800  1
  C  135  1  0.05394600  0.96832100  0.48808700  1
  C  136  1  0.12050150  0.01083750  0.47392900  1
  C  137  1  0.11279650  0.00997150  0.45013200  1
  C  138  1  0.03827450  0.96616850  0.43964400  1
  C  139  1  0.97217550  0.92097050  0.45365800  1
  C  140  1  0.97984300  0.92246500  0.47743700  1
  C  147  1  0.02847550  0.97172150  0.41586800  1
  C  148  1  0.04365800  0.00531200  0.58381400  1
  C  151  1  0.31626550  0.32614550  0.99614300  1
  C  152  1  0.33274850  0.38861050  0.01124800  1
  C  153  1  0.40913500  0.45326400  0.01360300  1
  C  154  1  0.47480500  0.45892600  0.00165200  1
  C  155  1  0.45766400  0.39460300  0.98700800  1
  C  156  1  0.38091300  0.33053500  0.98419100  1
  C  159  1  0.55256500  0.52529200  0.00410000  1
  C  160  1  0.57307050  0.58006150  0.02220700  1
  C  161  1  0.64800650  0.64719750  0.02417100  1
  C  162  1  0.70879050  0.66398350  0.00832800  1
  C  163  1  0.68949150  0.60895250  0.99043500  1
  C  164  1  0.61417450  0.54197750  0.98843700  1
  C  171  1  0.78389800  0.73382000  0.00921400  1
  C  172  1  0.23849550  0.26169050  0.99383600  1
  C  175  1  0.01377900  0.68683300  0.32947500  1
  C  176  1  0.05982050  0.67038950  0.34456700  1
  C  177  1  0.04809750  0.59400850  0.34693300  1
  C  178  1  0.98805050  0.52831150  0.33499800  1
  C  179  1  0.94080100  0.54541200  0.32037000  1
  C  180  1  0.95346750  0.62215650  0.31754700  1
  C  183  1  0.97667850  0.45055950  0.33745000  1
  C  184  1  0.01100900  0.43009000  0.35554500  1
  C  185  1  0.00322400  0.35515700  0.35751100  1
  C  186  1  0.95918300  0.29435000  0.34167800  1
  C  187  1  0.92339500  0.31362100  0.32379400  1
  C  188  1  0.93171450  0.38892950  0.32179600  1
  C  195  1  0.95390700  0.21924000  0.34256500  1
  C  196  1  0.02712050  0.76460350  0.32715600  1
  C  199  1  0.67718250  0.98949750  0.66284200  1
  C  200  1  0.61474900  0.94356600  0.67796100  1
  C  201  1  0.55008700  0.95528800  0.68031000  1
  C  202  1  0.54439350  0.01524250  0.66833400  1
  C  203  1  0.60869500  0.06238600  0.65368100  1
  C  204  1  0.67276950  0.04970950  0.65087200  1
  C  207  1  0.47801700  0.02662300  0.67077500  1
  C  208  1  0.42327650  0.99242350  0.68888800  1
  C  209  1  0.35612900  0.00020700  0.69084400  1
  C  210  1  0.33930600  0.04412400  0.67498200  1
  C  211  1  0.39430300  0.07978600  0.65707800  1
  C  212  1  0.46129200  0.07146100  0.65509000  1
  C  219  1  0.26946350  0.04938650  0.67585900  1
  C  220  1  0.74163750  0.97618350  0.66053600  1
  C  889  1  0.31269500  0.65156400  0.99261658  1
  C  890  1  0.32749350  0.68681150  0.01451800  1
  C  891  1  0.28458300  0.64584400  0.03395500  1
  C  892  1  0.22440850  0.56701550  0.03141100  1
  C  893  1  0.20707050  0.52710350  0.01030300  1
  C  894  1  0.25146450  0.57163750  0.99129258  1
  C  898  1  0.35685300  0.69432200  0.97303860  1
  C  899  1  0.43270600  0.76204900  0.97518560  1
  C  900  1  0.47831000  0.80703000  0.95647260  1
  C  901  1  0.44768850  0.77981150  0.93452760  1
  C  902  1  0.37257300  0.71334900  0.93115860  1
  C  903  1  0.32823650  0.67225750  0.95047060  1
  C  915  1  0.35458750  0.69041250  0.32595500  1
  C  916  1  0.37496700  0.67554700  0.34785700  1
  C  917  1  0.37703600  0.71854200  0.36728900  1
  C  918  1  0.35843150  0.77874950  0.36474500  1
  C  919  1  0.33579700  0.79606000  0.34364300  1
  C  920  1  0.33590850  0.75165550  0.32463200  1
  C  924  1  0.35318850  0.64625950  0.30637500  1
  C  925  1  0.34502350  0.57038650  0.30852300  1
  C  926  1  0.34438300  0.52476990  0.28981100  1
  C  927  1  0.34777350  0.55538950  0.26786600  1
  C  928  1  0.35640400  0.63049700  0.26449400  1
  C  929  1  0.35976500  0.67488200  0.28380600  1
  C  941  1  0.35173450  0.64871350  0.65929800  1
  C  942  1  0.31658000  0.62850900  0.68121400  1
  C  943  1  0.35757400  0.62655100  0.70064400  1
  C  944  1  0.43638350  0.64515650  0.69808800  1
  C  945  1  0.47621300  0.66755290  0.67696600  1
  C  946  1  0.43164100  0.66735200  0.65795800  1
  C  950  1  0.30891650  0.64999850  0.63971900  1
  C  951  1  0.24127300  0.65827600  0.64186200  1
  C  952  1  0.19617500  0.65871100  0.62315600  1
  C  953  1  0.22324900  0.65506800  0.60121200  1
  C  954  1  0.28970000  0.64639900  0.59784400  1
  C  955  1  0.33085050  0.64322950  0.61715200  1
  C  967  1  0.28191450  0.61182350  0.87674300  1
  C  968  1  0.29889050  0.56371150  0.86270900  1
  C  969  1  0.28757600  0.56166000  0.83904100  1
  C  970  1  0.25755250  0.60639250  0.82864400  1
  C  971  1  0.23629400  0.65076100  0.84296600  1
  C  972  1  0.24850000  0.65366400  0.86657700  1
  C  975  1  0.25553800  0.61202100  0.80443800  1
  C  976  1  0.23172850  0.54554350  0.79026600  1
  C  977  1  0.23860900  0.55333200  0.76647000  1
  C  978  1  0.26910750  0.62785550  0.75599900  1
  C  979  1  0.28976300  0.69386200  0.77003000  1
  C  980  1  0.28356350  0.68611950  0.79380600  1
  C  987  1  0.28464050  0.63781350  0.73223800  1
  C  988  1  0.30269400  0.62208500  0.90017460  1
  C  991  1  0.34572700  0.72133300  0.21008200  1
  C  992  1  0.28066000  0.70453900  0.19606000  1
  C  993  1  0.28988150  0.71577850  0.17239000  1
  C  994  1  0.36457900  0.74553100  0.16197800  1
  C  995  1  0.43020500  0.76662000  0.17628700  1
  C  996  1  0.42093750  0.75449450  0.19990100  1
  C  999  1  0.37215000  0.74744100  0.13777100  1
  C  1000  1  0.32966250  0.77146750  0.12360000  1
  C  1001  1  0.33050300  0.76452800  0.09980400  1
  C  1002  1  0.37426550  0.73373150  0.08933100  1
  C  1003  1  0.41943750  0.71284450  0.10336300  1
  C  1004  1  0.41796350  0.71911050  0.12714000  1
  C  1011  1  0.36869750  0.71820350  0.06557100  1
  C  1012  1  0.33521100  0.70058200  0.23351700  1
  C  1015  1  0.39121900  0.65749100  0.54339700  1
  C  1016  1  0.43950550  0.72256850  0.52938100  1
  C  1017  1  0.44162350  0.71334850  0.50571400  1
  C  1018  1  0.39678350  0.63864350  0.49529900  1
  C  1019  1  0.35225600  0.57300600  0.50960400  1
  C  1020  1  0.34929500  0.58226800  0.53321500  1
  C  1023  1  0.39120400  0.63106500  0.47109400  1
  C  1024  1  0.45775950  0.67358150  0.45693600  1
  C  1025  1  0.45005450  0.67271550  0.43313900  1
  C  1026  1  0.37553250  0.62891250  0.42265100  1
  C  1027  1  0.30943350  0.58371450  0.43666500  1
  C  1028  1  0.31710100  0.58520900  0.46044400  1
  C  1035  1  0.36573350  0.63446550  0.39887500  1
  C  1036  1  0.38091600  0.66805600  0.56682100  1
  C  1039  1  0.65352350  0.98888950  0.97914960  1
  C  1040  1  0.67000650  0.05135450  0.99425458  1
  C  1041  1  0.74639300  0.11600800  0.99660958  1
  C  1042  1  0.81206260  0.12166960  0.98465860  1
  C  1043  1  0.79492200  0.05734700  0.97001460  1
  C  1044  1  0.71817100  0.99327900  0.96719760  1
  C  1047  1  0.88982260  0.18803560  0.98710660  1
  C  1048  1  0.91032810  0.24280510  0.00521400  1
  C  1049  1  0.98526406  0.30994106  0.00717800  1
  C  1050  1  0.04604850  0.32672750  0.99133458  1
  C  1051  1  0.02674950  0.27169650  0.97344160  1
  C  1052  1  0.95143210  0.20472110  0.97144360  1
  C  1059  1  0.12115600  0.39656400  0.99222058  1
  C  1060  1  0.57575350  0.92443450  0.97684260  1
  C  1063  1  0.35103700  0.34957700  0.31248200  1
  C  1064  1  0.39707850  0.33313350  0.32757400  1
  C  1065  1  0.38535550  0.25675250  0.32994000  1
  C  1066  1  0.32530850  0.19105550  0.31800500  1
  C  1067  1  0.27805900  0.20815600  0.30337700  1
  C  1068  1  0.29072550  0.28490050  0.30055400  1
  C  1071  1  0.31393650  0.11330350  0.32045700  1
  C  1072  1  0.34826700  0.09283400  0.33855200  1
  C  1073  1  0.34048200  0.01790100  0.34051800  1
  C  1074  1  0.29644100  0.95709400  0.32468500  1
  C  1075  1  0.26065300  0.97636500  0.30680100  1
  C  1076  1  0.26897250  0.05167350  0.30480300  1
  C  1083  1  0.29116500  0.88198400  0.32557200  1
  C  1084  1  0.36437850  0.42734740  0.31016300  1
  C  1087  1  0.01444050  0.65224150  0.64584900  1
  C  1088  1  0.95200660  0.60630960  0.66096800  1
  C  1089  1  0.88734460  0.61803160  0.66331700  1
  C  1090  1  0.88165110  0.67798610  0.65134100  1
  C  1091  1  0.94595260  0.72512960  0.63668800  1
  C  1092  1  0.01002750  0.71245350  0.63387900  1
  C  1095  1  0.81527460  0.68936660  0.65378200  1
  C  1096  1  0.76053450  0.65516750  0.67189500  1
  C  1097  1  0.69338700  0.66295100  0.67385100  1
  C  1098  1  0.67656400  0.70686790  0.65798900  1
  C  1099  1  0.73156100  0.74252989  0.64008500  1
  C  1100  1  0.79855000  0.73420500  0.63809700  1
  C  1107  1  0.60672150  0.71213040  0.65886600  1
  C  1108  1  0.07889550  0.63892750  0.64354300  1
  H  7  1  0.02928650  0.08271250  0.03348200  1
  H  8  1  0.90169700  0.88199500  0.99294400  1
  H  9  1  0.85597000  0.87479700  0.06257000  1
  H  16  1  0.12210400  0.11298600  0.00769100  1
  H  17  1  0.14196950  0.14847550  0.93763300  1
  H  18  1  0.93437200  0.96591400  0.96472100  1
  H  20  1  0.01948250  0.07744950  0.91646000  1
  H  22  1  0.24632600  0.22826900  0.96232700  1
  H  24  1  0.91340550  0.00280850  0.08118100  1
  H  26  1  0.77877950  0.76904650  0.04041700  1
  H  33  1  0.05746200  0.97387700  0.36680500  1
  H  34  1  0.98427500  0.10143900  0.32628400  1
  H  35  1  0.02294600  0.14722800  0.39590100  1
  H  42  1  0.99477300  0.88098600  0.34102700  1
  H  43  1  0.01024150  0.86103150  0.27097200  1
  H  44  1  0.03545650  0.06872450  0.29806100  1
  H  46  1  0.06165000  0.98343700  0.24977100  1
  H  48  1  0.98571200  0.75670200  0.29566300  1
  H  50  1  0.09341100  0.08977900  0.41451900  1
  H  52  1  0.99435850  0.22440650  0.37375500  1
  H  59  1  0.92065400  0.94603500  0.70017700  1
  H  60  1  0.12122100  0.01886300  0.65960000  1
  H  61  1  0.12863700  0.98075400  0.72924400  1
  H  68  1  0.89038800  0.00854300  0.67437000  1
  H  69  1  0.85461500  0.99251900  0.60431700  1
  H  70  1  0.03722150  0.96752350  0.63140900  1
  H  72  1  0.92559100  0.94095600  0.58314300  1
  H  74  1  0.77483550  0.01716250  0.62900500  1
  H  76  1  0.00077650  0.91037150  0.74788900  1
  H  78  1  0.23432500  0.00921500  0.70707900  1
  H  85  1  0.87628500  0.02055800  0.85325000  1
  H  86  1  0.89709800  0.02549900  0.89322500  1
  H  93  1  0.87328800  0.82800200  0.81417700  1
  H  94  1  0.88512700  0.84131600  0.77385300  1
  H  95  1  0.97682300  0.08639900  0.78018300  1
  H  96  1  0.98757050  0.87126050  0.88634600  1
  H  97  1  0.96682900  0.07353900  0.82030800  1
  H  98  1  0.96863350  0.86776250  0.84634600  1
  H  109  1  0.14819850  0.12643050  0.18655700  1
  H  110  1  0.13238750  0.10574950  0.22653900  1
  H  117  1  0.95898500  0.13013600  0.14751000  1
  H  118  1  0.96035700  0.11821100  0.10718800  1
  H  119  1  0.11296350  0.02558750  0.11351900  1
  H  120  1  0.88778000  0.01603500  0.21971000  1
  H  121  1  0.11020700  0.03568700  0.15364100  1
  H  122  1  0.90315450  0.03484850  0.17970500  1
  H  133  1  0.98237800  0.85500200  0.51987300  1
  H  134  1  0.97735000  0.87079800  0.55984800  1
  H  141  1  0.17530300  0.04428900  0.48086100  1
  H  142  1  0.16213300  0.04288100  0.44053200  1
  H  143  1  0.91690350  0.89015450  0.44680800  1
  H  144  1  0.13203100  0.11545200  0.55303000  1
  H  145  1  0.92963550  0.89294050  0.48693500  1
  H  146  1  0.13564350  0.10008150  0.51303000  1
  H  157  1  0.50129700  0.39109000  0.97862000  1
  H  158  1  0.37387000  0.28533400  0.97396100  1
  H  165  1  0.53431850  0.57183050  0.03489900  1
  H  166  1  0.65574350  0.68420850  0.03733100  1
  H  167  1  0.72978350  0.61764150  0.97808600  1
  H  168  1  0.28853250  0.38980950  0.02015100  1
  H  169  1  0.60464750  0.50812650  0.97434200  1
  H  170  1  0.41421900  0.49775400  0.02371400  1
  H  181  1  0.89362450  0.50176150  0.31199900  1
  H  182  1  0.91527450  0.62917750  0.30732600  1
  H  189  1  0.04156450  0.46885950  0.36823000  1
  H  190  1  0.03253550  0.34743950  0.37066400  1
  H  191  1  0.89175600  0.27331000  0.31145400  1
  H  192  1  0.10527200  0.71463200  0.35345300  1
  H  193  1  0.90734900  0.39843300  0.30770800  1
  H  194  1  0.08754500  0.58894800  0.35703000  1
  H  205  1  0.61218750  0.10949750  0.64527900  1
  H  206  1  0.71795450  0.08783550  0.64063200  1
  H  213  1  0.43153650  0.96196550  0.70159400  1
  H  214  1  0.31913750  0.97098150  0.70401200  1
  H  215  1  0.38558600  0.11132800  0.64471500  1
  H  216  1  0.61357050  0.89818750  0.68687700  1
  H  217  1  0.49511700  0.09572600  0.64098700  1
  H  218  1  0.50561200  0.91591200  0.69042900  1
  H  895  1  0.36654450  0.74545650  0.01648900  1
  H  896  1  0.23895500  0.54473900  0.97595060  1
  H  897  1  0.19322800  0.53754100  0.04557700  1
  H  904  1  0.45936200  0.77573000  0.99069758  1
  H  905  1  0.47922750  0.81121950  0.92063960  1
  H  906  1  0.27163000  0.62865800  0.94772760  1
  H  908  1  0.35674050  0.74019350  0.89946700  1
  H  910  1  0.58358400  0.89101300  0.94533360  1
  H  912  1  0.25066350  0.66555250  0.06418800  1
  H  914  1  0.11603750  0.43179050  0.02342400  1
  H  921  1  0.39472000  0.63662100  0.34981200  1
  H  922  1  0.32153300  0.76418300  0.30929100  1
  H  923  1  0.36020400  0.80997200  0.37890800  1
  H  930  1  0.33203100  0.54373000  0.32403400  1
  H  931  1  0.34749950  0.52377540  0.25397900  1
  H  932  1  0.37271450  0.73146850  0.28106800  1
  H  934  1  0.39890800  0.64618100  0.23277800  1
  H  936  1  0.32297000  0.41944590  0.27867000  1
  H  938  1  0.43066900  0.75252300  0.39752600  1
  H  940  1  0.33161650  0.88715050  0.35676200  1
  H  947  1  0.25791200  0.60877900  0.68318400  1
  H  948  1  0.45847900  0.68160700  0.64260700  1
  H  949  1  0.46589500  0.64349790  0.71225100  1
  H  956  1  0.22764600  0.67128700  0.65737700  1
  H  957  1  0.19187300  0.65526300  0.58732400  1
  H  958  1  0.37447950  0.63026750  0.61441600  1
  H  960  1  0.26284900  0.60370000  0.56615000  1
  H  962  1  0.11209350  0.67990650  0.61201200  1
  H  964  1  0.33803450  0.57311550  0.73089600  1
  H  966  1  0.57158300  0.67195890  0.69008600  1
  H  973  1  0.21354300  0.68330200  0.83625700  1
  H  974  1  0.23435600  0.68824300  0.87623200  1
  H  981  1  0.21054600  0.49074600  0.79718400  1
  H  982  1  0.22238500  0.50406000  0.75686000  1
  H  983  1  0.31408100  0.74914300  0.76319000  1
  H  984  1  0.32482850  0.53400450  0.86935300  1
  H  985  1  0.30408700  0.73628300  0.80331500  1
  H  986  1  0.30589150  0.53050650  0.82935300  1
  H  997  1  0.48545650  0.78917450  0.16956400  1
  H  998  1  0.46964550  0.76849350  0.20954600  1
  H  1005  1  0.29624300  0.79288000  0.13051700  1
  H  1006  1  0.29761500  0.78095500  0.09019500  1
  H  1007  1  0.45022150  0.68833150  0.09652600  1
  H  1008  1  0.22503800  0.67877900  0.20271700  1
  H  1009  1  0.44746500  0.69843100  0.13664800  1
  H  1010  1  0.24041250  0.69759250  0.16271200  1
  H  1021  1  0.31963600  0.51774590  0.50288000  1
  H  1022  1  0.31460800  0.53354200  0.54285500  1
  H  1029  1  0.51256100  0.70703290  0.46386800  1
  H  1030  1  0.49939100  0.70562500  0.42353900  1
  H  1031  1  0.25416150  0.55289850  0.42981500  1
  H  1032  1  0.46928900  0.77819600  0.53603700  1
  H  1033  1  0.26689350  0.55568450  0.46994200  1
  H  1034  1  0.47290150  0.76282550  0.49603700  1
  H  1045  1  0.83855460  0.05383360  0.96162660  1
  H  1046  1  0.71112800  0.94807800  0.95696760  1
  H  1053  1  0.87157610  0.23457410  0.01790600  1
  H  1054  1  0.99300106  0.34695206  0.02033800  1
  H  1055  1  0.06704150  0.28038550  0.96109260  1
  H  1056  1  0.62579050  0.05255350  0.00315800  1
  H  1057  1  0.94190510  0.17087010  0.95734860  1
  H  1058  1  0.75147700  0.16049800  0.00672100  1
  H  1069  1  0.23088250  0.16450550  0.29500600  1
  H  1070  1  0.25253250  0.29192140  0.29033300  1
  H  1077  1  0.37882250  0.13160350  0.35123700  1
  H  1078  1  0.36979350  0.01018350  0.35367100  1
  H  1079  1  0.22901400  0.93605400  0.29446100  1
  H  1080  1  0.44253000  0.37737600  0.33646000  1
  H  1081  1  0.24460700  0.06117700  0.29071500  1
  H  1082  1  0.42480300  0.25169200  0.34003700  1
  H  1093  1  0.94944510  0.77224110  0.62828600  1
  H  1094  1  0.05521250  0.75057950  0.62363900  1
  H  1101  1  0.76879450  0.62470950  0.68460100  1
  H  1102  1  0.65639550  0.63372550  0.68701900  1
  H  1103  1  0.72284400  0.77407190  0.62772200  1
  H  1104  1  0.95082810  0.56093110  0.66988400  1
  H  1105  1  0.83237460  0.75846960  0.62399400  1
  H  1106  1  0.84286960  0.57865560  0.67343600  1
  N  19  1  0.00480800  0.03269500  0.92655900  1
  N  21  1  0.21317700  0.21073500  0.97583600  1
  N  23  1  0.96013900  0.01830200  0.07188700  1
  N  25  1  0.80870450  0.78793650  0.02644300  1
  N  45  1  0.03163650  0.99815550  0.25988400  1
  N  47  1  0.00134250  0.78984750  0.30916800  1
  N  49  1  0.06226050  0.04304350  0.40521800  1
  N  51  1  0.98327700  0.19445900  0.35978600  1
  N  71  1  0.97033000  0.97105600  0.59324200  1
  N  73  1  0.79252500  0.00173400  0.64251800  1
  N  75  1  0.98521200  0.94156800  0.73859500  1
  N  77  1  0.21538450  0.02014350  0.69310000  1
  N  907  1  0.34206600  0.69543900  0.90956560  1
  N  909  1  0.55043500  0.87347900  0.95884260  1
  N  911  1  0.29739700  0.68104600  0.05489400  1
  N  913  1  0.14596250  0.45068050  0.00945000  1
  N  933  1  0.36889450  0.66089950  0.24289100  1
  N  935  1  0.33860050  0.45259140  0.29217500  1
  N  937  1  0.39951850  0.70578750  0.38822500  1
  N  939  1  0.32053500  0.85720300  0.34279300  1
  N  959  1  0.30758800  0.63380000  0.57624900  1
  N  961  1  0.12978300  0.66447800  0.62552500  1
  N  963  1  0.32247000  0.60431200  0.72160200  1
  N  965  1  0.55264250  0.68288740  0.67610700  1
  O  101  1  0.94076750  0.03283950  0.73862600  1
  O  102  1  0.95979250  0.89691950  0.92869100  1
  O  125  1  0.09572050  0.06186050  0.07195000  1
  O  126  1  0.94133900  0.04373000  0.26204400  1
  O  149  1  0.97051450  0.90736550  0.40530200  1
  O  150  1  0.10601100  0.06196700  0.59538800  1
  O  173  1  0.83586450  0.74406950  0.99253000  1
  O  174  1  0.18343200  0.25776000  0.00861000  1
  O  197  1  0.91216000  0.16725500  0.32589000  1
  O  198  1  0.07832400  0.81975500  0.34190100  1
  O  221  1  0.25914000  0.09097200  0.65915100  1
  O  222  1  0.74561650  0.92512650  0.67533000  1
  O  989  1  0.27802550  0.69558350  0.72163300  1
  O  990  1  0.29705050  0.55966350  0.91169760  1
  O  1013  1  0.43297850  0.72460450  0.05495700  1
  O  1014  1  0.27859700  0.70647400  0.24505100  1
  O  1037  1  0.30777250  0.57010950  0.38830900  1
  O  1038  1  0.44326900  0.72471100  0.57839500  1
  O  1061  1  0.17312250  0.40681350  0.97553660  1
  O  1062  1  0.52069000  0.92050400  0.99161658  1
  O  1085  1  0.24941800  0.82999900  0.30889700  1
  O  1086  1  0.41558200  0.48249890  0.32490800  1
  O  1109  1  0.59639800  0.75371590  0.64215800  1
  O  1110  1  0.08287450  0.58787050  0.65833700  1
