# generated using pymatgen
data_H6(C2N)7
_symmetry_space_group_name_H-M   'P 1'
_cell_length_a   12.04556667
_cell_length_b   36.13670000
_cell_length_c   36.13670000
_cell_angle_alpha   90.00000000
_cell_angle_beta   90.00000000
_cell_angle_gamma   90.00000000
_symmetry_Int_Tables_number   1
_chemical_formula_structural   H6(C2N)7
_chemical_formula_sum   'H96 C224 N112'
_cell_volume   15729.83677954
_cell_formula_units_Z   16
loop_
 _symmetry_equiv_pos_site_id
 _symmetry_equiv_pos_as_xyz
  1  'x, y, z'
loop_
 _atom_site_type_symbol
 _atom_site_label
 _atom_site_symmetry_multiplicity
 _atom_site_fract_x
 _atom_site_fract_y
 _atom_site_fract_z
 _atom_site_occupancy
  C  1  1  0.93530500  0.00207500  0.00723300  1
  C  2  1  0.92902000  0.03173900  0.03286800  1
  C  3  1  0.84832600  0.03252900  0.06095000  1
  C  4  1  0.78001000  0.00134100  0.06583600  1
  C  5  1  0.78648700  0.97052200  0.04186500  1
  C  6  1  0.86098600  0.97130000  0.01108900  1
  C  9  1  0.01983900  0.00436600  0.97922000  1
  C  10  1  0.03093000  0.03544100  0.95479900  1
  C  11  1  0.12676800  0.03788200  0.93167800  1
  C  12  1  0.20115000  0.00770800  0.92980200  1
  C  13  1  0.18755100  0.97612300  0.95212800  1
  C  14  1  0.10040700  0.97574100  0.97808500  1
  C  23  1  0.26003400  0.94668500  0.94845300  1
  C  24  1  0.71263300  0.94192800  0.04885200  1
  C  25  1  0.83242000  0.06404100  0.08187700  1
  C  26  1  0.15036600  0.06887600  0.91036500  1
  C  31  1  0.43463600  0.49881900  0.99292000  1
  C  32  1  0.42860900  0.46914000  0.96729300  1
  C  33  1  0.34776800  0.46823300  0.93926000  1
  C  34  1  0.27898680  0.49931500  0.93442600  1
  C  35  1  0.28528680  0.53015300  0.95837900  1
  C  36  1  0.35997800  0.52950000  0.98910200  1
  C  39  1  0.51912500  0.49660300  0.02094300  1
  C  40  1  0.53015900  0.46556200  0.04540200  1
  C  41  1  0.62598500  0.46315800  0.06852300  1
  C  42  1  0.70037900  0.49332900  0.07036100  1
  C  43  1  0.68674700  0.52490600  0.04802600  1
  C  44  1  0.59958500  0.52526300  0.02207300  1
  C  53  1  0.75930500  0.55433300  0.05168000  1
  C  54  1  0.21116880  0.55866100  0.95142500  1
  C  55  1  0.33216800  0.43667200  0.91833200  1
  C  56  1  0.64949600  0.43223100  0.08989500  1
  C  61  1  0.68831400  0.24184200  0.74545200  1
  C  62  1  0.68186700  0.21639300  0.77527500  1
  C  63  1  0.60279300  0.18780100  0.77580900  1
  C  64  1  0.53754300  0.18193600  0.74406600  1
  C  65  1  0.54482700  0.20559400  0.71300600  1
  C  66  1  0.61605900  0.23718200  0.71423700  1
  C  69  1  0.77220000  0.27010000  0.74771300  1
  C  70  1  0.78368400  0.29440700  0.77887200  1
  C  71  1  0.87874800  0.31792900  0.78098900  1
  C  72  1  0.95113200  0.32059100  0.75032800  1
  C  73  1  0.93663000  0.29845000  0.71867000  1
  C  74  1  0.85123500  0.27189800  0.71865100  1
  C  83  1  0.00369800  0.30387900  0.68817000  1
  C  84  1  0.47542800  0.19731800  0.68354600  1
  C  85  1  0.58668600  0.16700800  0.80746400  1
  C  86  1  0.90192000  0.33940000  0.81192500  1
  C  91  1  0.18877340  0.25846000  0.25561400  1
  C  92  1  0.18091940  0.28366400  0.22562200  1
  C  93  1  0.10066640  0.31188200  0.22502100  1
  C  94  1  0.03577940  0.31772900  0.25683600  1
  C  95  1  0.04485440  0.29445400  0.28812800  1
  C  96  1  0.11708840  0.26312000  0.28697900  1
  C  99  1  0.27328640  0.23041900  0.25330000  1
  C  100  1  0.28466840  0.20597600  0.22224300  1
  C  101  1  0.38028700  0.18271800  0.21999600  1
  C  102  1  0.45334300  0.18038300  0.25050300  1
  C  103  1  0.43892200  0.20263300  0.28208700  1
  C  104  1  0.35299900  0.22898800  0.28217500  1
  C  113  1  0.50613400  0.19730300  0.31254900  1
  C  114  1  0.97593200  0.30279700  0.31769300  1
  C  115  1  0.08223740  0.33210300  0.19319400  1
  C  116  1  0.40320100  0.16110800  0.18913900  1
  C  121  1  0.30692500  0.75903400  0.24404400  1
  C  122  1  0.30317200  0.78501300  0.21468900  1
  C  123  1  0.37479100  0.81568000  0.21368500  1
  C  124  1  0.44578900  0.82203900  0.24393400  1
  C  125  1  0.44921800  0.79751300  0.27441200  1
  C  126  1  0.38212300  0.76485600  0.27422200  1
  C  129  1  0.23231540  0.72816500  0.24156100  1
  C  130  1  0.23194940  0.70332600  0.21066100  1
  C  131  1  0.14452340  0.67687400  0.20768300  1
  C  132  1  0.06695240  0.67298600  0.23676100  1
  C  133  1  0.07016540  0.69607300  0.26815300  1
  C  134  1  0.14989640  0.72458700  0.26934800  1
  C  143  1  0.99445400  0.69113100  0.29653800  1
  C  144  1  0.52518700  0.80575900  0.30206400  1
  C  145  1  0.38039500  0.83757700  0.18251600  1
  C  146  1  0.13050140  0.65484600  0.17669700  1
  C  151  1  0.80688600  0.74121500  0.75596800  1
  C  152  1  0.80274000  0.71510600  0.78519600  1
  C  153  1  0.87428100  0.68442500  0.78614200  1
  C  154  1  0.94563600  0.67818800  0.75596500  1
  C  155  1  0.94933800  0.70282200  0.72557500  1
  C  156  1  0.88228500  0.73549300  0.72582900  1
  C  159  1  0.73226100  0.77206800  0.75851600  1
  C  160  1  0.73150800  0.79673200  0.78955400  1
  C  161  1  0.64379100  0.82306000  0.79263400  1
  C  162  1  0.56625600  0.82700100  0.76355600  1
  C  163  1  0.56989800  0.80409900  0.73203400  1
  C  164  1  0.64997400  0.77570700  0.73069700  1
  C  173  1  0.49427700  0.80910700  0.70364700  1
  C  174  1  0.02570576  0.69470300  0.69799600  1
  C  175  1  0.87959400  0.66243700  0.81724300  1
  C  176  1  0.62913600  0.84483600  0.82376300  1
  C  181  1  0.43838000  0.50585900  0.50845800  1
  C  182  1  0.43772600  0.53491000  0.53479900  1
  C  183  1  0.36372200  0.53484400  0.56488000  1
  C  184  1  0.29557380  0.50368400  0.57039200  1
  C  185  1  0.29653680  0.47357600  0.54539200  1
  C  186  1  0.36492800  0.47501800  0.51313200  1
  C  189  1  0.51831800  0.50831700  0.47913600  1
  C  190  1  0.52325000  0.53878400  0.45381000  1
  C  191  1  0.61294400  0.54049700  0.42802700  1
  C  192  1  0.68822300  0.51058000  0.42535700  1
  C  193  1  0.68101100  0.47988800  0.44923500  1
  C  194  1  0.59925500  0.47992400  0.47702400  1
  C  203  1  0.75158300  0.45011800  0.44479700  1
  C  204  1  0.22467480  0.44463300  0.55304400  1
  C  205  1  0.35626100  0.56533600  0.58781700  1
  C  206  1  0.62850200  0.57041400  0.40448600  1
  C  211  1  0.93820000  0.99497400  0.49229700  1
  C  212  1  0.93624100  0.96585100  0.46603600  1
  C  213  1  0.86119300  0.96596700  0.43625100  1
  C  214  1  0.79339300  0.99722400  0.43087700  1
  C  215  1  0.79591000  0.02744300  0.45572500  1
  C  216  1  0.86518600  0.02595500  0.48777200  1
  C  219  1  0.01860600  0.99237000  0.52145800  1
  C  220  1  0.02328600  0.96192700  0.54681500  1
  C  221  1  0.11325600  0.96007600  0.57247000  1
  C  222  1  0.18894600  0.98987900  0.57506900  1
  C  223  1  0.18191700  0.02057200  0.55118700  1
  C  224  1  0.10002000  0.02062200  0.52344200  1
  C  233  1  0.25251900  0.05032100  0.55570300  1
  C  234  1  0.72445600  0.05651900  0.44819800  1
  C  235  1  0.85146400  0.93535600  0.41365100  1
  C  236  1  0.12858600  0.93021700  0.59603300  1
  C  241  1  0.47945100  0.85885500  0.86412600  1
  C  243  1  0.46385400  0.91109200  0.90467800  1
  C  244  1  0.34667100  0.90795400  0.90392200  1
  C  246  1  0.36245400  0.85549000  0.86380300  1
  C  247  1  0.30918900  0.83127100  0.84393600  1
  C  248  1  0.51640500  0.93769100  0.92139200  1
  C  253  1  0.98077100  0.64153300  0.13611000  1
  C  255  1  0.96390200  0.58952200  0.09533200  1
  C  256  1  0.84675500  0.59282900  0.09627500  1
  C  258  1  0.86384900  0.64513000  0.13656400  1
  C  259  1  0.81125600  0.66938500  0.15658300  1
  C  260  1  0.01592838  0.56289300  0.07847700  1
  C  265  1  0.17359380  0.40108200  0.59970800  1
  C  267  1  0.18091680  0.35080900  0.64312400  1
  C  268  1  0.06402780  0.35209900  0.64715600  1
  C  270  1  0.05652180  0.40215300  0.60361000  1
  C  271  1  0.99278100  0.42715300  0.58888300  1
  C  272  1  0.24552180  0.32999100  0.66301500  1
  C  277  1  0.67369000  0.10017200  0.40158900  1
  C  279  1  0.68200000  0.15000200  0.35770000  1
  C  280  1  0.56501200  0.14909500  0.35386400  1
  C  282  1  0.55653400  0.09950000  0.39792200  1
  C  283  1  0.49223800  0.07491200  0.41306200  1
  C  284  1  0.74710300  0.17032600  0.33747400  1
  C  289  1  0.02270876  0.64742400  0.86038200  1
  C  291  1  0.02988176  0.59372000  0.89926500  1
  C  292  1  0.14538480  0.59903600  0.90454800  1
  C  294  1  0.13780680  0.65285700  0.86595000  1
  C  295  1  0.19468980  0.67895700  0.84996300  1
  C  296  1  0.97500900  0.56549700  0.91201100  1
  C  301  1  0.52434100  0.85295500  0.13977100  1
  C  303  1  0.53133700  0.90667300  0.10089000  1
  C  304  1  0.64700800  0.90154300  0.09578200  1
  C  306  1  0.63955300  0.84767200  0.13433100  1
  C  307  1  0.69652000  0.82160400  0.15033600  1
  C  308  1  0.47623000  0.93482400  0.08809100  1
  C  313  1  0.31183200  0.09468800  0.60079900  1
  C  315  1  0.30486600  0.14326400  0.64600500  1
  C  316  1  0.42168000  0.14748600  0.64388200  1
  C  318  1  0.42849900  0.09904200  0.59844100  1
  C  319  1  0.49314000  0.07747500  0.57938000  1
  C  320  1  0.24196500  0.16023200  0.66980000  1
  C  325  1  0.81155600  0.40567300  0.39994500  1
  C  327  1  0.80510600  0.35699700  0.35484400  1
  C  328  1  0.92197700  0.35291200  0.35697500  1
  C  330  1  0.92826200  0.40147200  0.40230800  1
  C  331  1  0.99259400  0.42314000  0.42136900  1
  C  332  1  0.74236700  0.33997800  0.33103400  1
  C  337  1  0.55822900  0.14456600  0.15163900  1
  C  339  1  0.55966300  0.09897200  0.10352500  1
  C  340  1  0.67711000  0.09962500  0.10295900  1
  C  342  1  0.67563100  0.14572000  0.15057000  1
  C  343  1  0.73523200  0.16673500  0.17200100  1
  C  344  1  0.49996600  0.07749200  0.08257300  1
  C  349  1  0.05757780  0.35600900  0.84912200  1
  C  351  1  0.05959380  0.40143900  0.89739200  1
  C  352  1  0.17705580  0.40090000  0.89769000  1
  C  354  1  0.17500680  0.35497100  0.84991900  1
  C  355  1  0.23435580  0.33408100  0.82829000  1
  C  356  1  0.00009767  0.42280000  0.91854200  1
  C  361  1  0.78131900  0.60820700  0.38698900  1
  C  363  1  0.79418900  0.64666900  0.33304900  1
  C  364  1  0.91150100  0.64634500  0.33571900  1
  C  366  1  0.89845100  0.60833900  0.38984700  1
  C  367  1  0.95309300  0.58988500  0.41482400  1
  C  368  1  0.74029400  0.66248900  0.30620900  1
  C  373  1  0.28109400  0.89212000  0.61338700  1
  C  375  1  0.29411100  0.85371300  0.66734900  1
  C  376  1  0.41141400  0.85401200  0.66461500  1
  C  378  1  0.39819000  0.89190400  0.61041800  1
  C  379  1  0.45271800  0.91027900  0.58535200  1
  C  380  1  0.24027600  0.83797000  0.69424700  1
  C  385  1  0.92588000  0.35069600  0.15688400  1
  C  387  1  0.92327300  0.39669600  0.10918100  1
  C  388  1  0.80578700  0.39639400  0.10926500  1
  C  390  1  0.80841800  0.34992400  0.15650100  1
  C  391  1  0.74918300  0.32899500  0.17814200  1
  C  392  1  0.98237300  0.41821200  0.08808200  1
  C  397  1  0.42988500  0.14975200  0.84408600  1
  C  399  1  0.42489000  0.10378700  0.89180700  1
  C  400  1  0.30742500  0.10451000  0.89148600  1
  C  402  1  0.31244700  0.15095500  0.84423800  1
  C  403  1  0.25436700  0.17210100  0.82246500  1
  C  404  1  0.48291300  0.08207900  0.91304100  1
  C  409  1  0.70445500  0.89537700  0.39438300  1
  C  411  1  0.70204000  0.85753200  0.33983400  1
  C  412  1  0.58587400  0.85248700  0.34362300  1
  C  414  1  0.58865500  0.89010000  0.39822900  1
  C  415  1  0.52937200  0.90551600  0.42407800  1
  C  416  1  0.75983800  0.84492400  0.31221400  1
  C  421  1  0.20861280  0.60537600  0.60621100  1
  C  423  1  0.20413680  0.64325700  0.66071800  1
  C  424  1  0.08794680  0.64801400  0.65663900  1
  C  426  1  0.09283380  0.61042300  0.60202500  1
  C  427  1  0.03455580  0.59487100  0.57600700  1
  C  428  1  0.26106180  0.65596700  0.68849300  1
  H  7  1  0.98131300  0.05399000  0.03016500  1
  H  8  1  0.72191500  0.00175100  0.08665400  1
  H  15  1  0.26737500  0.00884100  0.91192800  1
  H  16  1  0.09350400  0.95353900  0.99561000  1
  H  19  1  0.90114100  0.94494200  0.96264900  1
  H  20  1  0.80829400  0.92271800  0.98744100  1
  H  21  1  0.95516200  0.08268700  0.93576500  1
  H  22  1  0.87970000  0.05923100  0.96543900  1
  H  27  1  0.30053700  0.93704100  0.97041200  1
  H  28  1  0.65272000  0.93653700  0.03070000  1
  H  29  1  0.87001900  0.06455100  0.10639400  1
  H  30  1  0.11523900  0.06933300  0.88543700  1
  H  37  1  0.48111200  0.44694700  0.96999900  1
  H  38  1  0.22084980  0.49883600  0.91362200  1
  H  45  1  0.76660100  0.49221400  0.08823600  1
  H  46  1  0.59268800  0.54743500  0.00450900  1
  H  49  1  0.40015100  0.55594700  0.03749300  1
  H  50  1  0.30683000  0.57802100  0.01276600  1
  H  51  1  0.45440300  0.41831100  0.06444400  1
  H  52  1  0.37896500  0.44174200  0.03474500  1
  H  57  1  0.79955900  0.56403300  0.02969500  1
  H  58  1  0.15093180  0.56390300  0.96950100  1
  H  59  1  0.36878600  0.43687700  0.89364500  1
  H  60  1  0.61289300  0.43106300  0.11456000  1
  H  67  1  0.73283400  0.21955700  0.79779800  1
  H  68  1  0.48126900  0.16056900  0.74419300  1
  H  75  1  0.01582676  0.33909500  0.75102500  1
  H  76  1  0.84388200  0.25463800  0.69625600  1
  H  79  1  0.65159100  0.28623000  0.68833600  1
  H  80  1  0.56307000  0.26034300  0.66543700  1
  H  81  1  0.70854300  0.31327100  0.82626500  1
  H  82  1  0.63306600  0.28355100  0.80287600  1
  H  87  1  0.05015580  0.28337400  0.67838200  1
  H  88  1  0.41304600  0.21425300  0.67747100  1
  H  89  1  0.61689600  0.14146000  0.80626000  1
  H  90  1  0.87160200  0.36496400  0.81109400  1
  H  97  1  0.23137040  0.28048200  0.20297200  1
  H  98  1  0.97858700  0.33882700  0.25664700  1
  H  105  1  0.51832000  0.16198700  0.24978700  1
  H  106  1  0.34561000  0.24628200  0.30454300  1
  H  109  1  0.15480140  0.21443100  0.31326000  1
  H  110  1  0.06598940  0.24023000  0.33612600  1
  H  111  1  0.20904740  0.18671100  0.17508800  1
  H  112  1  0.13322540  0.21630900  0.19848800  1
  H  117  1  0.55425100  0.21762000  0.32181700  1
  H  118  1  0.91400900  0.28576200  0.32401400  1
  H  119  1  0.11809040  0.35690600  0.19256900  1
  H  120  1  0.37326400  0.13550100  0.19016900  1
  H  127  1  0.25011440  0.78081800  0.19286100  1
  H  128  1  0.49848100  0.84437600  0.24302400  1
  H  135  1  0.00576738  0.65328800  0.23478200  1
  H  136  1  0.14941340  0.74254100  0.29132700  1
  H  139  1  0.35314900  0.71579200  0.30115300  1
  H  140  1  0.44215300  0.74274000  0.32260500  1
  H  141  1  0.31733500  0.68684700  0.16428800  1
  H  142  1  0.38008900  0.71959700  0.18784800  1
  H  147  1  0.95196500  0.71265200  0.30623700  1
  H  148  1  0.58686100  0.78820100  0.30719700  1
  H  149  1  0.36000700  0.86404300  0.18591500  1
  H  150  1  0.14677340  0.62803700  0.18001100  1
  H  157  1  0.74951400  0.71923200  0.80699300  1
  H  158  1  0.99825300  0.65583100  0.75684200  1
  H  165  1  0.50481300  0.84660100  0.76561700  1
  H  166  1  0.64971600  0.75785200  0.70863400  1
  H  169  1  0.85352700  0.78465300  0.69905300  1
  H  170  1  0.94263900  0.75777500  0.67756800  1
  H  171  1  0.81644700  0.81302600  0.83608000  1
  H  172  1  0.87962700  0.78046100  0.81237600  1
  H  177  1  0.45179700  0.78761400  0.69387800  1
  H  178  1  0.08722380  0.71235000  0.69296800  1
  H  179  1  0.86022600  0.63590400  0.81368200  1
  H  180  1  0.64831500  0.87150100  0.82087100  1
  H  187  1  0.49006100  0.55707600  0.53150400  1
  H  188  1  0.24233280  0.50349900  0.59259600  1
  H  195  1  0.74991500  0.51121400  0.40574800  1
  H  196  1  0.59609900  0.45810200  0.49515300  1
  H  199  1  0.39705500  0.44959200  0.46350300  1
  H  200  1  0.30869000  0.42679800  0.48954600  1
  H  201  1  0.44255600  0.58546800  0.43572300  1
  H  202  1  0.37546100  0.56297600  0.46827400  1
  H  207  1  0.79911800  0.44180500  0.46568100  1
  H  208  1  0.16159980  0.43969400  0.53602200  1
  H  209  1  0.38069300  0.56084800  0.61369400  1
  H  210  1  0.60671600  0.56579300  0.37835500  1
  H  217  1  0.98809600  0.94354700  0.46925900  1
  H  218  1  0.73930000  0.99742300  0.40890300  1
  H  225  1  0.25071600  0.98918500  0.59464700  1
  H  226  1  0.09689400  0.04247600  0.50535000  1
  H  229  1  0.89912500  0.05148800  0.53722600  1
  H  230  1  0.81052900  0.07437300  0.51136100  1
  H  231  1  0.94216000  0.91537900  0.56504000  1
  H  232  1  0.87490900  0.93793500  0.53258300  1
  H  237  1  0.30030300  0.05863800  0.53488200  1
  H  238  1  0.66182500  0.06161500  0.46535800  1
  H  239  1  0.88006300  0.93880100  0.38803200  1
  H  240  1  0.10741500  0.93447300  0.62228400  1
  N  17  1  0.85916800  0.94346400  0.98551000  1
  N  18  1  0.95043700  0.06204900  0.95290900  1
  N  47  1  0.35797700  0.55734700  0.01466900  1
  N  48  1  0.44968100  0.43894700  0.04729800  1
  N  77  1  0.61290600  0.26276300  0.68641200  1
  N  78  1  0.70397400  0.29595600  0.80577600  1
  N  107  1  0.11525240  0.23774800  0.31500400  1
  N  108  1  0.20429840  0.20401900  0.19558600  1
  N  137  1  0.39145300  0.73938900  0.30199700  1
  N  138  1  0.31462000  0.70425600  0.18474700  1
  N  167  1  0.89184900  0.76106200  0.69815700  1
  N  168  1  0.81401700  0.79573100  0.81551900  1
  N  197  1  0.35865200  0.44772200  0.48702800  1
  N  198  1  0.44240900  0.56534200  0.45353300  1
  N  227  1  0.86002300  0.05331800  0.51382900  1
  N  228  1  0.94192900  0.93554900  0.54727400  1
  N  242  1  0.52469100  0.88668200  0.88454600  1
  N  245  1  0.30168900  0.88077700  0.88276900  1
  N  249  1  0.56251800  0.96125500  0.93615300  1
  N  250  1  0.26255400  0.80996500  0.82622300  1
  N  251  1  0.54280500  0.83689600  0.84365700  1
  N  252  1  0.27760800  0.93365400  0.91592100  1
  N  254  1  0.02534538  0.61372200  0.11551000  1
  N  257  1  0.80248100  0.62002800  0.11756800  1
  N  261  1  0.06157340  0.53930400  0.06359600  1
  N  262  1  0.76521500  0.69072400  0.17443400  1
  N  263  1  0.04482740  0.66323900  0.15661200  1
  N  264  1  0.77739500  0.56724300  0.08423000  1
  N  266  1  0.22984080  0.37586400  0.62034700  1
  N  269  1  0.00832976  0.37838200  0.62780400  1
  N  273  1  0.30258780  0.31166900  0.68067600  1
  N  274  1  0.93633000  0.44923500  0.57593200  1
  N  275  1  0.23497980  0.42691700  0.58366400  1
  N  276  1  0.00647876  0.33643300  0.67402600  1
  N  278  1  0.73047400  0.12495000  0.38058500  1
  N  281  1  0.50875000  0.12325300  0.37362300  1
  N  285  1  0.80461600  0.18820600  0.31952300  1
  N  286  1  0.43527100  0.05319200  0.42637000  1
  N  287  1  0.73468300  0.07419100  0.41755600  1
  N  288  1  0.50761900  0.16489800  0.32704700  1
  N  290  1  0.97428600  0.61789200  0.87727600  1
  N  293  1  0.19402680  0.62796200  0.88690100  1
  N  297  1  0.92674200  0.54052200  0.92327400  1
  N  298  1  0.24464280  0.70193100  0.83567000  1
  N  299  1  0.96514500  0.66925800  0.83794000  1
  N  300  1  0.21335280  0.57459500  0.91966300  1
  N  302  1  0.47576500  0.88242300  0.12280800  1
  N  305  1  0.69571300  0.87264400  0.11345200  1
  N  309  1  0.42776500  0.95973500  0.07678500  1
  N  310  1  0.74653900  0.79865600  0.16464500  1
  N  311  1  0.46675000  0.83100800  0.16210700  1
  N  312  1  0.71470900  0.92606300  0.08065300  1
  N  314  1  0.25646700  0.11661900  0.62505900  1
  N  317  1  0.47765100  0.12440800  0.62080300  1
  N  321  1  0.18639000  0.17514200  0.69087300  1
  N  322  1  0.55035300  0.05838800  0.56260500  1
  N  323  1  0.25352400  0.06687200  0.58711700  1
  N  324  1  0.48344700  0.16528400  0.66837800  1
  N  326  1  0.75642200  0.38366500  0.37569000  1
  N  329  1  0.97765700  0.37608300  0.38003400  1
  N  333  1  0.68696300  0.32502100  0.30994500  1
  N  334  1  0.04951940  0.44232000  0.43814400  1
  N  335  1  0.75295400  0.43353400  0.41340200  1
  N  336  1  0.98360900  0.33499200  0.33254000  1
  N  338  1  0.50573500  0.12117600  0.12788700  1
  N  341  1  0.72970900  0.12312100  0.12657400  1
  N  345  1  0.44768800  0.05841500  0.06408500  1
  N  346  1  0.78750700  0.18528200  0.19102100  1
  N  347  1  0.50083000  0.16572100  0.17473100  1
  N  348  1  0.73380400  0.07821700  0.07995900  1
  N  350  1  0.00536576  0.37927100  0.87307000  1
  N  353  1  0.22937580  0.37753300  0.87387800  1
  N  357  1  0.94809300  0.44177800  0.93720200  1
  N  358  1  0.28640880  0.31564300  0.80909600  1
  N  359  1  0.99993767  0.33487000  0.82608700  1
  N  360  1  0.23406480  0.42223800  0.92067000  1
  N  362  1  0.73469600  0.62741100  0.35853300  1
  N  365  1  0.95786600  0.62652900  0.36364100  1
  N  369  1  0.69297200  0.67650000  0.28245800  1
  N  370  1  0.00092838  0.57344400  0.43684400  1
  N  371  1  0.71936300  0.58873600  0.41031400  1
  N  372  1  0.98013200  0.65854300  0.30990400  1
  N  374  1  0.23454300  0.87297900  0.64189300  1
  N  377  1  0.45769200  0.87372300  0.63660400  1
  N  381  1  0.19300800  0.82402600  0.71805300  1
  N  382  1  0.50046300  0.92664700  0.56325800  1
  N  383  1  0.21904800  0.91163500  0.59012800  1
  N  384  1  0.48000300  0.84173900  0.69039400  1
  N  386  1  0.97788200  0.37412600  0.13305400  1
  N  389  1  0.75380900  0.37287000  0.13300000  1
  N  393  1  0.03414440  0.43733100  0.06947800  1
  N  394  1  0.69725600  0.31054300  0.19736000  1
  N  395  1  0.98328800  0.32912500  0.17954300  1
  N  396  1  0.74813900  0.41816700  0.08686700  1
  N  398  1  0.48066600  0.12614500  0.86803400  1
  N  401  1  0.25664700  0.12821700  0.86763800  1
  N  405  1  0.53371800  0.06279100  0.93176400  1
  N  406  1  0.20346300  0.19073900  0.80312200  1
  N  407  1  0.48863700  0.17114500  0.82161600  1
  N  408  1  0.24869400  0.08302000  0.91385400  1
  N  410  1  0.75556900  0.87885100  0.36513000  1
  N  413  1  0.53474200  0.86967700  0.37234700  1
  N  417  1  0.81077800  0.83376900  0.28778800  1
  N  418  1  0.47731000  0.91927800  0.44685300  1
  N  419  1  0.76012000  0.91691500  0.41766100  1
  N  420  1  0.51960700  0.83709000  0.31876400  1
  N  422  1  0.25867980  0.62203500  0.63558600  1
  N  425  1  0.03788580  0.63073200  0.62775700  1
  N  429  1  0.31124000  0.66721000  0.71305300  1
  N  430  1  0.98339400  0.58098000  0.55308000  1
  N  431  1  0.26544480  0.58396300  0.58311900  1
  N  432  1  0.02095076  0.66333600  0.68133200  1
