# generated using pymatgen
data_Zn4H12C24O13
_symmetry_space_group_name_H-M   'P 1'
_cell_length_a   18.37162000
_cell_length_b   18.38148000
_cell_length_c   18.45616000
_cell_angle_alpha   60.30465000
_cell_angle_beta   60.19871000
_cell_angle_gamma   60.26426000
_symmetry_Int_Tables_number   1
_chemical_formula_structural   Zn4H12C24O13
_chemical_formula_sum   'Zn8 H24 C48 O26'
_cell_volume   4432.63165233
_cell_formula_units_Z   2
loop_
 _symmetry_equiv_pos_site_id
 _symmetry_equiv_pos_as_xyz
  1  'x, y, z'
loop_
 _atom_site_type_symbol
 _atom_site_label
 _atom_site_symmetry_multiplicity
 _atom_site_fract_x
 _atom_site_fract_y
 _atom_site_fract_z
 _atom_site_occupancy
  Zn  Zn1  1  0.20757000  0.20762000  0.20465000  1.0
  Zn  Zn2  1  0.20690000  0.20593000  0.38027000  1.0
  Zn  Zn3  1  0.38149000  0.20604000  0.20814000  1.0
  Zn  Zn4  1  0.20593000  0.38052000  0.20778000  1.0
  Zn  Zn5  1  0.79471000  0.79447000  0.79192000  1.0
  Zn  Zn6  1  0.79212000  0.79201000  0.62039000  1.0
  Zn  Zn7  1  0.79355000  0.61984000  0.79321000  1.0
  Zn  Zn8  1  0.61863000  0.79467000  0.79377000  1.0
  H  H1  1  0.03716000  0.05851000  0.33194000  1.0
  H  H2  1  0.05383000  0.04469000  0.56251000  1.0
  H  H3  1  0.56616000  0.33886000  0.07355000  1.0
  H  H4  1  0.33621000  0.56600000  0.03101000  1.0
  H  H5  1  0.33427000  0.05839000  0.56996000  1.0
  H  H6  1  0.56494000  0.02781000  0.33974000  1.0
  H  H7  1  0.04962000  0.33705000  0.04628000  1.0
  H  H8  1  0.05260000  0.57031000  0.04360000  1.0
  H  H9  1  0.56963000  0.03325000  0.06389000  1.0
  H  H10  1  0.33855000  0.06171000  0.03383000  1.0
  H  H11  1  0.04934000  0.33466000  0.56756000  1.0
  H  H12  1  0.06320000  0.56777000  0.33741000  1.0
  H  H13  1  0.95608000  0.94918000  0.65930000  1.0
  H  H14  1  0.93940000  0.96278000  0.42885000  1.0
  H  H15  1  0.66202000  0.43624000  0.97721000  1.0
  H  H16  1  0.43240000  0.66302000  0.93336000  1.0
  H  H17  1  0.96509000  0.66329000  0.43437000  1.0
  H  H18  1  0.95046000  0.43029000  0.66451000  1.0
  H  H19  1  0.66605000  0.93552000  0.96904000  1.0
  H  H20  1  0.43530000  0.96370000  0.93904000  1.0
  H  H21  1  0.95488000  0.43271000  0.94844000  1.0
  H  H22  1  0.95777000  0.66592000  0.94605000  1.0
  H  H23  1  0.66149000  0.92941000  0.43607000  1.0
  H  H24  1  0.43106000  0.96164000  0.66579000  1.0
  C  C1  1  0.11022000  0.11267000  0.38488000  1.0
  C  C2  1  0.38907000  0.38890000  0.11439000  1.0
  C  C3  1  0.38725000  0.10704000  0.39188000  1.0
  C  C4  1  0.11172000  0.39085000  0.10997000  1.0
  C  C5  1  0.39123000  0.11189000  0.11019000  1.0
  C  C6  1  0.11676000  0.38845000  0.38957000  1.0
  C  C7  1  0.88466000  0.89327000  0.60780000  1.0
  C  C8  1  0.60930000  0.61315000  0.89217000  1.0
  C  C9  1  0.89139000  0.60962000  0.61213000  1.0
  C  C10  1  0.61325000  0.88791000  0.89021000  1.0
  C  C11  1  0.89308000  0.61207000  0.88474000  1.0
  C  C12  1  0.60875000  0.88412000  0.61317000  1.0
  C  C13  1  0.01909000  0.03396000  0.40355000  1.0
  C  C14  1  0.02835000  0.02640000  0.53414000  1.0
  C  C15  1  0.53773000  0.40987000  0.04294000  1.0
  C  C16  1  0.40742000  0.53847000  0.01896000  1.0
  C  C17  1  0.40582000  0.03017000  0.54134000  1.0
  C  C18  1  0.53658000  0.01276000  0.41105000  1.0
  C  C19  1  0.02897000  0.40900000  0.02397000  1.0
  C  C20  1  0.03066000  0.54099000  0.02259000  1.0
  C  C21  1  0.54099000  0.01768000  0.03619000  1.0
  C  C22  1  0.41017000  0.03372000  0.01928000  1.0
  C  C23  1  0.03058000  0.40654000  0.53931000  1.0
  C  C24  1  0.03848000  0.53840000  0.40894000  1.0
  C  C25  1  0.97417000  0.97368000  0.58774000  1.0
  C  C26  1  0.96481000  0.98119000  0.45724000  1.0
  C  C27  1  0.59080000  0.46376000  0.98954000  1.0
  C  C28  1  0.46055000  0.59226000  0.96520000  1.0
  C  C29  1  0.98407000  0.59139000  0.46268000  1.0
  C  C30  1  0.97590000  0.45954000  0.59302000  1.0
  C  C31  1  0.59446000  0.96354000  0.98358000  1.0
  C  C32  1  0.46366000  0.97950000  0.96679000  1.0
  C  C33  1  0.97641000  0.46198000  0.96990000  1.0
  C  C34  1  0.97812000  0.59397000  0.96851000  1.0
  C  C35  1  0.58997000  0.95857000  0.46419000  1.0
  C  C36  1  0.45923000  0.97649000  0.59447000  1.0
  C  C37  1  0.05135000  0.05662000  0.44177000  1.0
  C  C38  1  0.44586000  0.44694000  0.05794000  1.0
  C  C39  1  0.44430000  0.04893000  0.44929000  1.0
  C  C40  1  0.05616000  0.44812000  0.05094000  1.0
  C  C41  1  0.44861000  0.05331000  0.05409000  1.0
  C  C42  1  0.06147000  0.44564000  0.44700000  1.0
  C  C43  1  0.94212000  0.95073000  0.54964000  1.0
  C  C44  1  0.55241000  0.55524000  0.95035000  1.0
  C  C45  1  0.95192000  0.55230000  0.55493000  1.0
  C  C46  1  0.55612000  0.94447000  0.94828000  1.0
  C  C47  1  0.95036000  0.55487000  0.94211000  1.0
  C  C48  1  0.55150000  0.94055000  0.55610000  1.0
  O  O1  1  0.25066000  0.24989000  0.25028000  1.0
  O  O2  1  0.74945000  0.75031000  0.75018000  1.0
  O  O3  1  0.13533000  0.13219000  0.30112000  1.0
  O  O4  1  0.13060000  0.13628000  0.42506000  1.0
  O  O5  1  0.42908000  0.30515000  0.14142000  1.0
  O  O6  1  0.30529000  0.42793000  0.13060000  1.0
  O  O7  1  0.30311000  0.12982000  0.43132000  1.0
  O  O8  1  0.42721000  0.12908000  0.30828000  1.0
  O  O9  1  0.13436000  0.30683000  0.13121000  1.0
  O  O10  1  0.13171000  0.43055000  0.13463000  1.0
  O  O11  1  0.43092000  0.13148000  0.13531000  1.0
  O  O12  1  0.30727000  0.13755000  0.12832000  1.0
  O  O13  1  0.13730000  0.30450000  0.42876000  1.0
  O  O14  1  0.13815000  0.42841000  0.30593000  1.0
  O  O15  1  0.86400000  0.87109000  0.69139000  1.0
  O  O16  1  0.86124000  0.87092000  0.56914000  1.0
  O  O17  1  0.69344000  0.57397000  0.87242000  1.0
  O  O18  1  0.56906000  0.69689000  0.86697000  1.0
  O  O19  1  0.87140000  0.69351000  0.57256000  1.0
  O  O20  1  0.86433000  0.57020000  0.69566000  1.0
  O  O21  1  0.69737000  0.86216000  0.87128000  1.0
  O  O22  1  0.57294000  0.87035000  0.86398000  1.0
  O  O23  1  0.87118000  0.57209000  0.86227000  1.0
  O  O24  1  0.87077000  0.69612000  0.86300000  1.0
  O  O25  1  0.69272000  0.85817000  0.57380000  1.0
  O  O26  1  0.56896000  0.86685000  0.69666000  1.0
