# generated using pymatgen
data_Zr3H14(C3O2)8
_symmetry_space_group_name_H-M   'P 1'
_cell_length_a   14.73994712
_cell_length_b   14.74898909
_cell_length_c   14.76190000
_cell_angle_alpha   90.27337398
_cell_angle_beta   119.77321874
_cell_angle_gamma   119.86656908
_symmetry_Int_Tables_number   1
_chemical_formula_structural   Zr3H14(C3O2)8
_chemical_formula_sum   'Zr6 H28 C48 O32'
_cell_volume   2276.18044938
_cell_formula_units_Z   2
loop_
 _symmetry_equiv_pos_site_id
 _symmetry_equiv_pos_as_xyz
  1  'x, y, z'
loop_
 _atom_site_type_symbol
 _atom_site_label
 _atom_site_symmetry_multiplicity
 _atom_site_fract_x
 _atom_site_fract_y
 _atom_site_fract_z
 _atom_site_occupancy
  Zr  Zr1  1  0.99967000  0.61969000  0.37953000  1.0
  Zr  Zr2  1  0.99894000  0.38076000  0.61850000  1.0
  Zr  Zr3  1  0.23800000  0.61921000  0.61830000  1.0
  Zr  Zr4  1  0.75987000  0.38013000  0.37868000  1.0
  Zr  Zr5  1  0.99908000  0.37952000  0.37910000  1.0
  Zr  Zr6  1  0.99775000  0.61932000  0.61793000  1.0
  H  H1  1  0.55945000  0.90348000  0.63187000  1.0
  H  H2  1  0.44385000  0.34143000  0.06694000  1.0
  H  H3  1  0.44363000  0.11272000  0.38680000  1.0
  H  H4  1  0.55855000  0.65538000  0.92287000  1.0
  H  H5  1  0.26683000  0.34034000  0.36358000  1.0
  H  H6  1  0.27034000  0.93380000  0.89840000  1.0
  H  H7  1  0.72695000  0.62842000  0.65734000  1.0
  H  H8  1  0.72922000  0.08710000  0.07822000  1.0
  H  H9  1  0.96568000  0.62722000  0.07003000  1.0
  H  H10  1  0.98813000  0.08170000  0.63814000  1.0
  H  H11  1  0.98847000  0.34970000  0.90666000  1.0
  H  H12  1  0.05925000  0.94324000  0.38844000  1.0
  H  H13  1  0.05932000  0.11425000  0.38748000  1.0
  H  H14  1  0.96608000  0.62906000  0.89928000  1.0
  H  H15  1  0.98766000  0.91065000  0.63918000  1.0
  H  H16  1  0.98663000  0.34732000  0.07640000  1.0
  H  H17  1  0.55571000  0.62819000  0.65709000  1.0
  H  H18  1  0.44285000  0.10311000  0.07044000  1.0
  H  H19  1  0.43812000  0.34005000  0.36480000  1.0
  H  H20  1  0.55693000  0.91824000  0.90572000  1.0
  H  H21  1  0.27276000  0.33921000  0.89582000  1.0
  H  H22  1  0.27300000  0.93948000  0.38394000  1.0
  H  H23  1  0.72953000  0.65747000  0.09341000  1.0
  H  H24  1  0.72957000  0.07529000  0.63283000  1.0
  H  H25  1  0.18846000  0.59353000  0.40540000  1.0
  H  H26  1  0.80999000  0.59353000  0.40543000  1.0
  H  H27  1  0.18421000  0.59500000  0.78101000  1.0
  H  H28  1  0.81021000  0.21744000  0.40365000  1.0
  C  C1  1  0.53549000  0.95007000  0.57884000  1.0
  C  C2  1  0.46745000  0.40977000  0.03483000  1.0
  C  C3  1  0.46739000  0.06590000  0.43955000  1.0
  C  C4  1  0.53464000  0.58730000  0.95528000  1.0
  C  C5  1  0.36768000  0.40237000  0.42767000  1.0
  C  C6  1  0.37086000  0.96797000  0.93850000  1.0
  C  C7  1  0.62604000  0.56581000  0.59412000  1.0
  C  C8  1  0.62855000  0.05271000  0.03785000  1.0
  C  C9  1  0.97062000  0.56723000  0.03323000  1.0
  C  C10  1  0.00437000  0.05070000  0.58465000  1.0
  C  C11  1  0.98315000  0.40965000  0.94307000  1.0
  C  C12  1  0.04395000  0.97455000  0.44263000  1.0
  C  C13  1  0.04418000  0.06904000  0.44219000  1.0
  C  C14  1  0.97088000  0.56821000  0.93906000  1.0
  C  C15  1  0.00394000  0.95615000  0.58502000  1.0
  C  C16  1  0.98256000  0.40857000  0.03705000  1.0
  C  C17  1  0.53148000  0.56570000  0.59383000  1.0
  C  C18  1  0.46605000  0.06150000  0.03348000  1.0
  C  C19  1  0.46233000  0.40238000  0.42819000  1.0
  C  C20  1  0.53332000  0.95929000  0.94274000  1.0
  C  C21  1  0.37279000  0.40856000  0.94021000  1.0
  C  C22  1  0.37324000  0.97054000  0.43847000  1.0
  C  C23  1  0.62943000  0.58840000  0.04977000  1.0
  C  C24  1  0.62954000  0.04515000  0.57953000  1.0
  C  C25  1  0.30504000  0.80756000  0.50389000  1.0
  C  C26  1  0.40663000  0.91164000  0.50750000  1.0
  C  C27  1  0.69676000  0.49987000  0.19219000  1.0
  C  C28  1  0.59628000  0.49962000  0.09037000  1.0
  C  C29  1  0.69577000  0.20029000  0.50433000  1.0
  C  C30  1  0.59580000  0.10267000  0.50875000  1.0
  C  C31  1  0.30416000  0.49798000  0.79985000  1.0
  C  C32  1  0.40570000  0.49768000  0.90010000  1.0
  C  C33  1  0.30152000  0.49085000  0.50460000  1.0
  C  C34  1  0.40203000  0.48527000  0.50947000  1.0
  C  C35  1  0.30200000  0.81070000  0.79591000  1.0
  C  C36  1  0.40390000  0.91540000  0.89347000  1.0
  C  C37  1  0.69321000  0.49152000  0.50473000  1.0
  C  C38  1  0.59184000  0.48541000  0.50998000  1.0
  C  C39  1  0.69614000  0.19979000  0.18980000  1.0
  C  C40  1  0.59513000  0.10321000  0.08463000  1.0
  C  C41  1  0.98665000  0.49231000  0.18870000  1.0
  C  C42  1  0.97838000  0.48848000  0.08361000  1.0
  C  C43  1  0.01276000  0.20265000  0.50630000  1.0
  C  C44  1  0.02232000  0.10648000  0.51200000  1.0
  C  C45  1  0.98669000  0.49499000  0.79728000  1.0
  C  C46  1  0.97914000  0.49045000  0.89455000  1.0
  C  C47  1  0.01192000  0.81067000  0.50707000  1.0
  C  C48  1  0.02164000  0.91655000  0.51260000  1.0
  O  O1  1  0.13398000  0.56642000  0.43142000  1.0
  O  O2  1  0.86415000  0.56723000  0.43164000  1.0
  O  O3  1  0.86450000  0.29789000  0.43113000  1.0
  O  O4  1  0.13226000  0.56781000  0.70074000  1.0
  O  O5  1  0.09832000  0.45009000  0.54848000  1.0
  O  O6  1  0.89848000  0.44972000  0.54800000  1.0
  O  O7  1  0.09768000  0.64836000  0.54808000  1.0
  O  O8  1  0.89952000  0.44993000  0.34895000  1.0
  O  O9  1  0.18868000  0.76705000  0.42552000  1.0
  O  O10  1  0.81358000  0.57884000  0.23408000  1.0
  O  O11  1  0.81253000  0.23796000  0.57881000  1.0
  O  O12  1  0.18763000  0.42119000  0.76074000  1.0
  O  O13  1  0.33936000  0.57073000  0.57928000  1.0
  O  O14  1  0.33920000  0.76852000  0.75811000  1.0
  O  O15  1  0.65621000  0.41754000  0.42458000  1.0
  O  O16  1  0.65871000  0.23844000  0.23102000  1.0
  O  O17  1  0.99187000  0.41772000  0.23040000  1.0
  O  O18  1  0.00749000  0.23849000  0.42633000  1.0
  O  O19  1  0.99102000  0.57445000  0.76041000  1.0
  O  O20  1  0.00198000  0.76648000  0.57899000  1.0
  O  O21  1  0.00648000  0.23966000  0.58020000  1.0
  O  O22  1  0.99135000  0.42017000  0.75951000  1.0
  O  O23  1  0.01053000  0.77040000  0.42901000  1.0
  O  O24  1  0.99123000  0.57188000  0.23083000  1.0
  O  O25  1  0.18524000  0.41726000  0.42416000  1.0
  O  O26  1  0.81244000  0.23562000  0.23209000  1.0
  O  O27  1  0.80912000  0.57218000  0.57850000  1.0
  O  O28  1  0.18562000  0.76946000  0.75905000  1.0
  O  O29  1  0.34135000  0.57636000  0.76148000  1.0
  O  O30  1  0.34199000  0.76549000  0.57841000  1.0
  O  O31  1  0.65859000  0.42213000  0.23088000  1.0
  O  O32  1  0.65734000  0.23707000  0.42511000  1.0
