# generated using pymatgen
data_MgH4(C2O)4
_symmetry_space_group_name_H-M   'P 1'
_cell_length_a   9.82100000
_cell_length_b   15.07600000
_cell_length_c   16.55500000
_cell_angle_alpha   111.21000000
_cell_angle_beta   90.00000000
_cell_angle_gamma   90.00000000
_symmetry_Int_Tables_number   1
_chemical_formula_structural   MgH4(C2O)4
_chemical_formula_sum   'Mg6 H24 C48 O24'
_cell_volume   2285.11672176
_cell_formula_units_Z   6
loop_
 _symmetry_equiv_pos_site_id
 _symmetry_equiv_pos_as_xyz
  1  'x, y, z'
loop_
 _atom_site_type_symbol
 _atom_site_label
 _atom_site_symmetry_multiplicity
 _atom_site_fract_x
 _atom_site_fract_y
 _atom_site_fract_z
 _atom_site_occupancy
  Mg  Mg1  1  0.08092000  0.34513000  0.11278000  1.0
  Mg  Mg2  1  0.58092000  0.15487000  0.38722000  1.0
  Mg  Mg3  1  0.91908000  0.65487000  0.88722000  1.0
  Mg  Mg4  1  0.41908000  0.84513000  0.61278000  1.0
  Mg  Mg5  1  0.00000000  0.50000000  0.00000000  1.0
  Mg  Mg6  1  0.50000000  0.00000000  0.50000000  1.0
  H  H1  1  0.73490000  0.32640000  0.85020000  1.0
  H  H2  1  0.62120000  0.21700000  0.73160000  1.0
  H  H3  1  0.68800000  0.01230000  0.82970000  1.0
  H  H4  1  0.80840000  0.12130000  0.94530000  1.0
  H  H5  1  0.50480000  0.51060000  0.14430000  1.0
  H  H6  1  0.30650000  0.43910000  0.91380000  1.0
  H  H7  1  0.23490000  0.17360000  0.64980000  1.0
  H  H8  1  0.12120000  0.28300000  0.76840000  1.0
  H  H9  1  0.18800000  0.48770000  0.67030000  1.0
  H  H10  1  0.30840000  0.37870000  0.55470000  1.0
  H  H11  1  0.00480000  0.98940000  0.35570000  1.0
  H  H12  1  0.80650000  0.06090000  0.58620000  1.0
  H  H13  1  0.26510000  0.67360000  0.14980000  1.0
  H  H14  1  0.37880000  0.78300000  0.26840000  1.0
  H  H15  1  0.31200000  0.98770000  0.17030000  1.0
  H  H16  1  0.19160000  0.87870000  0.05470000  1.0
  H  H17  1  0.49520000  0.48940000  0.85570000  1.0
  H  H18  1  0.69350000  0.56090000  0.08620000  1.0
  H  H19  1  0.76510000  0.82640000  0.35020000  1.0
  H  H20  1  0.87880000  0.71700000  0.23160000  1.0
  H  H21  1  0.81200000  0.51230000  0.32970000  1.0
  H  H22  1  0.69160000  0.62130000  0.44530000  1.0
  H  H23  1  0.99520000  0.01060000  0.64430000  1.0
  H  H24  1  0.19350000  0.93910000  0.41380000  1.0
  C  C1  1  0.86610000  0.30590000  0.98070000  1.0
  C  C2  1  0.78330000  0.23380000  0.90820000  1.0
  C  C3  1  0.72680000  0.26200000  0.84580000  1.0
  C  C4  1  0.65720000  0.19690000  0.77540000  1.0
  C  C5  1  0.64070000  0.10380000  0.76920000  1.0
  C  C6  1  0.69760000  0.07630000  0.83300000  1.0
  C  C7  1  0.76930000  0.14140000  0.90230000  1.0
  C  C8  1  0.56700000  0.03340000  0.69090000  1.0
  C  C9  1  0.26400000  0.43930000  0.07380000  1.0
  C  C10  1  0.38600000  0.47230000  0.03650000  1.0
  C  C11  1  0.50250000  0.50680000  0.08580000  1.0
  C  C12  1  0.38420000  0.46410000  0.94880000  1.0
  C  C13  1  0.36610000  0.19410000  0.51930000  1.0
  C  C14  1  0.28330000  0.26620000  0.59180000  1.0
  C  C15  1  0.22680000  0.23800000  0.65420000  1.0
  C  C16  1  0.15720000  0.30310000  0.72460000  1.0
  C  C17  1  0.14070000  0.39620000  0.73080000  1.0
  C  C18  1  0.19760000  0.42370000  0.66700000  1.0
  C  C19  1  0.26930000  0.35860000  0.59770000  1.0
  C  C20  1  0.06700000  0.46660000  0.80910000  1.0
  C  C21  1  0.76400000  0.06070000  0.42620000  1.0
  C  C22  1  0.88600000  0.02770000  0.46350000  1.0
  C  C23  1  0.00250000  0.99320000  0.41420000  1.0
  C  C24  1  0.88420000  0.03590000  0.55120000  1.0
  C  C25  1  0.13390000  0.69410000  0.01930000  1.0
  C  C26  1  0.21670000  0.76620000  0.09180000  1.0
  C  C27  1  0.27320000  0.73800000  0.15420000  1.0
  C  C28  1  0.34280000  0.80310000  0.22460000  1.0
  C  C29  1  0.35930000  0.89620000  0.23080000  1.0
  C  C30  1  0.30240000  0.92370000  0.16700000  1.0
  C  C31  1  0.23070000  0.85860000  0.09770000  1.0
  C  C32  1  0.43300000  0.96660000  0.30910000  1.0
  C  C33  1  0.73600000  0.56070000  0.92620000  1.0
  C  C34  1  0.61400000  0.52770000  0.96350000  1.0
  C  C35  1  0.49750000  0.49320000  0.91420000  1.0
  C  C36  1  0.61580000  0.53590000  0.05120000  1.0
  C  C37  1  0.63390000  0.80590000  0.48070000  1.0
  C  C38  1  0.71670000  0.73380000  0.40820000  1.0
  C  C39  1  0.77320000  0.76200000  0.34580000  1.0
  C  C40  1  0.84280000  0.69690000  0.27540000  1.0
  C  C41  1  0.85930000  0.60380000  0.26920000  1.0
  C  C42  1  0.80240000  0.57630000  0.33300000  1.0
  C  C43  1  0.73070000  0.64140000  0.40230000  1.0
  C  C44  1  0.93300000  0.53340000  0.19090000  1.0
  C  C45  1  0.23600000  0.93930000  0.57380000  1.0
  C  C46  1  0.11400000  0.97230000  0.53650000  1.0
  C  C47  1  0.99750000  0.00680000  0.58580000  1.0
  C  C48  1  0.11580000  0.96410000  0.44880000  1.0
  O  O1  1  0.92680000  0.27490000  0.03316000  1.0
  O  O2  1  0.87000000  0.38833000  0.98198000  1.0
  O  O3  1  0.54870000  0.06071000  0.62820000  1.0
  O  O4  1  0.53270000  0.95466000  0.69461000  1.0
  O  O5  1  0.27550000  0.42380000  0.14383000  1.0
  O  O6  1  0.15390000  0.41998000  0.03166000  1.0
  O  O7  1  0.42680000  0.22510000  0.46684000  1.0
  O  O8  1  0.37000000  0.11167000  0.51802000  1.0
  O  O9  1  0.04870000  0.43929000  0.87180000  1.0
  O  O10  1  0.03270000  0.54534000  0.80539000  1.0
  O  O11  1  0.77550000  0.07620000  0.35617000  1.0
  O  O12  1  0.65390000  0.08002000  0.46834000  1.0
  O  O13  1  0.07320000  0.72510000  0.96684000  1.0
  O  O14  1  0.13000000  0.61167000  0.01802000  1.0
  O  O15  1  0.45130000  0.93929000  0.37180000  1.0
  O  O16  1  0.46730000  0.04534000  0.30539000  1.0
  O  O17  1  0.72450000  0.57620000  0.85617000  1.0
  O  O18  1  0.84610000  0.58002000  0.96834000  1.0
  O  O19  1  0.57320000  0.77490000  0.53316000  1.0
  O  O20  1  0.63000000  0.88833000  0.48198000  1.0
  O  O21  1  0.95130000  0.56071000  0.12820000  1.0
  O  O22  1  0.96730000  0.45466000  0.19461000  1.0
  O  O23  1  0.22450000  0.92380000  0.64383000  1.0
  O  O24  1  0.34610000  0.91998000  0.53166000  1.0
