# generated using pymatgen
data_Cr6H42C70SO29
_symmetry_space_group_name_H-M   'P 1'
_cell_length_a   10.93120000
_cell_length_b   10.97481208
_cell_length_c   18.78728000
_cell_angle_alpha   89.54438630
_cell_angle_beta   89.89476000
_cell_angle_gamma   60.78929219
_symmetry_Int_Tables_number   1
_chemical_formula_structural   Cr6H42C70SO29
_chemical_formula_sum   'Cr6 H42 C70 S1 O29'
_cell_volume   1967.17966090
_cell_formula_units_Z   1
loop_
 _symmetry_equiv_pos_site_id
 _symmetry_equiv_pos_as_xyz
  1  'x, y, z'
loop_
 _atom_site_type_symbol
 _atom_site_label
 _atom_site_symmetry_multiplicity
 _atom_site_fract_x
 _atom_site_fract_y
 _atom_site_fract_z
 _atom_site_occupancy
  Cr  Cr0  1  0.79089000  0.60706000  0.50223000  1
  Cr  Cr1  1  0.10690000  0.60160000  0.50126000  1
  Cr  Cr2  1  0.10217000  0.29136000  0.49646000  1
  Cr  Cr3  1  0.87620000  0.06212000  0.00762000  1
  Cr  Cr4  1  0.56278000  0.37444000  0.99451000  1
  Cr  Cr5  1  0.56309000  0.06192000  0.00119000  1
  H  H6  1  0.50591000  0.39950000  0.78896000  1
  H  H7  1  0.00435000  0.08465000  0.61067000  1
  H  H8  1  0.07498000  0.74524000  0.70302000  1
  H  H9  1  0.32492000  0.52115000  0.80641000  1
  H  H10  1  0.63767000  0.77058000  0.89247000  1
  H  H11  1  0.06205000  0.77043000  0.82970000  1
  H  H12  1  0.43785000  0.79176000  0.82777000  1
  H  H13  1  0.41619000  0.83760000  0.69737000  1
  H  H14  1  0.59792000  0.85512000  0.63284000  1
  H  H15  1  0.43531000  0.45314000  0.33049000  1
  H  H16  1  0.21750000  0.20575000  0.12841000  1
  H  H17  1  0.15132000  0.28151000  0.70469000  1
  H  H18  1  0.49802000  0.42108000  0.20260000  1
  H  H19  1  0.17190000  0.03301000  0.18272000  1
  H  H20  1  0.23366000  0.96266000  0.30701000  1
  H  H21  1  0.28536000  0.54430000  0.68713000  1
  H  H22  1  0.96387000  0.14143000  0.32275000  1
  H  H23  1  0.72814000  0.59533000  0.10726000  1
  H  H24  1  0.94319000  0.11698000  0.19578000  1
  H  H25  1  0.52348000  0.80327000  0.15333000  1
  H  H26  1  0.44006000  0.79413000  0.27385000  1
  H  H27  1  0.55859000  0.59369000  0.35029000  1
  H  H28  1  0.46267000  0.07632000  0.79153000  1
  H  H29  1  0.63624000  0.92350000  0.33100000  1
  H  H30  1  0.05583000  0.66864000  0.10421000  1
  H  H31  1  0.59907000  0.96333000  0.20462000  1
  H  H32  1  0.46319000  0.41579000  0.66960000  1
  H  H33  1  0.28950000  0.61541000  0.14388000  1
  H  H34  1  0.32433000  0.66921000  0.26691000  1
  H  H35  1  0.13675000  0.77096000  0.34902000  1
  H  H36  1  0.58604000  0.13760000  0.77805000  1
  H  H37  1  0.53359000  0.16035000  0.65913000  1
  H  H38  1  0.20568000  0.25049000  0.82203000  1
  H  H39  1  0.40691000  0.10366000  0.67515000  1
  H  H40  1  0.15102000  0.43316000  0.82942000  1
  H  H41  1  0.10032000  0.46289000  0.71068000  1
  H  H42  1  0.52467000  0.78272000  0.44717000  1
  H  H43  1  0.68385000  0.54986000  0.69722000  1
  H  H44  1  0.08128000  0.06325000  0.87065000  1
  H  H45  1  0.69378000  0.52909000  0.82151000  1
  H  H46  1  0.21907000  0.86266000  0.79681000  1
  H  H47  1  0.18583000  0.87480000  0.66676000  1
  C  C48  1  0.88458000  0.75923000  0.61107000  1
  C  C49  1  0.75700000  0.44919000  0.71934000  1
  C  C50  1  0.76571000  0.43887000  0.79164000  1
  C  C51  1  0.27672000  0.34608000  0.60060000  1
  C  C52  1  0.05672000  0.07275000  0.81464000  1
  C  C53  1  0.14126000  0.95852000  0.77238000  1
  C  C54  1  0.12209000  0.96506000  0.69915000  1
  C  C55  1  0.01968000  0.08676000  0.66736000  1
  C  C56  1  0.84308000  0.33591000  0.67649000  1
  C  C57  1  0.85017000  0.80665000  0.83782000  1
  C  C58  1  0.74002000  0.80275000  0.80009000  1
  C  C59  1  0.22264000  0.33589000  0.80051000  1
  C  C60  1  0.73809000  0.80907000  0.72445000  1
  C  C61  1  0.97690000  0.77026000  0.72818000  1
  C  C62  1  0.97198000  0.77885000  0.80150000  1
  C  C63  1  0.85627000  0.37162000  0.60281000  1
  C  C64  1  0.63179000  0.79279000  0.83600000  1
  C  C65  1  0.51747000  0.80261000  0.79901000  1
  C  C66  1  0.50694000  0.82579000  0.72592000  1
  C  C67  1  0.61500000  0.83078000  0.68888000  1
  C  C68  1  0.85975000  0.79189000  0.68787000  1
  C  C69  1  0.39834000  0.29553000  0.18309000  1
  C  C70  1  0.37599000  0.30038000  0.81154000  1
  C  C71  1  0.34081000  0.21800000  0.21722000  1
  C  C72  1  0.36102000  0.19206000  0.29115000  1
  C  C73  1  0.41868000  0.38005000  0.29934000  1
  C  C74  1  0.44699000  0.36728000  0.22618000  1
  C  C75  1  0.87758000  0.77233000  0.39885000  1
  C  C76  1  0.26055000  0.16867000  0.18086000  1
  C  C77  1  0.22595000  0.07559000  0.21295000  1
  C  C78  1  0.26364000  0.03416000  0.28286000  1
  C  C79  1  0.34422000  0.07831000  0.32079000  1
  C  C80  1  0.36500000  0.30095000  0.33146000  1
  C  C81  1  0.31900000  0.32990000  0.67586000  1
  C  C82  1  0.82695000  0.34122000  0.17355000  1
  C  C83  1  0.75837000  0.47234000  0.20396000  1
  C  C84  1  0.72887000  0.47807000  0.27672000  1
  C  C85  1  0.90048000  0.23311000  0.29037000  1
  C  C86  1  0.89689000  0.22115000  0.21735000  1
  C  C87  1  0.27845000  0.34947000  0.39673000  1
  C  C88  1  0.69596000  0.59479000  0.16179000  1
  C  C89  1  0.58039000  0.71251000  0.18725000  1
  C  C90  1  0.53432000  0.70970000  0.25556000  1
  C  C91  1  0.60641000  0.59470000  0.30013000  1
  C  C92  1  0.43926000  0.18123000  0.69080000  1
  C  C93  1  0.81611000  0.36203000  0.32128000  1
  C  C94  1  0.81925000  0.83650000  0.17878000  1
  C  C95  1  0.95519000  0.75765000  0.20541000  1
  C  C96  1  0.97675000  0.76965000  0.27785000  1
  C  C97  1  0.72459000  0.88001000  0.29672000  1
  C  C98  1  0.70429000  0.89741000  0.22451000  1
  C  C99  1  0.84476000  0.38521000  0.39449000  1
  C  C100  1  0.07052000  0.68817000  0.15914000  1
  C  C101  1  0.20313000  0.65810000  0.18105000  1
  C  C102  1  0.22270000  0.68938000  0.24997000  1
  C  C103  1  0.18823000  0.35550000  0.72067000  1
  C  C104  1  0.11277000  0.74246000  0.29835000  1
  C  C105  1  0.85880000  0.81604000  0.32463000  1
  C  C106  1  0.80606000  0.29807000  0.89671000  1
  C  C107  1  0.41340000  0.27564000  0.88771000  1
  C  C108  1  0.82474000  0.87838000  0.90685000  1
  C  C109  1  0.78513000  0.32315000  0.10301000  1
  C  C110  1  0.43953000  0.27220000  0.10677000  1
  C  C111  1  0.39657000  0.42092000  0.77979000  1
  C  C112  1  0.80279000  0.90213000  0.11063000  1
  C  C113  1  0.36702000  0.43545000  0.69920000  1
  C  C114  1  0.85290000  0.31230000  0.82534000  1
  C  C115  1  0.47456000  0.16458000  0.77046000  1
  C  C116  1  0.94908000  0.19673000  0.78396000  1
  C  C117  1  0.93717000  0.20638000  0.70847000  1
  S  S118  1  0.41100000  0.99259000  0.40593000  1
  O  O119  1  0.76303000  0.49266000  0.58143000  1
  O  O120  1  0.43053000  0.16271000  0.91524000  1
  O  O121  1  0.70063000  0.93468000  0.93158000  1
  O  O122  1  0.80774000  0.71964000  0.57891000  1
  O  O123  1  0.89709000  0.93153000  0.09185000  1
  O  O124  1  0.85635000  0.20085000  0.07935000  1
  O  O125  1  0.66540000  0.41478000  0.07677000  1
  O  O126  1  0.43665000  0.37283000  0.06705000  1
  O  O127  1  0.41261000  0.18380000  0.07650000  1
  O  O128  1  0.68401000  0.95423000  0.08107000  1
  O  O129  1  0.66736000  0.16616000  0.00111000  1
  O  O130  1  0.22033000  0.47549000  0.42405000  1
  O  O131  1  0.00021000  0.73940000  0.58458000  1
  O  O132  1  0.22742000  0.46763000  0.57383000  1
  O  O133  1  0.24828000  0.25515000  0.57638000  1
  O  O134  1  0.97558000  0.30092000  0.57195000  1
  O  O135  1  0.75538000  0.50114000  0.41986000  1
  O  O136  1  0.80064000  0.72751000  0.42914000  1
  O  O137  1  0.99255000  0.74789000  0.42301000  1
  O  O138  1  0.49521000  0.04934000  0.44203000  1
  O  O139  1  0.28965000  0.01535000  0.45257000  1
  O  O140  1  0.51247000  0.82017000  0.39799000  1
  O  O141  1  0.24063000  0.26363000  0.41481000  1
  O  O142  1  0.96849000  0.30878000  0.42218000  1
  O  O143  1  0.99998000  0.50001000  0.49998000  1
  O  O144  1  0.91502000  0.91043000  0.93059000  1
  O  O145  1  0.87296000  0.18130000  0.92986000  1
  O  O146  1  0.68332000  0.39369000  0.91552000  1
  O  O147  1  0.45327000  0.35327000  0.91756000  1
