# generated using pymatgen
data_SiH22C36(NO2)2
_symmetry_space_group_name_H-M   'P 1'
_cell_length_a   32.93180000
_cell_length_b   32.93190000
_cell_length_c   42.84710000
_cell_angle_alpha   89.98240000
_cell_angle_beta   90.01760000
_cell_angle_gamma   90.00000000
_symmetry_Int_Tables_number   1
_chemical_formula_structural   SiH22C36(NO2)2
_chemical_formula_sum   'Si8 H176 C288 N16 O32'
_cell_volume   46467.96454420
_cell_formula_units_Z   8
loop_
 _symmetry_equiv_pos_site_id
 _symmetry_equiv_pos_as_xyz
  1  'x, y, z'
loop_
 _atom_site_type_symbol
 _atom_site_label
 _atom_site_symmetry_multiplicity
 _atom_site_fract_x
 _atom_site_fract_y
 _atom_site_fract_z
 _atom_site_occupancy
  Si  7  1  0.74354900  0.02006800  0.67360700  1
  Si  48  1  0.30148100  0.02435500  0.67367700  1
  Si  89  1  0.01983700  0.30116500  0.17376700  1
  Si  130  1  0.02458000  0.74323000  0.17354000  1
  Si  171  1  0.74333400  0.02049700  0.32957600  1
  Si  212  1  0.30117100  0.02388200  0.32963200  1
  Si  253  1  0.02391000  0.74302500  0.82950700  1
  Si  294  1  0.02073300  0.30080900  0.82974400  1
  H  26  1  0.83854400  0.90967800  0.67060300  1
  H  27  1  0.79837500  0.96096500  0.64685800  1
  H  28  1  0.78841400  0.93838700  0.75847400  1
  H  29  1  0.74800700  0.98990900  0.73513000  1
  H  30  1  0.72399100  0.07920100  0.72141600  1
  H  31  1  0.76456900  0.12866300  0.74665500  1
  H  32  1  0.86486900  0.09504900  0.69099900  1
  H  33  1  0.82468300  0.04535900  0.66561600  1
  H  34  1  0.76725200  0.08143000  0.62872900  1
  H  35  1  0.76629700  0.08166200  0.57349700  1
  H  36  1  0.71528400  0.96404100  0.57333600  1
  H  37  1  0.71650800  0.96317700  0.62879600  1
  H  38  1  0.68776500  0.96037500  0.69864500  1
  H  39  1  0.68474200  0.08097600  0.66395400  1
  H  40  1  0.61304200  0.08209400  0.67092500  1
  H  41  1  0.61643600  0.96244200  0.70617400  1
  H  67  1  0.20731300  0.13537600  0.67138700  1
  H  68  1  0.24734700  0.08438700  0.64730200  1
  H  69  1  0.25723300  0.10528200  0.75908300  1
  H  70  1  0.29759200  0.05405900  0.73537300  1
  H  71  1  0.32105600  0.96454400  0.72099600  1
  H  72  1  0.28021800  0.91563700  0.74657600  1
  H  73  1  0.17939400  0.95100900  0.69206100  1
  H  74  1  0.21985800  0.00018700  0.66634600  1
  H  75  1  0.27593800  0.96386300  0.62868200  1
  H  76  1  0.27644100  0.96400100  0.57344800  1
  H  77  1  0.32993400  0.08051400  0.57348100  1
  H  78  1  0.32916600  0.08102300  0.62895000  1
  H  79  1  0.35839400  0.08241000  0.69962500  1
  H  80  1  0.35929000  0.96298700  0.66266100  1
  H  81  1  0.43089800  0.96055600  0.66917000  1
  H  82  1  0.42965600  0.07907000  0.70670800  1
  H  108  1  0.90873000  0.20701800  0.17069000  1
  H  109  1  0.96008300  0.24702800  0.14696200  1
  H  110  1  0.93832000  0.25630300  0.25868200  1
  H  111  1  0.98990700  0.29658900  0.23534400  1
  H  112  1  0.07959400  0.32073500  0.22117700  1
  H  113  1  0.12897900  0.28004700  0.24639500  1
  H  114  1  0.09396000  0.17939800  0.19161100  1
  H  115  1  0.04435400  0.21971200  0.16623000  1
  H  116  1  0.08069600  0.27622300  0.12886500  1
  H  117  1  0.08070700  0.27677000  0.07362900  1
  H  118  1  0.96401400  0.32985900  0.07346800  1
  H  119  1  0.96331700  0.32897100  0.12894200  1
  H  120  1  0.96076600  0.35726800  0.19927800  1
  H  121  1  0.08085200  0.35968700  0.16359300  1
  H  122  1  0.08240400  0.43137800  0.17049400  1
  H  123  1  0.96327900  0.42857900  0.20675100  1
  H  149  1  0.13569000  0.83733300  0.17117800  1
  H  150  1  0.08459600  0.79735100  0.14712300  1
  H  151  1  0.10554200  0.78763700  0.25892300  1
  H  152  1  0.05420800  0.74736100  0.23525300  1
  H  153  1  0.96481900  0.72355900  0.22086400  1
  H  154  1  0.91581200  0.76432900  0.24639000  1
  H  155  1  0.95096100  0.86515500  0.19181400  1
  H  156  1  0.00022800  0.82476600  0.16614600  1
  H  157  1  0.96383000  0.76830500  0.12858700  1
  H  158  1  0.96367900  0.76739400  0.07336800  1
  H  159  1  0.08054900  0.71468700  0.07332300  1
  H  160  1  0.08129400  0.71577200  0.12878100  1
  H  161  1  0.08280400  0.68653600  0.19961200  1
  H  162  1  0.96342000  0.68520800  0.16251500  1
  H  163  1  0.96125500  0.61357600  0.16901500  1
  H  164  1  0.07967600  0.61524900  0.20675800  1
  H  190  1  0.86273900  0.09875000  0.31303600  1
  H  191  1  0.82316700  0.04900600  0.33896600  1
  H  192  1  0.76357400  0.12651200  0.25429500  1
  H  193  1  0.72364300  0.07690900  0.28001400  1
  H  194  1  0.74602500  0.98878800  0.26838000  1
  H  195  1  0.78722600  0.93809800  0.24481500  1
  H  196  1  0.84241200  0.91387500  0.33173500  1
  H  197  1  0.80165400  0.96445600  0.35562300  1
  H  198  1  0.72134800  0.96162400  0.37458500  1
  H  199  1  0.72115300  0.96239000  0.43008700  1
  H  200  1  0.76063900  0.08433700  0.42940100  1
  H  201  1  0.76151500  0.08386400  0.37407000  1
  H  202  1  0.68426500  0.08154400  0.33756100  1
  H  203  1  0.68781800  0.95915500  0.30688900  1
  H  204  1  0.61634300  0.96046200  0.29946000  1
  H  205  1  0.61256300  0.08200800  0.33057800  1
  H  231  1  0.18078500  0.94722400  0.31260000  1
  H  232  1  0.22061100  0.99697700  0.33830000  1
  H  233  1  0.28062900  0.91666700  0.25543400  1
  H  234  1  0.32081300  0.96621400  0.28095000  1
  H  235  1  0.29879000  0.05495900  0.26818400  1
  H  236  1  0.25798100  0.10575800  0.24428200  1
  H  237  1  0.20373700  0.13192900  0.33117300  1
  H  238  1  0.24403600  0.08128100  0.35536800  1
  H  239  1  0.32435500  0.08250100  0.37444100  1
  H  240  1  0.32424300  0.08215000  0.42994500  1
  H  241  1  0.28148800  0.96130500  0.42969800  1
  H  242  1  0.28086200  0.96140100  0.37438000  1
  H  243  1  0.35897000  0.96225000  0.33955100  1
  H  244  1  0.35810300  0.08311700  0.30541400  1
  H  245  1  0.42949900  0.08009600  0.29851500  1
  H  246  1  0.43054300  0.96005700  0.33315700  1
  H  272  1  0.94536300  0.86233700  0.81340200  1
  H  273  1  0.99495800  0.82259100  0.83935300  1
  H  274  1  0.91847600  0.76381900  0.75382700  1
  H  275  1  0.96797900  0.72373000  0.77955000  1
  H  276  1  0.05603900  0.74575700  0.76845100  1
  H  277  1  0.10671700  0.78713900  0.74503800  1
  H  278  1  0.12998700  0.84267800  0.83196100  1
  H  279  1  0.07939200  0.80173500  0.85569900  1
  H  280  1  0.08291900  0.72119400  0.87446500  1
  H  281  1  0.08221900  0.72094300  0.92996800  1
  H  282  1  0.96002500  0.75966900  0.92937900  1
  H  283  1  0.96039100  0.76049800  0.87402800  1
  H  284  1  0.96286500  0.68362400  0.83624200  1
  H  285  1  0.08615700  0.68798400  0.80786500  1
  H  286  1  0.08554600  0.61648800  0.80044600  1
  H  287  1  0.96299300  0.61194300  0.82905500  1
  H  313  1  0.09688400  0.18012700  0.81250600  1
  H  314  1  0.04717300  0.22003900  0.83819400  1
  H  315  1  0.12817100  0.28017500  0.75573800  1
  H  316  1  0.07859400  0.32038700  0.78115700  1
  H  317  1  0.98963200  0.29886300  0.76832400  1
  H  318  1  0.93868100  0.25834000  0.74433500  1
  H  319  1  0.91230200  0.20380800  0.83109800  1
  H  320  1  0.96310200  0.24381800  0.85539200  1
  H  321  1  0.96223900  0.32421800  0.87454200  1
  H  322  1  0.96262200  0.32418400  0.93003900  1
  H  323  1  0.08319600  0.28068200  0.92981600  1
  H  324  1  0.08307700  0.27998800  0.87449000  1
  H  325  1  0.08279000  0.35826900  0.83935500  1
  H  326  1  0.96155600  0.35812200  0.80602100  1
  H  327  1  0.96484700  0.42948400  0.79921200  1
  H  328  1  0.08541400  0.42977100  0.83280800  1
  H  334  1  0.94055500  0.89007800  0.75721100  1
  H  336  1  0.80255900  0.84428200  0.73865400  1
  H  337  1  0.84887400  0.80135800  0.76636700  1
  H  346  1  0.10398200  0.15416000  0.75594600  1
  H  348  1  0.24321500  0.19877900  0.74166500  1
  H  349  1  0.19640200  0.24119500  0.76928200  1
  H  358  1  0.88996200  0.10426800  0.25685700  1
  H  360  1  0.84391800  0.24238800  0.23920200  1
  H  361  1  0.80126400  0.19581400  0.26687700  1
  H  370  1  0.15427800  0.94036300  0.25643500  1
  H  372  1  0.19957700  0.80162100  0.24071600  1
  H  373  1  0.24208200  0.84833100  0.26837300  1
  H  382  1  0.10220900  0.15418400  0.24788400  1
  H  384  1  0.24240400  0.19658200  0.26034700  1
  H  385  1  0.19584200  0.23943000  0.23287700  1
  H  394  1  0.94325000  0.89014200  0.24811000  1
  H  396  1  0.80299900  0.84827900  0.26114200  1
  H  397  1  0.84914800  0.80531500  0.23343500  1
  H  406  1  0.15445600  0.94335600  0.74835200  1
  H  408  1  0.19602900  0.80302000  0.76144200  1
  H  409  1  0.23907300  0.84906900  0.73370200  1
  H  418  1  0.89064400  0.10281800  0.74710300  1
  H  420  1  0.84733300  0.24251300  0.76092200  1
  H  421  1  0.80451600  0.19599500  0.73338700  1
  H  430  1  0.48502600  0.02867700  0.73902300  1
  H  432  1  0.56001800  0.01296200  0.64219700  1
  H  433  1  0.48756500  0.01078200  0.64151600  1
  H  442  1  0.02791000  0.55978500  0.23914800  1
  H  444  1  0.01534800  0.48475100  0.14206100  1
  H  445  1  0.01313400  0.55720700  0.14133000  1
  H  454  1  0.48469700  0.03179400  0.26509800  1
  H  456  1  0.56000900  0.00884500  0.36097400  1
  H  457  1  0.48753500  0.00762100  0.36181700  1
  H  466  1  0.00930200  0.48432600  0.76587700  1
  H  468  1  0.04148200  0.56010200  0.85989900  1
  H  469  1  0.04238100  0.48766700  0.86102800  1
  H  478  1  0.80367400  0.03789500  0.53027400  1
  H  480  1  0.68020200  0.00759100  0.47316400  1
  H  481  1  0.67942000  0.00715000  0.52885900  1
  H  490  1  0.23981800  0.00887400  0.53038400  1
  H  492  1  0.36388500  0.03626600  0.47320300  1
  H  493  1  0.36476000  0.03669300  0.52889500  1
  H  502  1  0.03546300  0.23974100  0.03068300  1
  H  504  1  0.00874800  0.36371500  0.97313700  1
  H  505  1  0.00829700  0.36481800  0.02883000  1
  H  514  1  0.00726200  0.80376600  0.02991300  1
  H  516  1  0.03684500  0.67977700  0.97329300  1
  H  517  1  0.03748500  0.67937100  0.02898900  1
  C  1  1  0.60851000  0.02289700  0.69019100  1
  C  2  1  0.62891100  0.05689000  0.67779600  1
  C  3  1  0.67120600  0.05598100  0.67367900  1
  C  4  1  0.69423200  0.02122700  0.68199000  1
  C  5  1  0.67319400  0.98708800  0.69401400  1
  C  6  1  0.63091100  0.98800000  0.69832000  1
  C  8  1  0.74395900  0.02138900  0.63472400  1
  C  9  1  0.72746700  0.98841900  0.61763600  1
  C  10  1  0.72636700  0.98893000  0.58483100  1
  C  11  1  0.74128400  0.02266000  0.56798700  1
  C  12  1  0.75638400  0.05622000  0.58492600  1
  C  13  1  0.75721000  0.05581500  0.61771700  1
  C  14  1  0.76940200  0.05817300  0.68973400  1
  C  15  1  0.76713700  0.97950300  0.68816600  1
  C  16  1  0.79399400  0.95546800  0.67008500  1
  C  17  1  0.81809900  0.92526000  0.68403900  1
  C  18  1  0.81587800  0.91821800  0.71645400  1
  C  19  1  0.78914300  0.94169500  0.73471500  1
  C  20  1  0.76553200  0.97224400  0.72078400  1
  C  21  1  0.75308800  0.08296300  0.71366800  1
  C  22  1  0.77713600  0.11224200  0.72882200  1
  C  23  1  0.81853700  0.11717300  0.72103600  1
  C  24  1  0.83500000  0.09239200  0.69728600  1
  C  25  1  0.81099000  0.06319600  0.68213700  1
  C  42  1  0.43685500  0.01914700  0.68933900  1
  C  43  1  0.41561800  0.98591900  0.67645200  1
  C  44  1  0.37329300  0.98751100  0.67270100  1
  C  45  1  0.35087500  0.02233600  0.68171500  1
  C  46  1  0.37253000  0.05566600  0.69436900  1
  C  47  1  0.41483200  0.05391500  0.69849300  1
  C  49  1  0.30058200  0.02333800  0.63479200  1
  C  50  1  0.31756800  0.05610400  0.61774500  1
  C  51  1  0.31839300  0.05580100  0.58493800  1
  C  52  1  0.30265700  0.02249600  0.56804500  1
  C  53  1  0.28695800  0.98915800  0.58492600  1
  C  54  1  0.28641300  0.98934600  0.61772200  1
  C  55  1  0.27537900  0.98645400  0.68986200  1
  C  56  1  0.27850600  0.06510600  0.68847600  1
  C  57  1  0.25178400  0.08953900  0.67056800  1
  C  58  1  0.22774000  0.11960500  0.68472800  1
  C  59  1  0.22978100  0.12607800  0.71722000  1
  C  60  1  0.25650700  0.10231600  0.73529800  1
  C  61  1  0.28016800  0.07199800  0.72113900  1
  C  62  1  0.29176200  0.96127700  0.71354600  1
  C  63  1  0.26755200  0.93233200  0.72892200  1
  C  64  1  0.22593500  0.92808400  0.72158400  1
  C  65  1  0.20941600  0.95318500  0.69803800  1
  C  66  1  0.23359000  0.98206100  0.68267600  1
  C  83  1  0.02352000  0.43623200  0.19025800  1
  C  84  1  0.05722400  0.41564300  0.17758200  1
  C  85  1  0.05606900  0.37334800  0.17352600  1
  C  86  1  0.02131300  0.35049100  0.18208700  1
  C  87  1  0.98747000  0.37170900  0.19440000  1
  C  88  1  0.98868100  0.41397600  0.19875100  1
  C  90  1  0.02109600  0.30061300  0.13488200  1
  C  91  1  0.98833800  0.31753400  0.11778100  1
  C  92  1  0.98874500  0.31842100  0.08497400  1
  C  93  1  0.02214200  0.30279300  0.06814200  1
  C  94  1  0.05550200  0.28722700  0.08507200  1
  C  95  1  0.05522100  0.28664900  0.11786500  1
  C  96  1  0.05781800  0.27514500  0.18993300  1
  C  97  1  0.97913900  0.27783900  0.18833200  1
  C  98  1  0.95476100  0.25131200  0.17021900  1
  C  99  1  0.92444200  0.22734500  0.18415200  1
  C  100  1  0.91768300  0.22929400  0.21661000  1
  C  101  1  0.94145900  0.25573500  0.23490700  1
  C  102  1  0.97203500  0.27929500  0.22097400  1
  C  103  1  0.08298000  0.29150500  0.21363200  1
  C  104  1  0.11223100  0.26739500  0.22877400  1
  C  105  1  0.11676200  0.22587900  0.22122100  1
  C  106  1  0.09159100  0.20934800  0.19773300  1
  C  107  1  0.06244300  0.23343400  0.18258200  1
  C  124  1  0.01982200  0.60788000  0.18929200  1
  C  125  1  0.98653700  0.62896200  0.17633600  1
  C  126  1  0.98798200  0.67129400  0.17258600  1
  C  127  1  0.02271800  0.69384300  0.18163600  1
  C  128  1  0.05613200  0.67229900  0.19429500  1
  C  129  1  0.05450900  0.63000100  0.19847800  1
  C  131  1  0.02348300  0.74407200  0.13465300  1
  C  132  1  0.05625900  0.72716200  0.11759200  1
  C  133  1  0.05581500  0.72615100  0.08478700  1
  C  134  1  0.02232400  0.74153700  0.06789700  1
  C  135  1  0.98897300  0.75713300  0.08481500  1
  C  136  1  0.98933000  0.75793100  0.11760600  1
  C  137  1  0.98661400  0.76924600  0.18970200  1
  C  138  1  0.06529400  0.76630100  0.18833200  1
  C  139  1  0.08975800  0.79295100  0.17039600  1
  C  140  1  0.11987500  0.81696800  0.18453700  1
  C  141  1  0.12641300  0.81490800  0.21702300  1
  C  142  1  0.10262600  0.78825100  0.23513100  1
  C  143  1  0.07220900  0.76467700  0.22099500  1
  C  144  1  0.96148600  0.75283700  0.21339400  1
  C  145  1  0.93251500  0.77701500  0.22875700  1
  C  146  1  0.92815100  0.81860700  0.22137100  1
  C  147  1  0.95321200  0.83514900  0.19781700  1
  C  148  1  0.98214300  0.81102000  0.18248800  1
  C  165  1  0.60827100  0.02175700  0.31333300  1
  C  166  1  0.63075800  0.98648900  0.30640600  1
  C  167  1  0.67306800  0.98600500  0.31066300  1
  C  168  1  0.69397000  0.02091600  0.32143600  1
  C  169  1  0.67081600  0.05596700  0.32869900  1
  C  170  1  0.62852400  0.05649400  0.32457300  1
  C  172  1  0.74383800  0.02189300  0.36842900  1
  C  173  1  0.75393000  0.05751400  0.38525100  1
  C  174  1  0.75312800  0.05804200  0.41804500  1
  C  175  1  0.74185900  0.02311100  0.43509800  1
  C  176  1  0.72979800  0.98812600  0.41844600  1
  C  177  1  0.73027100  0.98772200  0.38564100  1
  C  178  1  0.76766400  0.98045900  0.31494500  1
  C  179  1  0.76843900  0.05897600  0.31332600  1
  C  180  1  0.80953600  0.06567500  0.32169700  1
  C  181  1  0.83319400  0.09487800  0.30622400  1
  C  182  1  0.81686800  0.11795300  0.28140700  1
  C  183  1  0.77595400  0.11135500  0.27286300  1
  C  184  1  0.75226900  0.08206700  0.28833400  1
  C  185  1  0.76486300  0.97221500  0.28252500  1
  C  186  1  0.78905800  0.94223900  0.26845900  1
  C  187  1  0.81756400  0.92032300  0.28632300  1
  C  188  1  0.82089000  0.92836400  0.31855400  1
  C  189  1  0.79636600  0.95809600  0.33263400  1
  C  206  1  0.43662900  0.01949400  0.31448800  1
  C  207  1  0.41463500  0.05464600  0.30612800  1
  C  208  1  0.37229800  0.05622400  0.31013500  1
  C  209  1  0.35061200  0.02233700  0.32184200  1
  C  210  1  0.37300700  0.98721600  0.33020200  1
  C  211  1  0.41533000  0.98576600  0.32652100  1
  C  213  1  0.30026000  0.02282200  0.36849200  1
  C  214  1  0.28907100  0.98763300  0.38545200  1
  C  215  1  0.28971900  0.98732000  0.41824800  1
  C  216  1  0.30186300  0.02205500  0.43517300  1
  C  217  1  0.31493200  0.05658100  0.41839900  1
  C  218  1  0.31463900  0.05674900  0.38559200  1
  C  219  1  0.27760700  0.06424700  0.31474200  1
  C  220  1  0.27564500  0.98563500  0.31343300  1
  C  221  1  0.23429300  0.97974600  0.32140100  1
  C  222  1  0.21049500  0.95053500  0.30605800  1
  C  223  1  0.22694700  0.92662100  0.28178100  1
  C  224  1  0.26810100  0.93245800  0.27361500  1
  C  225  1  0.29191400  0.96176600  0.28893900  1
  C  226  1  0.28032100  0.07203100  0.28224800  1
  C  227  1  0.25642000  0.10212300  0.26798800  1
  C  228  1  0.22822400  0.12455000  0.28574400  1
  C  229  1  0.22507300  0.11708200  0.31806600  1
  C  230  1  0.24933400  0.08727300  0.33232600  1
  C  247  1  0.02381800  0.60807100  0.81298600  1
  C  248  1  0.05922200  0.63074500  0.80689600  1
  C  249  1  0.05928400  0.67305200  0.81112600  1
  C  250  1  0.02387300  0.69373300  0.82115200  1
  C  251  1  0.98875300  0.67035500  0.82777100  1
  C  252  1  0.98856500  0.62808400  0.82349200  1
  C  254  1  0.02246400  0.74322100  0.86835300  1
  C  255  1  0.98678400  0.75301600  0.88519600  1
  C  256  1  0.98632000  0.75224700  0.91799200  1
  C  257  1  0.02136500  0.74123400  0.93500900  1
  C  258  1  0.05639700  0.72937400  0.91834200  1
  C  259  1  0.05674200  0.72984000  0.88553600  1
  C  260  1  0.06386800  0.76760600  0.81500100  1
  C  261  1  0.98540400  0.76814400  0.81329100  1
  C  262  1  0.97847500  0.80910800  0.82191800  1
  C  263  1  0.94937200  0.83288000  0.80642700  1
  C  264  1  0.92661100  0.81679800  0.78135600  1
  C  265  1  0.93341500  0.77601700  0.77256500  1
  C  266  1  0.96264800  0.75223800  0.78802900  1
  C  267  1  0.07234800  0.76478000  0.78262100  1
  C  268  1  0.10235000  0.78904700  0.76865400  1
  C  269  1  0.12399300  0.81769900  0.78656500  1
  C  270  1  0.11567100  0.82108300  0.81875100  1
  C  271  1  0.08594200  0.79645900  0.83274200  1
  C  288  1  0.02570700  0.43634700  0.81471200  1
  C  289  1  0.99032300  0.41451700  0.80665400  1
  C  290  1  0.98856000  0.37217600  0.81062400  1
  C  291  1  0.02247300  0.35027500  0.82203200  1
  C  292  1  0.05778600  0.37246600  0.83020300  1
  C  293  1  0.05946100  0.41477300  0.82645800  1
  C  295  1  0.02178400  0.29978500  0.86860200  1
  C  296  1  0.05690900  0.28838900  0.88556400  1
  C  297  1  0.05722900  0.28905900  0.91836000  1
  C  298  1  0.02258500  0.30145600  0.93528200  1
  C  299  1  0.98812200  0.31468400  0.91849800  1
  C  300  1  0.98794700  0.31437800  0.88569300  1
  C  301  1  0.98021700  0.27753100  0.81484500  1
  C  302  1  0.05884800  0.27515100  0.81349500  1
  C  303  1  0.06451700  0.23372600  0.82135900  1
  C  304  1  0.09370800  0.20988500  0.80603600  1
  C  305  1  0.11784800  0.22639600  0.78191000  1
  C  306  1  0.11219400  0.26759600  0.77381000  1
  C  307  1  0.08288200  0.29143600  0.78909200  1
  C  308  1  0.97246500  0.28042200  0.78235100  1
  C  309  1  0.94232600  0.25664900  0.76803600  1
  C  310  1  0.91975400  0.22849600  0.78573700  1
  C  311  1  0.92723100  0.22515500  0.81804500  1
  C  312  1  0.95706100  0.24930800  0.83238100  1
  C  329  1  0.89912100  0.84174500  0.76441600  1
  C  330  1  0.91146500  0.88029800  0.75337600  1
  C  331  1  0.88453800  0.90596100  0.73688100  1
  C  332  1  0.84427900  0.89252000  0.73128400  1
  C  333  1  0.83170300  0.85408900  0.74220400  1
  C  335  1  0.85896400  0.82884100  0.75834500  1
  C  341  1  0.14572600  0.20161200  0.76521900  1
  C  342  1  0.13334400  0.16366600  0.75304700  1
  C  343  1  0.16057000  0.13831400  0.73657700  1
  C  344  1  0.20120400  0.15142100  0.73220600  1
  C  345  1  0.21384700  0.18919200  0.74435800  1
  C  347  1  0.18628700  0.21415800  0.76043200  1
  C  353  1  0.84165900  0.14560200  0.26448900  1
  C  354  1  0.88012800  0.13338100  0.25321900  1
  C  355  1  0.90563900  0.16047100  0.23675100  1
  C  356  1  0.89212000  0.20076500  0.23141300  1
  C  357  1  0.85377300  0.21322300  0.24256200  1
  C  359  1  0.82868300  0.18580600  0.25868000  1
  C  365  1  0.20213100  0.89881400  0.26502400  1
  C  366  1  0.16393600  0.91110500  0.25324000  1
  C  367  1  0.13851000  0.88392800  0.23677900  1
  C  368  1  0.15181700  0.84344900  0.23198500  1
  C  369  1  0.18985200  0.83089500  0.24371100  1
  C  371  1  0.21486800  0.85839800  0.25980700  1
  C  377  1  0.14455000  0.20082400  0.23780800  1
  C  378  1  0.13177700  0.16322300  0.25038800  1
  C  379  1  0.15887900  0.13756900  0.26672700  1
  C  380  1  0.19982000  0.15000600  0.27058800  1
  C  381  1  0.21285100  0.18741500  0.25798700  1
  C  383  1  0.18542400  0.21268000  0.24203000  1
  C  389  1  0.90064100  0.84369700  0.23817500  1
  C  390  1  0.91367300  0.88120000  0.25075900  1
  C  391  1  0.88681100  0.90692900  0.26723800  1
  C  392  1  0.84585200  0.89465400  0.27126900  1
  C  393  1  0.83258200  0.85731300  0.25870100  1
  C  395  1  0.85976400  0.83198200  0.24259000  1
  C  401  1  0.20080800  0.90064700  0.73843500  1
  C  402  1  0.16334500  0.91376500  0.75102900  1
  C  403  1  0.13756200  0.88695800  0.76752500  1
  C  404  1  0.14975200  0.84597400  0.77157500  1
  C  405  1  0.18706400  0.83262600  0.75900600  1
  C  407  1  0.21244300  0.85975000  0.74287400  1
  C  413  1  0.84357300  0.14493900  0.73765100  1
  C  414  1  0.88141600  0.13228700  0.74987800  1
  C  415  1  0.90704900  0.15936100  0.76624800  1
  C  416  1  0.89434500  0.20014600  0.77050100  1
  C  417  1  0.85669300  0.21306600  0.75826600  1
  C  419  1  0.83145600  0.18566400  0.74227000  1
  C  425  1  0.47978100  0.01920200  0.69033600  1
  C  426  1  0.50091400  0.02533600  0.71864800  1
  C  427  1  0.54390000  0.02634700  0.71947900  1
  C  428  1  0.56571300  0.02206800  0.69114600  1
  C  429  1  0.54461600  0.01624000  0.66281300  1
  C  431  1  0.50209100  0.01457600  0.66244600  1
  C  437  1  0.02001600  0.56497600  0.19029000  1
  C  438  1  0.02527200  0.54387600  0.21871900  1
  C  439  1  0.02623800  0.50089000  0.21957800  1
  C  440  1  0.02290100  0.47905000  0.19117300  1
  C  441  1  0.01801300  0.50015300  0.16273000  1
  C  443  1  0.01633100  0.54267500  0.16231900  1
  C  449  1  0.47956900  0.01933400  0.31340300  1
  C  450  1  0.50063800  0.02696400  0.28527900  1
  C  451  1  0.54362900  0.02744700  0.28434800  1
  C  452  1  0.56550700  0.02088900  0.31239400  1
  C  453  1  0.54452600  0.01353200  0.34054800  1
  C  455  1  0.50198400  0.01253600  0.34100100  1
  C  461  1  0.02620500  0.47933900  0.81340500  1
  C  462  1  0.01607000  0.50033000  0.78568900  1
  C  463  1  0.01556200  0.54331300  0.78460900  1
  C  464  1  0.02493200  0.56532600  0.81209500  1
  C  465  1  0.03494600  0.54450500  0.83983300  1
  C  467  1  0.03571400  0.50196000  0.84043100  1
  C  473  1  0.74148500  0.02285000  0.53481300  1
  C  474  1  0.77744200  0.03202700  0.51825400  1
  C  475  1  0.77853400  0.03213400  0.48523000  1
  C  476  1  0.74252300  0.02323800  0.46827900  1
  C  477  1  0.70659500  0.01383300  0.48485400  1
  C  479  1  0.70609900  0.01353400  0.51763600  1
  C  485  1  0.30234900  0.02246100  0.53487900  1
  C  486  1  0.26615900  0.01412600  0.51834500  1
  C  487  1  0.26501000  0.01407300  0.48532100  1
  C  488  1  0.30119600  0.02210800  0.46835400  1
  C  489  1  0.33736200  0.03066500  0.48490600  1
  C  491  1  0.33791600  0.03096100  0.51768500  1
  C  497  1  0.02220400  0.30236300  0.03498200  1
  C  498  1  0.03032400  0.26605200  0.01856100  1
  C  499  1  0.03038200  0.26476400  0.98554100  1
  C  500  1  0.02255300  0.30092700  0.96846600  1
  C  501  1  0.01418500  0.33720700  0.98491500  1
  C  503  1  0.01388900  0.33790100  0.01769300  1
  C  509  1  0.02208300  0.74154800  0.03471400  1
  C  510  1  0.01294800  0.77741600  0.01800600  1
  C  511  1  0.01269100  0.77827300  0.98497700  1
  C  512  1  0.02136900  0.74210800  0.96817800  1
  C  513  1  0.03072500  0.70626400  0.98488400  1
  C  515  1  0.03116700  0.70600400  0.01766700  1
  N  338  1  0.89678800  0.94498400  0.72656300  1
  N  350  1  0.14821000  0.09989100  0.72509000  1
  N  362  1  0.94458800  0.14834100  0.22620400  1
  N  374  1  0.09983200  0.89617300  0.22570900  1
  N  386  1  0.14606300  0.09943100  0.27849200  1
  N  398  1  0.89986000  0.94503300  0.27890800  1
  N  410  1  0.09947000  0.90008100  0.77916100  1
  N  422  1  0.94540200  0.14667500  0.77769000  1
  N  434  1  0.56541100  0.03209900  0.74775900  1
  N  446  1  0.03106200  0.47941000  0.24797700  1
  N  458  1  0.56509900  0.03465800  0.25625800  1
  N  470  1  0.00577600  0.56465000  0.75691200  1
  N  482  1  0.81532700  0.03962300  0.46906300  1
  N  494  1  0.22802700  0.00743500  0.46917500  1
  N  506  1  0.03678900  0.22767800  0.96950200  1
  N  518  1  0.00523200  0.81496000  0.96864500  1
  O  339  1  0.92599800  0.94286100  0.70777900  1
  O  340  1  0.90684700  0.96732600  0.74904000  1
  O  351  1  0.11974900  0.10315100  0.70571400  1
  O  352  1  0.13702500  0.07680400  0.74680200  1
  O  363  1  0.94234300  0.11928600  0.20728600  1
  O  364  1  0.96712300  0.13812000  0.24853500  1
  O  375  1  0.10260500  0.92490700  0.20653200  1
  O  376  1  0.07699900  0.90690900  0.24770400  1
  O  387  1  0.11796500  0.10327700  0.29809900  1
  O  388  1  0.13416700  0.07638900  0.25698100  1
  O  399  1  0.92814200  0.94110900  0.29836300  1
  O  400  1  0.91161100  0.96803000  0.25731200  1
  O  411  1  0.10342800  0.92836800  0.79859400  1
  O  412  1  0.07651100  0.91185700  0.75754700  1
  O  423  1  0.94196600  0.11830000  0.79711800  1
  O  424  1  0.96830800  0.13523000  0.75595500  1
  O  435  1  0.55647000  0.06540500  0.76029400  1
  O  436  1  0.55818500  0.00402800  0.76683200  1
  O  447  1  0.00238000  0.48665400  0.26648700  1
  O  448  1  0.06395000  0.48835300  0.26116300  1
  O  459  1  0.55658600  0.06883900  0.24498300  1
  O  460  1  0.55737500  0.00792600  0.23619800  1
  O  471  1  0.97060300  0.55616900  0.74760700  1
  O  472  1  0.03052500  0.55673600  0.73544300  1
  O  483  1  0.82930200  0.07421300  0.47524100  1
  O  484  1  0.84184100  0.01347200  0.47546700  1
  O  495  1  0.20213700  0.03419400  0.47558200  1
  O  496  1  0.21326600  0.97317800  0.47537400  1
  O  507  1  0.07095000  0.21272400  0.97575100  1
  O  508  1  0.00986600  0.20198300  0.97598000  1
  O  519  1  0.97071200  0.82908000  0.97484700  1
  O  520  1  0.03148900  0.84144700  0.97484400  1
