# generated using pymatgen
data_H36C51N8
_symmetry_space_group_name_H-M   'P 1'
_cell_length_a   35.76000000
_cell_length_b   35.76000000
_cell_length_c   39.02470000
_cell_angle_alpha   89.99930000
_cell_angle_beta   90.00070000
_cell_angle_gamma   90.00000000
_symmetry_Int_Tables_number   1
_chemical_formula_structural   H36C51N8
_chemical_formula_sum   'H288 C408 N64'
_cell_volume   49903.91219927
_cell_formula_units_Z   8
loop_
 _symmetry_equiv_pos_site_id
 _symmetry_equiv_pos_as_xyz
  1  'x, y, z'
loop_
 _atom_site_type_symbol
 _atom_site_label
 _atom_site_symmetry_multiplicity
 _atom_site_fract_x
 _atom_site_fract_y
 _atom_site_fract_z
 _atom_site_occupancy
  H  25  1  0.81317400  0.14635600  0.21830300  1
  H  26  1  0.87561800  0.14094200  0.20045000  1
  H  27  1  0.00484400  0.16933100  0.20537000  1
  H  28  1  0.05969400  0.18931200  0.23330000  1
  H  29  1  0.99755600  0.21689500  0.32131200  1
  H  30  1  0.84679400  0.20639700  0.30592100  1
  H  31  1  0.94237700  0.24909200  0.23366900  1
  H  32  1  0.90662600  0.35601100  0.26215200  1
  H  33  1  0.88611200  0.33217100  0.31607900  1
  H  34  1  0.94610400  0.14669300  0.33208400  1
  H  35  1  0.88712200  0.23830300  0.40528600  1
  H  36  1  0.90977400  0.18167300  0.42948600  1
  H  39  1  0.94181200  0.13694400  0.22206000  1
  H  40  1  0.93553400  0.18141000  0.20244900  1
  H  42  1  0.90487300  0.28503400  0.36053500  1
  H  43  1  0.86226700  0.26653100  0.34468900  1
  H  72  1  0.03168600  0.69661600  0.22497000  1
  H  73  1  0.96990500  0.70222000  0.20587000  1
  H  74  1  0.84155500  0.66931200  0.20568000  1
  H  75  1  0.78544500  0.65171100  0.23299500  1
  H  76  1  0.84438400  0.62840100  0.32387400  1
  H  77  1  0.99565000  0.63693100  0.31226600  1
  H  78  1  0.92662000  0.59627500  0.23595300  1
  H  79  1  0.92060800  0.48607600  0.27218100  1
  H  80  1  0.92084300  0.50824500  0.32947600  1
  H  81  1  0.90423600  0.70220200  0.33252000  1
  H  82  1  0.93647400  0.60557900  0.41395000  1
  H  83  1  0.92591200  0.66722000  0.43368400  1
  H  86  1  0.90241600  0.70434500  0.22465400  1
  H  87  1  0.91167800  0.65998900  0.20588600  1
  H  89  1  0.90471100  0.56345400  0.36770300  1
  H  90  1  0.95394800  0.56520200  0.36200400  1
  H  119  1  0.69651100  0.81185500  0.72452500  1
  H  120  1  0.70177700  0.87361400  0.70518600  1
  H  121  1  0.66918700  0.00220100  0.70498900  1
  H  122  1  0.65152800  0.05825900  0.73241200  1
  H  123  1  0.62653800  0.99884100  0.82265500  1
  H  124  1  0.63567600  0.84786300  0.81117800  1
  H  125  1  0.59541800  0.91582300  0.73442100  1
  H  126  1  0.48494000  0.92457000  0.76945800  1
  H  127  1  0.50645700  0.92536900  0.82695700  1
  H  128  1  0.70071600  0.93786600  0.83155200  1
  H  129  1  0.60259600  0.90923800  0.91259800  1
  H  130  1  0.66435000  0.91833200  0.93267200  1
  H  133  1  0.70353000  0.94107500  0.72383800  1
  H  134  1  0.65928000  0.93189400  0.70483200  1
  H  136  1  0.56175700  0.94158800  0.86532800  1
  H  137  1  0.56219000  0.89217500  0.86081300  1
  H  166  1  0.14643700  0.03000500  0.71946400  1
  H  167  1  0.14001000  0.96763800  0.70182100  1
  H  168  1  0.16831000  0.83852500  0.70591900  1
  H  169  1  0.18849900  0.78349400  0.73327800  1
  H  170  1  0.21526700  0.84461400  0.82211400  1
  H  171  1  0.20649000  0.99582800  0.80688800  1
  H  172  1  0.24811200  0.89971800  0.73497200  1
  H  173  1  0.35539100  0.93377600  0.76406100  1
  H  174  1  0.33145100  0.95491000  0.81776800  1
  H  175  1  0.14541000  0.89658500  0.83313000  1
  H  176  1  0.23698100  0.95555200  0.90641200  1
  H  177  1  0.18012000  0.93336000  0.93048700  1
  H  180  1  0.13560200  0.90139900  0.72335400  1
  H  181  1  0.17998000  0.90761300  0.70354300  1
  H  183  1  0.28380600  0.93711000  0.86198400  1
  H  184  1  0.26579100  0.97980900  0.84589200  1
  H  213  1  0.05934700  0.18905100  0.76013600  1
  H  214  1  0.00433900  0.16937200  0.78795100  1
  H  215  1  0.87498600  0.14146000  0.79257200  1
  H  216  1  0.81263300  0.14699300  0.77447300  1
  H  217  1  0.84678800  0.20673500  0.68686200  1
  H  218  1  0.99763700  0.21641700  0.67179900  1
  H  219  1  0.94209600  0.24921800  0.75929300  1
  H  220  1  0.90763600  0.35634600  0.73009300  1
  H  221  1  0.88731600  0.33241000  0.67613500  1
  H  222  1  0.94546200  0.14621200  0.66120400  1
  H  223  1  0.88728400  0.23791900  0.58754800  1
  H  224  1  0.90906000  0.18079900  0.56369400  1
  H  227  1  0.94123800  0.13714100  0.77117700  1
  H  228  1  0.93507800  0.18170300  0.79063700  1
  H  230  1  0.86294200  0.26689900  0.64779400  1
  H  231  1  0.90583600  0.28481000  0.63201200  1
  H  260  1  0.78523100  0.65247000  0.76099700  1
  H  261  1  0.84140900  0.67002500  0.78821500  1
  H  262  1  0.96971100  0.70309900  0.78762800  1
  H  263  1  0.03146800  0.69719600  0.76860200  1
  H  264  1  0.99533400  0.63708200  0.68157800  1
  H  265  1  0.84402500  0.62878000  0.67012100  1
  H  266  1  0.92827400  0.59697500  0.75795000  1
  H  267  1  0.92022200  0.48653900  0.72263600  1
  H  268  1  0.91787000  0.50830500  0.66526500  1
  H  269  1  0.90590400  0.70282900  0.66119300  1
  H  270  1  0.93354500  0.60465400  0.57990100  1
  H  271  1  0.92563100  0.66666667  0.56004700  1
  H  274  1  0.90220800  0.70497000  0.76903500  1
  H  275  1  0.91157700  0.66068800  0.78791800  1
  H  277  1  0.95000600  0.56391500  0.63121500  1
  H  278  1  0.90052900  0.56398700  0.62729400  1
  H  307  1  0.18873400  0.78387200  0.26141100  1
  H  308  1  0.16916000  0.83895500  0.28908300  1
  H  309  1  0.14144800  0.96821400  0.29358800  1
  H  310  1  0.14734900  0.03055900  0.27565800  1
  H  311  1  0.20645800  0.99627800  0.18771400  1
  H  312  1  0.21560000  0.84519000  0.17271200  1
  H  313  1  0.24902100  0.90086000  0.25989400  1
  H  314  1  0.35599900  0.93534900  0.23024500  1
  H  315  1  0.33177800  0.95566800  0.17638900  1
  H  316  1  0.14554400  0.89739400  0.16219500  1
  H  317  1  0.23682300  0.95584300  0.08825400  1
  H  318  1  0.17961600  0.93405100  0.06460200  1
  H  321  1  0.13683600  0.90199300  0.27214800  1
  H  322  1  0.18143500  0.90810500  0.29155900  1
  H  324  1  0.26611300  0.98008100  0.14838800  1
  H  325  1  0.28394500  0.93721800  0.13246800  1
  H  354  1  0.65183000  0.05773900  0.25966100  1
  H  355  1  0.66947000  0.00172400  0.28721800  1
  H  356  1  0.70338500  0.87349400  0.28689500  1
  H  357  1  0.69809400  0.81166300  0.26783000  1
  H  358  1  0.63720900  0.84721700  0.18104700  1
  H  359  1  0.62819600  0.99828300  0.16914700  1
  H  360  1  0.59684100  0.91430800  0.25746000  1
  H  361  1  0.48630300  0.92276500  0.22251700  1
  H  362  1  0.50783800  0.92486600  0.16505200  1
  H  363  1  0.70229800  0.93666100  0.16033200  1
  H  364  1  0.60384300  0.90879300  0.07939100  1
  H  365  1  0.66573600  0.91684700  0.05931700  1
  H  368  1  0.70460400  0.94096300  0.26832700  1
  H  369  1  0.66036700  0.93137700  0.28719500  1
  H  371  1  0.56325400  0.89247000  0.13084200  1
  H  372  1  0.56339400  0.94194400  0.12687900  1
  H  387  1  0.18340000  0.14318700  0.21989200  1
  H  388  1  0.15990900  0.18962200  0.25854400  1
  H  390  1  0.00113700  0.10531600  0.31976900  1
  H  391  1  0.00700200  0.05628600  0.31809300  1
  H  392  1  0.98080100  0.07968900  0.28574700  1
  H  394  1  0.00873800  0.01853300  0.26387900  1
  H  395  1  0.05367500  0.00057200  0.25477200  1
  H  396  1  0.02723200  0.02273200  0.22210000  1
  H  398  1  0.13491900  0.06089700  0.19286000  1
  H  400  1  0.11723100  0.19683500  0.31377500  1
  H  411  1  0.66212000  0.69986500  0.21563200  1
  H  412  1  0.68427900  0.65415500  0.25563700  1
  H  414  1  0.84235100  0.73823600  0.31848300  1
  H  415  1  0.83618400  0.78726000  0.31680900  1
  H  416  1  0.86323100  0.76410400  0.28491200  1
  H  418  1  0.83561000  0.82497900  0.26236700  1
  H  419  1  0.79087300  0.84267000  0.25207900  1
  H  420  1  0.81835600  0.82046400  0.22016400  1
  H  422  1  0.71247500  0.78157100  0.18888800  1
  H  424  1  0.72532000  0.64836000  0.31213800  1
  H  435  1  0.70039800  0.18279700  0.71820800  1
  H  436  1  0.65356400  0.15960100  0.75657100  1
  H  438  1  0.73598700  0.99981700  0.81777100  1
  H  439  1  0.78503900  0.00602100  0.81738900  1
  H  440  1  0.76279000  0.97986900  0.78434100  1
  H  442  1  0.82425000  0.00808900  0.76386900  1
  H  443  1  0.84222500  0.05308200  0.75503400  1
  H  444  1  0.82087400  0.02651800  0.72199600  1
  H  446  1  0.78252300  0.13379900  0.69211200  1
  H  448  1  0.64650400  0.11768200  0.81211600  1
  H  459  1  0.14330000  0.66097700  0.71654500  1
  H  460  1  0.18879000  0.68322500  0.75674000  1
  H  462  1  0.10350100  0.84042800  0.82006900  1
  H  463  1  0.05449200  0.83463600  0.81753000  1
  H  464  1  0.07849200  0.86163600  0.78611900  1
  H  466  1  0.01779300  0.83442200  0.76261600  1
  H  467  1  0.00002200  0.78981100  0.75199200  1
  H  468  1  0.02292200  0.81723800  0.72045100  1
  H  470  1  0.06179700  0.71127400  0.68931100  1
  H  472  1  0.19510600  0.72479900  0.81300500  1
  H  483  1  0.66091900  0.70044800  0.77745800  1
  H  484  1  0.68362000  0.65457300  0.73788100  1
  H  486  1  0.84262100  0.73834600  0.67661200  1
  H  487  1  0.83630100  0.78737600  0.67775700  1
  H  488  1  0.86283400  0.76461800  0.71025200  1
  H  490  1  0.83474700  0.82561300  0.73192500  1
  H  491  1  0.78984500  0.84328400  0.74161700  1
  H  492  1  0.81694000  0.82133700  0.77395800  1
  H  494  1  0.71069000  0.78252000  0.80422100  1
  H  496  1  0.72505700  0.64862900  0.68182100  1
  H  507  1  0.18324000  0.14283900  0.77394700  1
  H  508  1  0.15985900  0.18912700  0.73508500  1
  H  510  1  0.00084200  0.10490800  0.67427000  1
  H  511  1  0.00665900  0.05587200  0.67607400  1
  H  512  1  0.98050500  0.07941000  0.70836600  1
  H  514  1  0.00833800  0.01832500  0.73044900  1
  H  515  1  0.05323700  0.00035100  0.73968700  1
  H  516  1  0.02678500  0.02272200  0.77223100  1
  H  518  1  0.13431200  0.06094100  0.80127400  1
  H  520  1  0.11725100  0.19616100  0.67984000  1
  H  531  1  0.14357800  0.66107500  0.27765500  1
  H  532  1  0.18916400  0.68366000  0.23770700  1
  H  534  1  0.10367100  0.84094500  0.17476700  1
  H  535  1  0.05467500  0.83486900  0.17695200  1
  H  536  1  0.07827800  0.86181700  0.20865000  1
  H  538  1  0.01755000  0.83414600  0.23162900  1
  H  539  1  0.99993800  0.78938100  0.24192900  1
  H  540  1  0.02245000  0.81675200  0.27374400  1
  H  542  1  0.06177500  0.71089900  0.30478600  1
  H  544  1  0.19537000  0.72542200  0.18151100  1
  H  555  1  0.70056000  0.18291000  0.27389300  1
  H  556  1  0.65429300  0.15938200  0.23513100  1
  H  558  1  0.73740500  0.99879100  0.17649300  1
  H  559  1  0.78645400  0.00498000  0.17739900  1
  H  560  1  0.76371900  0.97922200  0.21042900  1
  H  562  1  0.82486900  0.00759100  0.23141800  1
  H  563  1  0.84274400  0.05264700  0.24014200  1
  H  564  1  0.82082900  0.02641500  0.27309300  1
  H  566  1  0.78275300  0.13459300  0.30147300  1
  H  568  1  0.64801700  0.11712600  0.17989600  1
  H  579  1  0.97123100  0.39060300  0.24355000  1
  H  580  1  0.96894900  0.45713900  0.24281300  1
  H  582  1  0.88579800  0.49237000  0.08848600  1
  H  583  1  0.85649200  0.45497600  0.07586800  1
  H  584  1  0.90331200  0.45757200  0.06058100  1
  H  586  1  0.88056300  0.39079000  0.06058700  1
  H  587  1  0.86931100  0.35580400  0.09080800  1
  H  588  1  0.91567800  0.35990100  0.07509500  1
  H  590  1  0.96214200  0.33655000  0.17281300  1
  H  592  1  0.94397600  0.51205800  0.17184200  1
  H  603  1  0.45757100  0.87280000  0.74199100  1
  H  604  1  0.39106400  0.86951400  0.74409200  1
  H  606  1  0.34220300  0.94839800  0.59108900  1
  H  607  1  0.37847000  0.93658300  0.56225400  1
  H  608  1  0.37489600  0.98291700  0.57858700  1
  H  610  1  0.44144500  0.96840900  0.56177700  1
  H  611  1  0.47718600  0.93755100  0.57499900  1
  H  612  1  0.47521500  0.98365200  0.59169100  1
  H  614  1  0.51011000  0.89884100  0.67013900  1
  H  616  1  0.33560200  0.87804100  0.67482800  1
  H  627  1  0.97232800  0.39070800  0.74936300  1
  H  628  1  0.97090800  0.45732500  0.75024500  1
  H  630  1  0.88612800  0.49312800  0.90371100  1
  H  631  1  0.90236400  0.45782300  0.93172900  1
  H  632  1  0.85582900  0.45625200  0.91561900  1
  H  634  1  0.87827300  0.39150600  0.93095300  1
  H  635  1  0.91306300  0.35999600  0.91691100  1
  H  636  1  0.86697000  0.35694200  0.90034200  1
  H  638  1  0.96190400  0.33680700  0.82000300  1
  H  640  1  0.94821900  0.51168600  0.82144300  1
  H  651  1  0.39055400  0.87072300  0.24949900  1
  H  652  1  0.45716800  0.87212400  0.25023900  1
  H  654  1  0.49338600  0.95698800  0.40358800  1
  H  655  1  0.45814300  0.94077100  0.43168000  1
  H  656  1  0.45655200  0.98730700  0.41556200  1
  H  658  1  0.39183200  0.96489900  0.43103400  1
  H  659  1  0.36028000  0.93011100  0.41706600  1
  H  660  1  0.35720100  0.97619700  0.40048400  1
  H  662  1  0.33688600  0.88113900  0.32027100  1
  H  664  1  0.51174700  0.89497600  0.32131400  1
  H  675  1  0.97163500  0.16659300  0.52779600  1
  H  676  1  0.97218500  0.16715400  0.46660900  1
  H  678  1  0.89854300  0.99515900  0.42875100  1
  H  679  1  0.86696100  0.98114000  0.46122500  1
  H  680  1  0.91393800  0.96493700  0.46175600  1
  H  682  1  0.91323100  0.96431000  0.52857200  1
  H  683  1  0.86626000  0.98052100  0.52854900  1
  H  684  1  0.89717500  0.99389900  0.56178700  1
  H  686  1  0.96679200  0.08606100  0.57392800  1
  H  688  1  0.96902700  0.08770100  0.41953600  1
  H  699  1  0.87014700  0.68990900  0.52804400  1
  H  700  1  0.86919300  0.68938900  0.46690400  1
  H  702  1  0.95197500  0.85665800  0.42861300  1
  H  703  1  0.98443300  0.86948200  0.46078200  1
  H  704  1  0.93807400  0.88734000  0.46181200  1
  H  706  1  0.93954900  0.88780800  0.52860600  1
  H  707  1  0.98589900  0.86990600  0.52818800  1
  H  708  1  0.95482600  0.85759000  0.56165400  1
  H  710  1  0.88657400  0.76900800  0.57636000  1
  H  712  1  0.88223200  0.76750800  0.41763200  1
  H  723  1  0.68875000  0.97239000  0.02718000  1
  H  724  1  0.68798800  0.97318000  0.96605400  1
  H  726  1  0.85516900  0.89050400  0.92735300  1
  H  727  1  0.86834900  0.85832800  0.95964000  1
  H  728  1  0.88598900  0.90478300  0.96031100  1
  H  730  1  0.88686000  0.90381600  0.02710200  1
  H  731  1  0.86922300  0.85735900  0.02705800  1
  H  732  1  0.85693600  0.88860300  0.06039800  1
  H  734  1  0.76803200  0.95628800  0.07526700  1
  H  736  1  0.76599900  0.95941100  0.91638300  1
  H  747  1  0.16534200  0.87137200  0.02864600  1
  H  748  1  0.16564900  0.87093200  0.96745800  1
  H  750  1  0.99361400  0.94497300  0.93033300  1
  H  751  1  0.97983400  0.97656100  0.96288900  1
  H  752  1  0.96352000  0.92962900  0.96345500  1
  H  754  1  0.96321600  0.93028200  0.03027000  1
  H  755  1  0.97955000  0.97720800  0.03021300  1
  H  756  1  0.99300700  0.94623200  0.06337900  1
  H  758  1  0.08503100  0.87622300  0.07503600  1
  H  760  1  0.08594700  0.87453700  0.92057500  1
  C  1  1  0.92131600  0.20053000  0.33165100  1
  C  2  1  0.90470600  0.22716400  0.35418300  1
  C  3  1  0.90400900  0.27609300  0.30788900  1
  C  4  1  0.92044900  0.25058500  0.28431200  1
  C  5  1  0.93088700  0.26598800  0.25186900  1
  C  6  1  0.92761500  0.30443700  0.24370300  1
  C  7  1  0.91024100  0.32827400  0.26741200  1
  C  8  1  0.89811700  0.31406200  0.29897700  1
  C  9  1  0.89936800  0.21910900  0.38935300  1
  C  10  1  0.91274900  0.18589600  0.40374100  1
  C  11  1  0.93105700  0.15951900  0.38308300  1
  C  12  1  0.93361200  0.16642700  0.34715900  1
  C  13  1  0.89249500  0.18939900  0.27417500  1
  C  14  1  0.89940800  0.16994400  0.24289000  1
  C  15  1  0.96797600  0.18087400  0.24694200  1
  C  16  1  0.96409500  0.19741600  0.27998600  1
  C  17  1  0.00271400  0.17915000  0.22997600  1
  C  18  1  0.03508000  0.19075100  0.24649800  1
  C  19  1  0.03398600  0.20025900  0.28146500  1
  C  20  1  0.99840800  0.20639800  0.29695800  1
  C  21  1  0.85390800  0.19219500  0.28421200  1
  C  22  1  0.82454800  0.17611200  0.26443500  1
  C  23  1  0.83349000  0.15772500  0.23369700  1
  C  24  1  0.87035500  0.15428700  0.22320500  1
  C  37  1  0.92494000  0.20889500  0.29305500  1
  C  38  1  0.93639600  0.16662000  0.22704500  1
  C  41  1  0.89272300  0.26469700  0.34272400  1
  C  48  1  0.91922700  0.64498700  0.33612300  1
  C  49  1  0.92661600  0.61695000  0.36116800  1
  C  50  1  0.92283200  0.56614800  0.31696000  1
  C  51  1  0.92214000  0.59303000  0.29015400  1
  C  52  1  0.92474100  0.57827100  0.25616700  1
  C  53  1  0.92581400  0.53938400  0.24895400  1
  C  54  1  0.92157500  0.51417400  0.27623000  1
  C  55  1  0.92122300  0.52738100  0.30993900  1
  C  56  1  0.93079100  0.62594500  0.39622600  1
  C  57  1  0.92424500  0.66219500  0.40800800  1
  C  58  1  0.91264500  0.69010600  0.38508900  1
  C  59  1  0.91186700  0.68162000  0.34930100  1
  C  60  1  0.95106100  0.65456200  0.27964800  1
  C  61  1  0.94497800  0.67360900  0.24796800  1
  C  62  1  0.87686300  0.65947100  0.24871600  1
  C  63  1  0.87948400  0.64498700  0.28261000  1
  C  64  1  0.84277200  0.66039600  0.23062100  1
  C  65  1  0.80965700  0.65042700  0.24682900  1
  C  66  1  0.80951400  0.64283400  0.28220300  1
  C  67  1  0.84450100  0.63726400  0.29897200  1
  C  68  1  0.98934100  0.65150000  0.29049800  1
  C  69  1  0.01924800  0.66754600  0.27127900  1
  C  70  1  0.01100000  0.68590000  0.24032300  1
  C  71  1  0.97446900  0.68944600  0.22902900  1
  C  84  1  0.91807700  0.63500700  0.29768800  1
  C  85  1  0.90883700  0.67499700  0.23024200  1
  C  88  1  0.92728100  0.57671800  0.35312200  1
  C  95  1  0.64314000  0.92428600  0.83489600  1
  C  96  1  0.61468700  0.91801400  0.85979800  1
  C  97  1  0.56444300  0.92191300  0.81505700  1
  C  98  1  0.59162700  0.92146300  0.78850500  1
  C  99  1  0.57721700  0.91835100  0.75442600  1
  C  100  1  0.53839400  0.91767100  0.74686700  1
  C  101  1  0.51296600  0.92305400  0.77380600  1
  C  102  1  0.52579400  0.92403800  0.80762900  1
  C  103  1  0.62326400  0.91414000  0.89497100  1
  C  104  1  0.65960700  0.91972700  0.90694000  1
  C  105  1  0.68799800  0.93031500  0.88410800  1
  C  106  1  0.67982700  0.93091400  0.84826200  1
  C  107  1  0.65330500  0.89240800  0.77851100  1
  C  108  1  0.67261900  0.89852100  0.74697200  1
  C  109  1  0.65855300  0.96666700  0.74770500  1
  C  110  1  0.64369900  0.96393800  0.78145000  1
  C  111  1  0.65989000  0.00087800  0.72980900  1
  C  112  1  0.64979200  0.03394900  0.74605700  1
  C  113  1  0.64160200  0.03387100  0.78132000  1
  C  114  1  0.63576000  0.99883000  0.79785800  1
  C  115  1  0.65037400  0.85416700  0.78948100  1
  C  116  1  0.66679200  0.82429600  0.77048600  1
  C  117  1  0.68539300  0.83253700  0.73964600  1
  C  118  1  0.68876000  0.86904500  0.72822800  1
  C  131  1  0.63354000  0.92536100  0.79638700  1
  C  132  1  0.67414000  0.93468500  0.72926800  1
  C  135  1  0.57452800  0.91825400  0.85140900  1
  C  142  1  0.19935100  0.92119400  0.83277400  1
  C  143  1  0.22598000  0.93775400  0.85535000  1
  C  144  1  0.27516900  0.93783000  0.80928700  1
  C  145  1  0.24959100  0.92166400  0.78560900  1
  C  146  1  0.26504500  0.91101600  0.75324800  1
  C  147  1  0.30358700  0.91372600  0.74528900  1
  C  148  1  0.32754100  0.93072200  0.76912700  1
  C  149  1  0.31328800  0.94312600  0.80058900  1
  C  150  1  0.21778500  0.94334300  0.89045800  1
  C  151  1  0.18443700  0.93021700  0.90477500  1
  C  152  1  0.15809500  0.91186100  0.88411300  1
  C  153  1  0.16514600  0.90907100  0.84822100  1
  C  154  1  0.18869100  0.95026300  0.77533900  1
  C  155  1  0.16894000  0.94356100  0.74417100  1
  C  156  1  0.17959000  0.87495000  0.74787900  1
  C  157  1  0.19606800  0.87852100  0.78097900  1
  C  158  1  0.17801300  0.84040600  0.73058000  1
  C  159  1  0.18982700  0.80792300  0.74676200  1
  C  160  1  0.19891200  0.80858800  0.78183200  1
  C  161  1  0.20491800  0.84401300  0.79770200  1
  C  162  1  0.19204000  0.98884800  0.78528100  1
  C  163  1  0.17616100  0.01838600  0.76556800  1
  C  164  1  0.15751000  0.00959000  0.73492300  1
  C  165  1  0.15352400  0.97276400  0.72452000  1
  C  178  1  0.20781900  0.91755900  0.79419600  1
  C  179  1  0.16532900  0.90667900  0.72821000  1
  C  182  1  0.26368200  0.94936700  0.84402600  1
  C  189  1  0.92130900  0.20034600  0.66133900  1
  C  190  1  0.90496100  0.22699700  0.63866100  1
  C  191  1  0.90459500  0.27620400  0.68470100  1
  C  192  1  0.92062500  0.25065900  0.70848600  1
  C  193  1  0.93091600  0.26613200  0.74094300  1
  C  194  1  0.92791600  0.30465700  0.74892700  1
  C  195  1  0.91101400  0.32854400  0.72497800  1
  C  196  1  0.89904500  0.31428600  0.69338600  1
  C  197  1  0.89944600  0.21874700  0.60355800  1
  C  198  1  0.91229800  0.18523000  0.58937700  1
  C  199  1  0.93043600  0.15883200  0.61014100  1
  C  200  1  0.93319900  0.16599400  0.64601800  1
  C  201  1  0.96396100  0.19729500  0.71311700  1
  C  202  1  0.96765800  0.18087300  0.74622900  1
  C  203  1  0.89904000  0.17024300  0.75012900  1
  C  204  1  0.89231100  0.18962400  0.71877200  1
  C  205  1  0.86985400  0.15477300  0.76977300  1
  C  206  1  0.83304700  0.15823500  0.75911800  1
  C  207  1  0.82428600  0.17651500  0.72827900  1
  C  208  1  0.85376800  0.19254700  0.70862000  1
  C  209  1  0.99836600  0.20603500  0.69619700  1
  C  210  1  0.03386800  0.19986000  0.71183600  1
  C  211  1  0.03479400  0.19053600  0.74684700  1
  C  212  1  0.00233200  0.17909100  0.76330300  1
  C  225  1  0.92490000  0.20889700  0.69990700  1
  C  226  1  0.93595800  0.16682200  0.76608800  1
  C  229  1  0.89336700  0.26472800  0.64988500  1
  C  236  1  0.91878100  0.64508300  0.65771600  1
  C  237  1  0.92475700  0.61665500  0.63272400  1
  C  238  1  0.92100500  0.56627100  0.67732400  1
  C  239  1  0.92173500  0.59337700  0.70394100  1
  C  240  1  0.92544300  0.57884300  0.73792700  1
  C  241  1  0.92660700  0.53999500  0.74533200  1
  C  242  1  0.92103000  0.51461300  0.71839500  1
  C  243  1  0.91923500  0.52758000  0.68464800  1
  C  244  1  0.92878900  0.62529900  0.59758200  1
  C  245  1  0.92373300  0.66175400  0.58572800  1
  C  246  1  0.91344500  0.69021000  0.60860100  1
  C  247  1  0.91255900  0.68188700  0.64443000  1
  C  248  1  0.87921500  0.64541000  0.71131000  1
  C  249  1  0.87665400  0.65996200  0.74517800  1
  C  250  1  0.94474400  0.67420400  0.74571400  1
  C  251  1  0.95078700  0.65499900  0.71410600  1
  C  252  1  0.97425500  0.69013800  0.76455300  1
  C  253  1  0.01077200  0.68645800  0.75327600  1
  C  254  1  0.01900400  0.66787300  0.72243100  1
  C  255  1  0.98905600  0.65183000  0.70325100  1
  C  256  1  0.84419600  0.63771700  0.69500000  1
  C  257  1  0.80923800  0.64335400  0.71179700  1
  C  258  1  0.80942600  0.65105000  0.74715200  1
  C  259  1  0.84258000  0.66101900  0.76330000  1
  C  272  1  0.91776400  0.63533400  0.69620700  1
  C  273  1  0.90865100  0.67561000  0.76352300  1
  C  276  1  0.92418100  0.57647000  0.64097300  1
  C  283  1  0.19963900  0.92167200  0.16216000  1
  C  284  1  0.22616700  0.93806800  0.13938800  1
  C  285  1  0.27562300  0.93836700  0.18519400  1
  C  286  1  0.25020300  0.92230900  0.20907500  1
  C  287  1  0.26584400  0.91203200  0.24146900  1
  C  288  1  0.30440500  0.91507200  0.24930000  1
  C  289  1  0.32817400  0.93194600  0.22523900  1
  C  290  1  0.31375300  0.94392000  0.19371100  1
  C  291  1  0.21774400  0.94363100  0.10432500  1
  C  292  1  0.18418800  0.93073900  0.09025800  1
  C  293  1  0.15790900  0.91254300  0.11110400  1
  C  294  1  0.16523700  0.90973200  0.14695500  1
  C  295  1  0.19677600  0.87906000  0.21402200  1
  C  296  1  0.18050700  0.87547200  0.24720500  1
  C  297  1  0.16999600  0.94410100  0.25103800  1
  C  298  1  0.18931900  0.95077400  0.21964200  1
  C  299  1  0.15471700  0.97332100  0.27076400  1
  C  300  1  0.15840900  0.01013000  0.26020400  1
  C  301  1  0.17667300  0.01887200  0.22935500  1
  C  302  1  0.19235700  0.98932800  0.20952300  1
  C  303  1  0.20535000  0.84456100  0.19715900  1
  C  304  1  0.19920600  0.80910500  0.21293200  1
  C  305  1  0.19010400  0.80834600  0.24799500  1
  C  306  1  0.17874700  0.84086600  0.26438400  1
  C  319  1  0.20838200  0.91809200  0.20069700  1
  C  320  1  0.16652000  0.90721600  0.26702500  1
  C  323  1  0.26395600  0.94965600  0.15044800  1
  C  330  1  0.64456600  0.92367800  0.15705200  1
  C  331  1  0.61604500  0.91763500  0.13216400  1
  C  332  1  0.56583900  0.92151600  0.17692100  1
  C  333  1  0.59304500  0.92074900  0.20344900  1
  C  334  1  0.57864100  0.91714400  0.23748900  1
  C  335  1  0.53981900  0.91614600  0.24502900  1
  C  336  1  0.51434600  0.92172500  0.21816200  1
  C  337  1  0.52718400  0.92343100  0.18437100  1
  C  338  1  0.62455400  0.91363400  0.09699200  1
  C  339  1  0.66095200  0.91872900  0.08501300  1
  C  340  1  0.68947000  0.92911200  0.10778800  1
  C  341  1  0.68130200  0.92995800  0.14364200  1
  C  342  1  0.64496400  0.96340000  0.21050300  1
  C  343  1  0.65948600  0.96619300  0.24436700  1
  C  344  1  0.67412500  0.89817900  0.24505400  1
  C  345  1  0.65484100  0.89192300  0.21352000  1
  C  346  1  0.69035600  0.86881300  0.26387600  1
  C  347  1  0.68703100  0.83226100  0.25258500  1
  C  348  1  0.66836200  0.82384400  0.22181900  1
  C  349  1  0.65194600  0.85362700  0.20269500  1
  C  350  1  0.63709700  0.99828100  0.19403900  1
  C  351  1  0.64266500  0.03333400  0.21064800  1
  C  352  1  0.65036700  0.03341800  0.24600200  1
  C  353  1  0.66041700  0.00037800  0.26232600  1
  C  366  1  0.63496400  0.92477600  0.19557100  1
  C  367  1  0.67528900  0.93432800  0.26280500  1
  C  370  1  0.57589100  0.91828300  0.14053700  1
  C  377  1  0.13867800  0.10488500  0.22597300  1
  C  378  1  0.10484500  0.09930700  0.24446900  1
  C  379  1  0.09170500  0.12604900  0.26857100  1
  C  380  1  0.11112900  0.16014400  0.27382900  1
  C  381  1  0.14470300  0.16564500  0.25513400  1
  C  382  1  0.15845600  0.13847300  0.23200800  1
  C  384  1  0.03940800  0.08601300  0.28188500  1
  C  385  1  0.05226300  0.05946500  0.25763400  1
  C  389  1  0.00511400  0.08158200  0.30255900  1
  C  393  1  0.03426800  0.02336800  0.24930800  1
  C  397  1  0.15338300  0.07536600  0.20664500  1
  C  399  1  0.09864400  0.18777400  0.29681900  1
  C  401  1  0.70686800  0.73807600  0.22199500  1
  C  402  1  0.74025800  0.74380200  0.24117500  1
  C  403  1  0.75274100  0.71736500  0.26586000  1
  C  404  1  0.73298700  0.68350800  0.27128200  1
  C  405  1  0.69977700  0.67791600  0.25206600  1
  C  406  1  0.68677600  0.70470000  0.22819100  1
  C  408  1  0.80475800  0.75745400  0.27993300  1
  C  409  1  0.79248100  0.78380500  0.25525400  1
  C  413  1  0.83856700  0.76201200  0.30126800  1
  C  417  1  0.81054000  0.81994000  0.24719400  1
  C  421  1  0.69295000  0.76716700  0.20153000  1
  C  423  1  0.74448700  0.65656500  0.29535900  1
  C  425  1  0.73837900  0.13783500  0.72449700  1
  C  426  1  0.74361500  0.10395700  0.74302100  1
  C  427  1  0.71647300  0.09080900  0.76674400  1
  C  428  1  0.68250200  0.11048700  0.77182800  1
  C  429  1  0.67737300  0.14413300  0.75315500  1
  C  430  1  0.70480800  0.15774300  0.73023400  1
  C  432  1  0.75624100  0.03846100  0.78057700  1
  C  433  1  0.78328800  0.05143800  0.75684300  1
  C  437  1  0.76022900  0.00407300  0.80121200  1
  C  441  1  0.81962700  0.03357800  0.74918100  1
  C  445  1  0.76826700  0.15267300  0.70566800  1
  C  447  1  0.65506900  0.09871700  0.79529300  1
  C  449  1  0.10480500  0.70546000  0.72301800  1
  C  450  1  0.09884200  0.73873100  0.74230600  1
  C  451  1  0.12499400  0.75108600  0.76729300  1
  C  452  1  0.15898000  0.73153300  0.77269400  1
  C  453  1  0.16484300  0.69847700  0.75333000  1
  C  454  1  0.13821300  0.68545700  0.72931200  1
  C  456  1  0.08483100  0.80313800  0.78107600  1
  C  457  1  0.05883500  0.79106900  0.75600200  1
  C  461  1  0.08006900  0.83689600  0.80242900  1
  C  465  1  0.02294400  0.80935800  0.74746900  1
  C  469  1  0.07605300  0.69175500  0.70203700  1
  C  471  1  0.18627600  0.74365800  0.79620300  1
  C  473  1  0.70567900  0.73870000  0.77137000  1
  C  474  1  0.73928600  0.74438000  0.75250700  1
  C  475  1  0.75213800  0.71780600  0.72810500  1
  C  476  1  0.73249300  0.68389700  0.72261800  1
  C  477  1  0.69906800  0.67835400  0.74153000  1
  C  478  1  0.68573700  0.70524400  0.76515000  1
  C  480  1  0.80429700  0.75788400  0.71442900  1
  C  481  1  0.79160700  0.78440000  0.73878000  1
  C  485  1  0.83846600  0.76229500  0.69355200  1
  C  489  1  0.80949000  0.82062200  0.74684700  1
  C  493  1  0.69140000  0.76792200  0.79145900  1
  C  495  1  0.74415900  0.65693400  0.69862300  1
  C  497  1  0.13840300  0.10463800  0.76807200  1
  C  498  1  0.10456700  0.09904100  0.74957800  1
  C  499  1  0.09149800  0.12567500  0.72534700  1
  C  500  1  0.11099500  0.15970000  0.71994100  1
  C  501  1  0.14458400  0.16521300  0.73861600  1
  C  502  1  0.15827700  0.13812900  0.76186300  1
  C  504  1  0.03912000  0.08567600  0.71218700  1
  C  505  1  0.05190900  0.05923000  0.73655600  1
  C  509  1  0.00480900  0.08122200  0.69153600  1
  C  513  1  0.03385500  0.02320200  0.74502700  1
  C  517  1  0.15304100  0.07513800  0.78748500  1
  C  519  1  0.09859900  0.18721000  0.69678600  1
  C  521  1  0.10495300  0.70544600  0.27119500  1
  C  522  1  0.09895300  0.73878000  0.25201000  1
  C  523  1  0.12521100  0.75138400  0.22722100  1
  C  524  1  0.15927800  0.73196500  0.22186200  1
  C  525  1  0.16516400  0.69883000  0.24111200  1
  C  526  1  0.13847300  0.68560600  0.26497500  1
  C  528  1  0.08489800  0.80332400  0.21345500  1
  C  529  1  0.05877400  0.79097800  0.23830300  1
  C  533  1  0.08011900  0.83718100  0.19223200  1
  C  537  1  0.02272000  0.80902300  0.24669000  1
  C  541  1  0.07613500  0.69152800  0.29197100  1
  C  543  1  0.18655500  0.74420600  0.19839300  1
  C  545  1  0.73857200  0.13783900  0.26847800  1
  C  546  1  0.74402200  0.10373700  0.25036800  1
  C  547  1  0.71724300  0.09039600  0.22638400  1
  C  548  1  0.68338400  0.11007100  0.22066600  1
  C  549  1  0.67801200  0.14390200  0.23900200  1
  C  550  1  0.70510700  0.15771500  0.26216200  1
  C  552  1  0.75716500  0.03785800  0.21354900  1
  C  553  1  0.78384000  0.05104000  0.23753800  1
  C  557  1  0.76141500  0.00323200  0.19329500  1
  C  561  1  0.82003400  0.03322000  0.24583900  1
  C  565  1  0.76820600  0.15280000  0.28747700  1
  C  567  1  0.65634200  0.09819600  0.19685400  1
  C  569  1  0.94097000  0.38200800  0.19750100  1
  C  570  1  0.92508300  0.40171500  0.16948900  1
  C  571  1  0.92267900  0.44141800  0.16962400  1
  C  572  1  0.93657400  0.46286100  0.19757000  1
  C  573  1  0.95464000  0.44296100  0.22422700  1
  C  574  1  0.95639000  0.40347800  0.22446300  1
  C  576  1  0.89785700  0.43987000  0.11203800  1
  C  577  1  0.90043200  0.40032300  0.11191100  1
  C  581  1  0.88512700  0.46250400  0.08257400  1
  C  585  1  0.89088200  0.37555000  0.08284900  1
  C  589  1  0.94915300  0.34397400  0.19424800  1
  C  591  1  0.93822400  0.50200800  0.19496000  1
  C  593  1  0.46164500  0.90591000  0.69703700  1
  C  594  1  0.43929600  0.92012500  0.66983700  1
  C  595  1  0.39963700  0.91723600  0.67056200  1
  C  596  1  0.38091500  0.90049400  0.69871300  1
  C  597  1  0.40325100  0.88489200  0.72498100  1
  C  598  1  0.44269400  0.88707900  0.72383600  1
  C  600  1  0.39637300  0.94315700  0.61354200  1
  C  601  1  0.43588100  0.94618300  0.61277800  1
  C  605  1  0.37154900  0.95335300  0.58473700  1
  C  609  1  0.45845300  0.95975700  0.58355800  1
  C  613  1  0.50070600  0.90460400  0.69348300  1
  C  615  1  0.34301500  0.89159300  0.69597400  1
  C  617  1  0.94135900  0.38236600  0.79505700  1
  C  618  1  0.92524900  0.40219000  0.82290100  1
  C  619  1  0.92354600  0.44192700  0.82293400  1
  C  620  1  0.93828500  0.46326400  0.79531300  1
  C  621  1  0.95630200  0.44323600  0.76871000  1
  C  622  1  0.95742600  0.40372300  0.76833000  1
  C  624  1  0.89762900  0.44053900  0.88009500  1
  C  625  1  0.89943600  0.40094700  0.88005200  1
  C  629  1  0.88474400  0.46325100  0.90945100  1
  C  633  1  0.88876200  0.37619600  0.90879800  1
  C  637  1  0.94919400  0.34426500  0.79843700  1
  C  639  1  0.94107600  0.50227700  0.79842200  1
  C  641  1  0.38233600  0.90172900  0.29519200  1
  C  642  1  0.40223600  0.91785900  0.32297700  1
  C  643  1  0.44197300  0.91955600  0.32292600  1
  C  644  1  0.46323900  0.90478600  0.29526900  1
  C  645  1  0.44313300  0.88675500  0.26872200  1
  C  646  1  0.40361900  0.88564500  0.26842500  1
  C  648  1  0.44073500  0.94550100  0.38008200  1
  C  649  1  0.40114000  0.94370800  0.38012000  1
  C  653  1  0.46352300  0.95838600  0.40938900  1
  C  657  1  0.37646200  0.95440100  0.40891000  1
  C  661  1  0.34425200  0.89385700  0.29868000  1
  C  663  1  0.50226400  0.90200100  0.29828500  1
  C  665  1  0.94407000  0.11459300  0.53397900  1
  C  666  1  0.92994800  0.08406100  0.51453000  1
  C  667  1  0.93029500  0.08438900  0.47799400  1
  C  668  1  0.94474600  0.11527600  0.45925500  1
  C  669  1  0.95871500  0.14565900  0.47875800  1
  C  670  1  0.95842400  0.14529600  0.51512400  1
  C  672  1  0.90683000  0.02110900  0.47741800  1
  C  673  1  0.90646400  0.02077500  0.51370000  1
  C  677  1  0.89594300  0.98873800  0.45606700  1
  C  681  1  0.89513600  0.98800100  0.53433000  1
  C  685  1  0.95268700  0.10935300  0.56893100  1
  C  687  1  0.95416100  0.11054300  0.42442800  1
  C  689  1  0.90219100  0.73928500  0.53422000  1
  C  690  1  0.91770000  0.76903100  0.51458100  1
  C  691  1  0.91700900  0.76878500  0.47803000  1
  C  692  1  0.90087000  0.73874300  0.45926200  1
  C  693  1  0.88425400  0.70986200  0.47896000  1
  C  694  1  0.88483600  0.71017200  0.51533500  1
  C  696  1  0.94336800  0.83093300  0.47733300  1
  C  697  1  0.94412300  0.83118100  0.51360000  1
  C  701  1  0.95514300  0.86293000  0.45591300  1
  C  705  1  0.95682800  0.86346800  0.53418700  1
  C  709  1  0.89659300  0.74410600  0.56985400  1
  C  711  1  0.89379500  0.74318700  0.42384100  1
  C  713  1  0.73820000  0.94043800  0.03326200  1
  C  714  1  0.76790000  0.92494900  0.01356100  1
  C  715  1  0.76745400  0.92545300  0.97701100  1
  C  716  1  0.73728600  0.94144400  0.95830000  1
  C  717  1  0.70849500  0.95813000  0.97806200  1
  C  718  1  0.70897400  0.95768100  0.01443600  1
  C  720  1  0.82970600  0.89932100  0.97615500  1
  C  721  1  0.83016800  0.89880800  0.01242000  1
  C  725  1  0.86162600  0.88755400  0.95463500  1
  C  729  1  0.86265400  0.88643600  0.03291500  1
  C  733  1  0.74315000  0.94614200  0.06886300  1
  C  735  1  0.74154800  0.94828100  0.92281200  1
  C  737  1  0.11342700  0.89903400  0.03505300  1
  C  738  1  0.08284800  0.91326000  0.01572800  1
  C  739  1  0.08301500  0.91296500  0.97918900  1
  C  740  1  0.11379300  0.89847700  0.96031600  1
  C  741  1  0.14422700  0.88441600  0.97969900  1
  C  742  1  0.14401800  0.88464700  0.01606800  1
  C  744  1  0.01978600  0.93658300  0.97888700  1
  C  745  1  0.01962200  0.93690900  0.01517000  1
  C  749  1  0.98733400  0.94756800  0.95768200  1
  C  753  1  0.98698000  0.94830700  0.03594100  1
  C  757  1  0.10830500  0.89034500  0.07000800  1
  C  759  1  0.10892800  0.88918700  0.92546900  1
  N  44  1  0.06596900  0.20332500  0.29901500  1
  N  45  1  0.94716700  0.12946700  0.39694600  1
  N  46  1  0.94219300  0.31628900  0.21432800  1
  N  47  1  0.78769700  0.17571000  0.26932100  1
  N  91  1  0.77693100  0.64084300  0.29893900  1
  N  92  1  0.89977600  0.72262300  0.39710400  1
  N  93  1  0.93317700  0.52815700  0.21719200  1
  N  94  1  0.05618900  0.66692500  0.27614800  1
  N  138  1  0.63927800  0.06625900  0.79828100  1
  N  139  1  0.72070800  0.94255700  0.89621600  1
  N  140  1  0.52742900  0.90997000  0.71508500  1
  N  141  1  0.66649000  0.78739100  0.77558000  1
  N  185  1  0.20176900  0.77632600  0.79902100  1
  N  186  1  0.12789500  0.89601400  0.89797100  1
  N  187  1  0.31543500  0.89866700  0.71612800  1
  N  188  1  0.17648100  0.05529900  0.77024200  1
  N  232  1  0.78745400  0.17632200  0.72323300  1
  N  233  1  0.94587800  0.12834700  0.59642200  1
  N  234  1  0.94225600  0.31655000  0.77838300  1
  N  235  1  0.06594100  0.20276900  0.69439800  1
  N  279  1  0.05595600  0.66707600  0.71761100  1
  N  280  1  0.90214200  0.72328000  0.59650900  1
  N  281  1  0.93545800  0.52894900  0.77682800  1
  N  282  1  0.77664800  0.64129900  0.69509200  1
  N  326  1  0.17651700  0.05573400  0.22444000  1
  N  327  1  0.12737700  0.89710100  0.09746500  1
  N  328  1  0.31645200  0.90075600  0.27871300  1
  N  329  1  0.20201800  0.77689000  0.19566300  1
  N  373  1  0.66790000  0.78689500  0.21696400  1
  N  374  1  0.72245100  0.94054100  0.09559000  1
  N  375  1  0.52887100  0.90747600  0.27659900  1
  N  376  1  0.64061200  0.06572700  0.19366600  1
  N  383  1  0.05988500  0.11770400  0.28606700  1
  N  386  1  0.08428200  0.06756600  0.24054200  1
  N  407  1  0.78413700  0.72583800  0.28393800  1
  N  410  1  0.76095700  0.77549100  0.23748100  1
  N  431  1  0.72449300  0.05894900  0.78431000  1
  N  434  1  0.77547100  0.08345500  0.73963100  1
  N  455  1  0.11635000  0.78243600  0.78537400  1
  N  458  1  0.06729600  0.75957000  0.73825500  1
  N  479  1  0.78377100  0.72621800  0.71034900  1
  N  482  1  0.75985400  0.77615000  0.75623600  1
  N  503  1  0.05967000  0.11729800  0.70787100  1
  N  506  1  0.08392800  0.06736700  0.75363200  1
  N  527  1  0.11654500  0.78279900  0.20924100  1
  N  530  1  0.06726600  0.75942600  0.25596000  1
  N  551  1  0.72551500  0.05835600  0.20920000  1
  N  554  1  0.77579200  0.08323800  0.25437100  1
  N  575  1  0.90912900  0.45808000  0.14079800  1
  N  578  1  0.91385800  0.38353300  0.14060600  1
  N  599  1  0.38051200  0.92887500  0.64234400  1
  N  602  1  0.45499700  0.93448500  0.64088800  1
  N  623  1  0.90979300  0.45869900  0.85161900  1
  N  626  1  0.91313200  0.38406300  0.85150800  1
  N  647  1  0.45882200  0.93332000  0.35157200  1
  N  650  1  0.38418500  0.93000000  0.35161800  1
  N  671  1  0.91882900  0.05276500  0.46162000  1
  N  674  1  0.91815300  0.05212900  0.53019700  1
  N  695  1  0.92986100  0.79985100  0.46163000  1
  N  698  1  0.93123500  0.80033600  0.53013300  1
  N  719  1  0.79848000  0.91261000  0.96053700  1
  N  722  1  0.79935500  0.91164900  0.02903200  1
  N  743  1  0.05134100  0.92452800  0.96295300  1
  N  746  1  0.05102100  0.92511700  0.03153100  1
