# generated using pymatgen
data_H26C41N6
_symmetry_space_group_name_H-M   'P 1'
_cell_length_a   25.89310000
_cell_length_b   35.18910000
_cell_length_c   35.18910000
_cell_angle_alpha   90.00000000
_cell_angle_beta   90.00000000
_cell_angle_gamma   90.00000000
_symmetry_Int_Tables_number   1
_chemical_formula_structural   H26C41N6
_chemical_formula_sum   'H104 C164 N24'
_cell_volume   32062.72037114
_cell_formula_units_Z   4
loop_
 _symmetry_equiv_pos_site_id
 _symmetry_equiv_pos_as_xyz
  1  'x, y, z'
loop_
 _atom_site_type_symbol
 _atom_site_label
 _atom_site_symmetry_multiplicity
 _atom_site_fract_x
 _atom_site_fract_y
 _atom_site_fract_z
 _atom_site_occupancy
  H  25  1  0.03453400  0.14338200  0.26444300  1
  H  26  1  0.09261700  0.12571300  0.31402600  1
  H  27  1  0.14293200  0.09929800  0.36440800  1
  H  28  1  0.18728000  0.06306200  0.41154200  1
  H  29  1  0.07592100  0.97550700  0.40218400  1
  H  30  1  0.94723400  0.04338600  0.28291300  1
  H  31  1  0.95270300  0.05440600  0.40058700  1
  H  32  1  0.84438400  0.96482500  0.41013300  1
  H  33  1  0.89080200  0.92887000  0.36378000  1
  H  34  1  0.08789300  0.98667000  0.28542400  1
  H  35  1  0.94606800  0.90106900  0.31665200  1
  H  36  1  0.00819600  0.88283600  0.26985700  1
  H  66  1  0.53459900  0.88372600  0.76261700  1
  H  67  1  0.59261400  0.90138500  0.71298200  1
  H  68  1  0.64287100  0.92780200  0.66256900  1
  H  69  1  0.68718400  0.96405200  0.61543000  1
  H  70  1  0.57585300  0.05161900  0.62487300  1
  H  71  1  0.44730100  0.98373700  0.74421700  1
  H  72  1  0.45268500  0.97273900  0.62649000  1
  H  73  1  0.34432700  0.06231100  0.61703800  1
  H  74  1  0.39080000  0.09826400  0.66336800  1
  H  75  1  0.58790600  0.04042000  0.74165900  1
  H  76  1  0.44607300  0.12603500  0.71051900  1
  H  77  1  0.50821300  0.14423000  0.75732000  1
  H  107  1  0.28460800  0.76254000  0.14344700  1
  H  108  1  0.34259100  0.71289200  0.12577900  1
  H  109  1  0.39284300  0.66247500  0.09933300  1
  H  110  1  0.43710500  0.61531000  0.06308200  1
  H  111  1  0.32583500  0.62486700  0.97549000  1
  H  112  1  0.19733700  0.74422200  0.04340600  1
  H  113  1  0.20268900  0.62651500  0.05439000  1
  H  114  1  0.09431200  0.61708100  0.96482800  1
  H  115  1  0.14079200  0.66339900  0.92887000  1
  H  116  1  0.33794800  0.74164200  0.98668400  1
  H  117  1  0.19608900  0.71052400  0.90108600  1
  H  118  1  0.25824600  0.75730900  0.88287900  1
  H  148  1  0.78453400  0.26457000  0.88367200  1
  H  149  1  0.84258400  0.31416800  0.90136200  1
  H  150  1  0.89290300  0.36453900  0.92782500  1
  H  151  1  0.93717000  0.41171000  0.96406600  1
  H  152  1  0.82584600  0.40223000  0.05162800  1
  H  153  1  0.69728300  0.28291200  0.98372000  1
  H  154  1  0.70267400  0.40059900  0.97275900  1
  H  155  1  0.59437100  0.41007000  0.06236100  1
  H  156  1  0.64083600  0.36371800  0.09829300  1
  H  157  1  0.83790000  0.28541200  0.04038600  1
  H  158  1  0.69616700  0.31659500  0.12607500  1
  H  159  1  0.75829900  0.26977100  0.14423800  1
  H  171  1  0.87642700  0.24458700  0.17692300  1
  H  172  1  0.91664700  0.21416500  0.22868300  1
  H  173  1  0.89425100  0.10750900  0.17709400  1
  H  175  1  0.85359900  0.10456000  0.11656400  1
  H  176  1  0.83456700  0.14289600  0.09309800  1
  H  178  1  0.93752900  0.15854300  0.26252900  1
  H  180  1  0.79274500  0.20359800  0.11821900  1
  H  187  1  0.37695100  0.78247800  0.85023500  1
  H  188  1  0.41716200  0.81295100  0.79850300  1
  H  189  1  0.39397800  0.91961500  0.84988900  1
  H  191  1  0.35314900  0.92251900  0.91036200  1
  H  192  1  0.33426100  0.88415500  0.93384600  1
  H  194  1  0.43754900  0.86862200  0.76453300  1
  H  196  1  0.29283500  0.82343200  0.90882400  1
  H  203  1  0.12721400  0.85032600  0.24467100  1
  H  204  1  0.16748300  0.79861100  0.21421600  1
  H  205  1  0.14376700  0.84976600  0.10750700  1
  H  207  1  0.10276500  0.91017100  0.10456900  1
  H  208  1  0.08394000  0.93369900  0.14292300  1
  H  210  1  0.18758300  0.76451300  0.15854500  1
  H  212  1  0.04273500  0.90884700  0.20374400  1
  H  219  1  0.62696700  0.17686100  0.78247000  1
  H  220  1  0.66717100  0.22860500  0.81292500  1
  H  221  1  0.64393300  0.17727500  0.91960900  1
  H  223  1  0.60310000  0.11680400  0.92253300  1
  H  224  1  0.58422200  0.09330200  0.88417800  1
  H  226  1  0.68747700  0.26262900  0.86859300  1
  H  228  1  0.54280900  0.11830900  0.82344000  1
  H  235  1  0.77044500  0.02880800  0.58055500  1
  H  236  1  0.84706400  0.02947100  0.54376800  1
  H  237  1  0.75924200  0.03117200  0.44345300  1
  H  239  1  0.66793200  0.03164200  0.44717000  1
  H  240  1  0.63635900  0.03121600  0.48810900  1
  H  242  1  0.87049900  0.99629800  0.47915700  1
  H  244  1  0.66273700  0.99207800  0.54758700  1
  H  251  1  0.27057900  0.99845200  0.44650800  1
  H  252  1  0.34715700  0.99781200  0.48334600  1
  H  253  1  0.25921800  0.99590800  0.58360100  1
  H  255  1  0.16791300  0.99537100  0.57982200  1
  H  256  1  0.13638900  0.99582300  0.53886300  1
  H  258  1  0.37045400  0.03093000  0.54803100  1
  H  260  1  0.16280900  0.03506300  0.47942400  1
  H  267  1  0.02047100  0.44657000  0.02857000  1
  H  268  1  0.09708500  0.48336900  0.02919100  1
  H  269  1  0.00923900  0.58366700  0.03133100  1
  H  271  1  0.91792900  0.57993000  0.03194500  1
  H  272  1  0.88636800  0.53898800  0.03145700  1
  H  274  1  0.12043200  0.54807600  0.99618700  1
  H  276  1  0.91281900  0.47956900  0.99209200  1
  H  283  1  0.52040600  0.58052100  0.99847700  1
  H  284  1  0.59705500  0.54376500  0.99786900  1
  H  285  1  0.50931000  0.44341600  0.99589700  1
  H  287  1  0.41799600  0.44710200  0.99529200  1
  H  288  1  0.38639700  0.48802900  0.99573500  1
  H  290  1  0.62057900  0.47911500  0.03091800  1
  H  292  1  0.41277500  0.54748200  0.03502200  1
  C  1  1  0.02087100  0.97975600  0.31949400  1
  C  2  1  0.98050600  0.95469400  0.32798000  1
  C  3  1  0.94929600  0.97043700  0.35569000  1
  C  4  1  0.96801600  0.00642900  0.36574400  1
  C  5  1  0.94021700  0.02783600  0.39332700  1
  C  6  1  0.89524300  0.01235400  0.41085200  1
  C  7  1  0.87763600  0.97609000  0.39909000  1
  C  8  1  0.90447700  0.95488700  0.37186000  1
  C  9  1  0.97528000  0.91936800  0.30984600  1
  C  10  1  0.01158300  0.90905800  0.28223500  1
  C  11  1  0.05254000  0.93375300  0.27202700  1
  C  12  1  0.05775600  0.96894800  0.29157100  1
  C  13  1  0.01215100  0.05020200  0.31914400  1
  C  14  1  0.05318900  0.07459500  0.32787200  1
  C  15  1  0.08305400  0.05880000  0.35632900  1
  C  16  1  0.06285100  0.02335900  0.36668800  1
  C  17  1  0.12814300  0.07368700  0.37270700  1
  C  18  1  0.15376900  0.05231800  0.40042000  1
  C  19  1  0.13464500  0.01657600  0.41254300  1
  C  20  1  0.08941300  0.00177400  0.39479000  1
  C  21  1  0.97725000  0.06093800  0.28980900  1
  C  22  1  0.98391600  0.09600100  0.27018000  1
  C  23  1  0.02746700  0.11877500  0.27908000  1
  C  24  1  0.06170500  0.10866100  0.30811300  1
  C  37  1  0.01581600  0.01502500  0.34309800  1
  C  42  1  0.52087300  0.04735500  0.70761200  1
  C  43  1  0.48050700  0.07241700  0.69914900  1
  C  44  1  0.44927500  0.05668100  0.67144400  1
  C  45  1  0.46799400  0.02069500  0.66137000  1
  C  46  1  0.44018700  0.99929900  0.63378500  1
  C  47  1  0.39514000  0.01475700  0.61634200  1
  C  48  1  0.37758000  0.05104200  0.62807500  1
  C  49  1  0.40444000  0.07223500  0.65530300  1
  C  50  1  0.47529300  0.10773400  0.71730200  1
  C  51  1  0.51159600  0.11801600  0.74492400  1
  C  52  1  0.55253400  0.09330600  0.75514000  1
  C  53  1  0.55776300  0.05814400  0.73553200  1
  C  54  1  0.51216800  0.97691400  0.70793800  1
  C  55  1  0.55319800  0.95252300  0.69918800  1
  C  56  1  0.58303200  0.96831700  0.67071400  1
  C  57  1  0.56285700  0.00378000  0.66040400  1
  C  58  1  0.62809500  0.95342600  0.65430000  1
  C  59  1  0.65368800  0.97479700  0.62657500  1
  C  60  1  0.63456000  0.01054600  0.61447500  1
  C  61  1  0.58935100  0.02535000  0.63225600  1
  C  62  1  0.47730900  0.96618300  0.73730300  1
  C  63  1  0.48402900  0.93114100  0.75695400  1
  C  64  1  0.52753100  0.90834100  0.74799300  1
  C  65  1  0.56173700  0.91845500  0.71894200  1
  C  78  1  0.51581400  0.01209500  0.68399100  1
  C  83  1  0.27090300  0.70760600  0.97975800  1
  C  84  1  0.23052300  0.69915400  0.95470200  1
  C  85  1  0.19928000  0.67146400  0.97044900  1
  C  86  1  0.21800200  0.66138700  0.00643100  1
  C  87  1  0.19018500  0.63381000  0.02783400  1
  C  88  1  0.14513200  0.61637600  0.01237600  1
  C  89  1  0.12756700  0.62811500  0.97609500  1
  C  90  1  0.15443300  0.65533400  0.95489800  1
  C  91  1  0.22531600  0.71730200  0.91938200  1
  C  92  1  0.26163000  0.74491300  0.90909400  1
  C  93  1  0.30257400  0.75512300  0.93380100  1
  C  94  1  0.30780400  0.73551800  0.96896200  1
  C  95  1  0.26223800  0.70796700  0.05019100  1
  C  96  1  0.30322100  0.69916000  0.07460500  1
  C  97  1  0.33303100  0.67067700  0.05880700  1
  C  98  1  0.31285600  0.66038400  0.02333800  1
  C  99  1  0.37806100  0.65422000  0.07370500  1
  C  100  1  0.40362500  0.62647800  0.05233200  1
  C  101  1  0.38448700  0.61438400  0.01658400  1
  C  102  1  0.33932900  0.63222700  0.00176800  1
  C  103  1  0.22734300  0.73729400  0.06095700  1
  C  104  1  0.23405700  0.75692200  0.09601500  1
  C  105  1  0.27754600  0.74793900  0.11881800  1
  C  106  1  0.31174700  0.71888800  0.10868900  1
  C  119  1  0.26583700  0.68399600  0.01502200  1
  C  124  1  0.77089700  0.31948500  0.04736100  1
  C  125  1  0.73055100  0.32795100  0.07243700  1
  C  126  1  0.69931400  0.35566100  0.05670900  1
  C  127  1  0.71803000  0.36574700  0.02072500  1
  C  128  1  0.69019600  0.39331200  0.99932400  1
  C  129  1  0.64519200  0.41078900  0.01481100  1
  C  130  1  0.62761600  0.39903000  0.05108300  1
  C  131  1  0.65447600  0.37179700  0.07226800  1
  C  132  1  0.72536000  0.30979800  0.10775600  1
  C  133  1  0.76166700  0.28217300  0.11802600  1
  C  134  1  0.80257400  0.27194600  0.09329300  1
  C  135  1  0.80778400  0.29155100  0.05812900  1
  C  136  1  0.76218500  0.31916400  0.97691900  1
  C  137  1  0.80324600  0.32789100  0.95255100  1
  C  138  1  0.83305300  0.35638600  0.96833200  1
  C  139  1  0.81286200  0.36670200  0.00378900  1
  C  140  1  0.87810700  0.37281400  0.95344300  1
  C  141  1  0.90367800  0.40055600  0.97480800  1
  C  142  1  0.88452600  0.41267300  0.01054600  1
  C  143  1  0.83934800  0.39485500  0.02535700  1
  C  144  1  0.72729500  0.28982600  0.96616900  1
  C  145  1  0.73398800  0.27020900  0.93110400  1
  C  146  1  0.77748600  0.27916900  0.90830400  1
  C  147  1  0.81172700  0.30819200  0.91844400  1
  C  160  1  0.76583000  0.34310900  0.01210700  1
  C  165  1  0.88134800  0.21572400  0.17538900  1
  C  166  1  0.90433500  0.19753100  0.20655900  1
  C  167  1  0.90882600  0.15749300  0.20829600  1
  C  168  1  0.89106800  0.13651600  0.17658400  1
  C  169  1  0.86721700  0.15436300  0.14479000  1
  C  170  1  0.86215700  0.19479400  0.14407700  1
  C  177  1  0.93199800  0.14131100  0.24035000  1
  C  179  1  0.82871600  0.21361400  0.11927600  1
  C  181  1  0.38170900  0.81136000  0.85173900  1
  C  182  1  0.40468700  0.82957800  0.82058400  1
  C  183  1  0.40894000  0.86962800  0.81879100  1
  C  184  1  0.39096900  0.89059700  0.85044300  1
  C  185  1  0.36711400  0.87272200  0.88222000  1
  C  186  1  0.36227000  0.83228100  0.88297600  1
  C  193  1  0.43205800  0.88583200  0.78673300  1
  C  195  1  0.32879800  0.81338300  0.90767900  1
  C  197  1  0.13188100  0.85179800  0.21578200  1
  C  198  1  0.15489500  0.82064700  0.19757400  1
  C  199  1  0.15900200  0.81878800  0.15752100  1
  C  200  1  0.14086900  0.85037500  0.13652900  1
  C  201  1  0.11697900  0.88214300  0.15439300  1
  C  202  1  0.11226400  0.88296100  0.19484500  1
  C  209  1  0.18209600  0.78671000  0.14133200  1
  C  211  1  0.07871200  0.90760800  0.21373400  1
  C  213  1  0.63171300  0.17536900  0.81135100  1
  C  214  1  0.65469200  0.20653300  0.82956100  1
  C  215  1  0.65892100  0.20834600  0.86960800  1
  C  216  1  0.64094000  0.17670500  0.89059200  1
  C  217  1  0.61708800  0.14492200  0.87272500  1
  C  218  1  0.61225600  0.14414700  0.83228100  1
  C  225  1  0.68200900  0.24042400  0.88580000  1
  C  227  1  0.57877300  0.11944400  0.81339100  1
  C  229  1  0.76686500  0.03246100  0.55177900  1
  C  230  1  0.81250300  0.03275400  0.52997700  1
  C  231  1  0.81077700  0.03244800  0.48984200  1
  C  232  1  0.76148900  0.03348300  0.47244200  1
  C  233  1  0.71497500  0.03258400  0.49388300  1
  C  234  1  0.71749700  0.03143400  0.53438700  1
  C  241  1  0.85384200  0.01996300  0.46946900  1
  C  243  1  0.67651700  0.01720000  0.55593700  1
  C  245  1  0.26697400  0.99476300  0.47527800  1
  C  246  1  0.31258500  0.99448200  0.49710900  1
  C  247  1  0.31081300  0.99473500  0.53724300  1
  C  248  1  0.26150300  0.99363800  0.55461000  1
  C  249  1  0.21501300  0.99452400  0.53314000  1
  C  250  1  0.21758200  0.99572100  0.49263900  1
  C  257  1  0.35383400  0.00722700  0.55766200  1
  C  259  1  0.17660500  0.00994400  0.47107800  1
  C  261  1  0.01690000  0.47533800  0.03230000  1
  C  262  1  0.06253100  0.49714300  0.03257100  1
  C  263  1  0.06079400  0.53728000  0.03238400  1
  C  264  1  0.01150200  0.55466900  0.03355400  1
  C  265  1  0.96499200  0.53322500  0.03267900  1
  C  266  1  0.96752100  0.49272400  0.03141600  1
  C  273  1  0.10381900  0.55769900  0.01989500  1
  C  275  1  0.92647900  0.47119400  0.01724600  1
  C  277  1  0.51686000  0.55174800  0.99478600  1
  C  278  1  0.56251000  0.52996600  0.99452400  1
  C  279  1  0.56082200  0.48982800  0.99476300  1
  C  280  1  0.51154200  0.47241400  0.99363500  1
  C  281  1  0.46500900  0.49383200  0.99449600  1
  C  282  1  0.46750000  0.53433900  0.99570900  1
  C  289  1  0.60389900  0.46946700  0.00725300  1
  C  291  1  0.42644200  0.55586300  0.00987000  1
  N  38  1  0.16396800  0.99764500  0.43769500  1
  N  39  1  0.08757900  0.91993000  0.24774800  1
  N  40  1  0.86439300  0.03086900  0.43524600  1
  N  41  1  0.95326700  0.10806800  0.24181200  1
  N  79  1  0.66386900  0.02948800  0.58931900  1
  N  80  1  0.58761700  0.10711900  0.77938400  1
  N  81  1  0.36436300  0.99626900  0.59187400  1
  N  82  1  0.45338000  0.91905800  0.78531200  1
  N  120  1  0.41380600  0.58925700  0.99761600  1
  N  121  1  0.33764900  0.77937000  0.91999000  1
  N  122  1  0.11435800  0.59190500  0.03086400  1
  N  123  1  0.20341600  0.78528600  0.10810400  1
  N  161  1  0.91383900  0.43780600  0.02951000  1
  N  162  1  0.83762200  0.24765400  0.10706300  1
  N  163  1  0.61436900  0.43523200  0.99633200  1
  N  164  1  0.70335000  0.24184300  0.91902100  1
  N  174  1  0.84952800  0.13208700  0.11596700  1
  N  190  1  0.34921300  0.89498200  0.91098400  1
  N  206  1  0.09891300  0.91083400  0.13211200  1
  N  222  1  0.59917200  0.11617000  0.89499600  1
  N  238  1  0.66923300  0.03089700  0.47484300  1
  N  254  1  0.16924600  0.99615000  0.55215100  1
  N  270  1  0.91923800  0.55225900  0.03112500  1
  N  286  1  0.41927800  0.47477500  0.99607900  1
