# generated using pymatgen
data_CuH5C9NO6
_symmetry_space_group_name_H-M   'P 1'
_cell_length_a   7.49186000
_cell_length_b   8.68855000
_cell_length_c   10.73803000
_cell_angle_alpha   92.10402000
_cell_angle_beta   93.64627000
_cell_angle_gamma   102.50789000
_symmetry_Int_Tables_number   1
_chemical_formula_structural   CuH5C9NO6
_chemical_formula_sum   'Cu2 H10 C18 N2 O12'
_cell_volume   680.08924321
_cell_formula_units_Z   2
loop_
 _symmetry_equiv_pos_site_id
 _symmetry_equiv_pos_as_xyz
  1  'x, y, z'
loop_
 _atom_site_type_symbol
 _atom_site_label
 _atom_site_symmetry_multiplicity
 _atom_site_fract_x
 _atom_site_fract_y
 _atom_site_fract_z
 _atom_site_occupancy
  Cu  Cu0  1  0.31562000  0.48262000  0.48608000  1
  Cu  Cu1  1  0.68438000  0.51738000  0.51392000  1
  H  H2  1  0.58586000  0.73757000  0.89210000  1
  H  H3  1  0.08283000  0.58557000  0.76083000  1
  H  H4  1  0.94925000  0.36348000  0.41685000  1
  H  H5  1  0.98626000  0.25696000  0.68419000  1
  H  H6  1  0.26919000  0.94040000  0.88838000  1
  H  H7  1  0.38437000  0.95102000  0.10750000  1
  H  H8  1  0.48491000  0.20402000  0.22458000  1
  H  H9  1  0.59399000  0.74644000  0.12017000  1
  H  H10  1  0.70389000  0.03785000  0.54761000  1
  H  H11  1  0.30559000  0.96490000  0.43103000  1
  C  C12  1  0.54622000  0.79991000  0.50346000  1
  C  C13  1  0.45500000  0.20051000  0.49040000  1
  C  C14  1  0.50425000  0.50338000  0.26328000  1
  C  C15  1  0.33537000  0.19417000  0.87205000  1
  C  C16  1  0.33235000  0.05412000  0.93407000  1
  C  C17  1  0.39257000  0.05942000  0.05944000  1
  C  C18  1  0.44861000  0.20414000  0.12550000  1
  C  C19  1  0.46227000  0.34636000  0.06366000  1
  C  C20  1  0.20153000  0.18227000  0.76362000  1
  C  C21  1  0.06409000  0.68450000  0.59544000  1
  C  C22  1  0.42460000  0.34183000  0.93284000  1
  C  C23  1  0.48103000  0.48496000  0.87082000  1
  C  C24  1  0.54499000  0.62854000  0.93918000  1
  C  C25  1  0.55333000  0.63357000  0.06820000  1
  C  C26  1  0.51169000  0.49362000  0.12993000  1
  C  C27  1  0.57173000  0.96790000  0.50990000  1
  C  C28  1  0.43414000  0.03362000  0.47408000  1
  C  C29  1  0.49407000  0.48935000  0.73678000  1
  N  N30  1  0.96148000  0.54357000  0.53490000  1
  N  N31  1  0.03852000  0.45643000  0.46510000  1
  O  O32  1  0.38023000  0.71387000  0.49095000  1
  O  O33  1  0.07757000  0.28157000  0.75992000  1
  O  O34  1  0.07467000  0.80724000  0.54261000  1
  O  O35  1  0.12605000  0.68982000  0.72120000  1
  O  O36  1  0.69164000  0.74322000  0.51446000  1
  O  O37  1  0.34426000  0.48532000  0.66859000  1
  O  O38  1  0.65567000  0.51467000  0.69210000  1
  O  O39  1  0.30836000  0.25678000  0.48554000  1
  O  O40  1  0.61977000  0.28613000  0.50905000  1
  O  O41  1  0.34433000  0.48533000  0.30790000  1
  O  O42  1  0.65574000  0.51468000  0.33141000  1
  O  O43  1  0.18601000  0.07524000  0.68434000  1
