# generated using pymatgen
data_H5C8N3
_symmetry_space_group_name_H-M   'P 1'
_cell_length_a   9.81440000
_cell_length_b   30.29040000
_cell_length_c   30.29040000
_cell_angle_alpha   120.00000000
_cell_angle_beta   90.00000000
_cell_angle_gamma   90.00000000
_symmetry_Int_Tables_number   1
_chemical_formula_structural   H5C8N3
_chemical_formula_sum   'H45 C72 N27'
_cell_volume   7798.38016512
_cell_formula_units_Z   9
loop_
 _symmetry_equiv_pos_site_id
 _symmetry_equiv_pos_as_xyz
  1  'x, y, z'
loop_
 _atom_site_type_symbol
 _atom_site_label
 _atom_site_symmetry_multiplicity
 _atom_site_fract_x
 _atom_site_fract_y
 _atom_site_fract_z
 _atom_site_occupancy
  C  1  1  0.97735800  0.87840900  0.44163500  1
  C  4  1  0.98171400  0.93253200  0.46863500  1
  C  6  1  0.10427400  0.96135600  0.48295700  1
  C  28  1  0.96775500  0.79718200  0.36041900  1
  C  29  1  0.97167300  0.79728800  0.44191700  1
  C  30  1  0.97802400  0.85112400  0.46841700  1
  C  31  1  0.97313400  0.85103500  0.38759100  1
  C  40  1  0.96583700  0.77109700  0.38814600  1
  C  42  1  0.96074400  0.76782300  0.30681900  1
  C  44  1  0.08868000  0.70078900  0.23773800  1
  C  45  1  0.83920400  0.74108200  0.28267400  1
  C  49  1  0.08938100  0.74368200  0.46864000  1
  C  50  1  0.96926200  0.76805300  0.46630700  1
  C  79  1  0.96792700  0.53956400  0.18399500  1
  C  80  1  0.96564600  0.59337300  0.21005600  1
  C  81  1  0.97136500  0.62093700  0.18385400  1
  C  82  1  0.97736900  0.59359400  0.13001300  1
  C  83  1  0.97742400  0.53952300  0.10275200  1
  C  84  1  0.97391100  0.51286800  0.13014900  1
  C  88  1  0.96755900  0.62069700  0.44143000  1
  C  89  1  0.96511100  0.59293900  0.38762000  1
  C  90  1  0.97111000  0.53917000  0.36005500  1
  C  91  1  0.97787100  0.51269600  0.38740800  1
  C  92  1  0.97768800  0.53950700  0.44147500  1
  C  93  1  0.97385700  0.59355800  0.46812900  1
  C  97  1  0.96981400  0.17464300  0.63024600  1
  C  98  1  0.96975000  0.20074300  0.60253400  1
  C  99  1  0.97364400  0.17449000  0.54873600  1
  C  100  1  0.97629300  0.12061200  0.52221200  1
  C  101  1  0.97423500  0.09333900  0.54900300  1
  C  102  1  0.97153900  0.12075000  0.60305600  1
  C  106  1  0.96980700  0.43199200  0.80656600  1
  C  107  1  0.96963000  0.37817900  0.78042000  1
  C  108  1  0.97368300  0.35059600  0.80662900  1
  C  109  1  0.97616100  0.37790800  0.86051200  1
  C  110  1  0.97418700  0.43197000  0.88782800  1
  C  111  1  0.97152300  0.45865400  0.86045600  1
  C  115  1  0.96989900  0.35083700  0.54904600  1
  C  116  1  0.96981700  0.37856900  0.60285700  1
  C  117  1  0.97362300  0.43236400  0.63038200  1
  C  118  1  0.97585500  0.45887600  0.60301200  1
  C  119  1  0.97424400  0.43206100  0.54894900  1
  C  120  1  0.97195200  0.37800300  0.52232200  1
  C  124  1  0.85318900  0.01030900  0.50767700  1
  C  125  1  0.97418700  0.03928200  0.52203100  1
  C  128  1  0.98175000  0.51239100  0.04863100  1
  C  130  1  0.85317800  0.47371800  0.97086100  1
  C  131  1  0.97416300  0.45902200  0.94188100  1
  C  133  1  0.10429800  0.49783100  0.01979800  1
  C  138  1  0.98200000  0.51251000  0.46859900  1
  C  140  1  0.85334000  0.47342200  0.50725800  1
  C  141  1  0.97428600  0.45902500  0.52185900  1
  C  143  1  0.10451400  0.49814500  0.48308400  1
  C  148  1  0.96816000  0.67455700  0.21309600  1
  C  151  1  0.96138500  0.51535100  0.21341100  1
  C  153  1  0.08905500  0.51245800  0.27992800  1
  C  154  1  0.96854800  0.51475600  0.30641400  1
  C  156  1  0.83962500  0.51857400  0.24034900  1
  C  161  1  0.96122300  0.67433000  0.46564100  1
  C  163  1  0.83972800  0.69813500  0.46236900  1
  C  167  1  0.96338500  0.20402100  0.68388400  1
  C  169  1  0.09181800  0.27095800  0.75254800  1
  C  170  1  0.97123700  0.29695800  0.77736200  1
  C  172  1  0.84160800  0.23044600  0.70810200  1
  C  177  1  0.96312300  0.45628500  0.77724100  1
  C  179  1  0.09151700  0.45766000  0.71006300  1
  C  180  1  0.97130500  0.45675300  0.68398400  1
  C  182  1  0.84163400  0.45413900  0.75071800  1
  C  187  1  0.96387300  0.29719100  0.52485100  1
  C  189  1  0.09210400  0.22842300  0.52287100  1
  C  190  1  0.97169700  0.20370400  0.52430800  1
  C  192  1  0.84207200  0.27318900  0.52749400  1
  H  2  1  0.98125500  0.87054900  0.50746200  1
  H  3  1  0.97290000  0.87038600  0.36788000  1
  H  8  1  0.24413400  0.90381300  0.45406600  1
  H  9  1  0.31104600  0.96211600  0.48317600  1
  H  41  1  0.96155900  0.73196400  0.36863000  1
  H  47  1  0.69904200  0.78807200  0.33468100  1
  H  48  1  0.63347500  0.73583300  0.28567800  1
  H  52  1  0.18312700  0.75621300  0.46489700  1
  H  85  1  0.98007600  0.61320400  0.11057600  1
  H  86  1  0.97411200  0.47380400  0.11081700  1
  H  87  1  0.96123300  0.61300800  0.24919000  1
  H  94  1  0.98092200  0.47365000  0.36780000  1
  H  95  1  0.97408200  0.61328800  0.50719000  1
  H  96  1  0.96073300  0.61243200  0.36798200  1
  H  103  1  0.97771800  0.10116700  0.48315000  1
  H  104  1  0.96965400  0.10141600  0.62278100  1
  H  105  1  0.96738100  0.23990100  0.62205600  1
  H  112  1  0.97748700  0.35825700  0.87992300  1
  H  113  1  0.96963800  0.49771200  0.87982100  1
  H  114  1  0.96709700  0.35856900  0.74126500  1
  H  121  1  0.97706700  0.49793900  0.62262000  1
  H  122  1  0.97033600  0.35826000  0.48326200  1
  H  123  1  0.96745900  0.35906200  0.62250900  1
  H  127  1  0.75962500  0.02744900  0.51632000  1
  H  134  1  0.75961100  0.46527800  0.95372900  1
  H  136  1  0.24418600  0.52648800  0.07733200  1
  H  137  1  0.31106700  0.49724600  0.01902300  1
  H  144  1  0.75974400  0.46478500  0.51573700  1
  H  146  1  0.24444800  0.52705100  0.45447300  1
  H  147  1  0.31128000  0.49788800  0.48362700  1
  H  150  1  0.18227600  0.68416300  0.22571300  1
  H  157  1  0.18265300  0.51625500  0.29632400  1
  H  159  1  0.69951000  0.52386600  0.19351000  1
  H  160  1  0.63409100  0.52749400  0.24594100  1
  H  165  1  0.69911600  0.64617900  0.45708400  1
  H  166  1  0.63425500  0.69505400  0.45344800  1
  H  173  1  0.18514400  0.28786200  0.76443100  1
  H  175  1  0.70134500  0.18349100  0.65612200  1
  H  176  1  0.63580800  0.23560600  0.70528700  1
  H  183  1  0.18506300  0.45266300  0.69331000  1
  H  185  1  0.70116700  0.44923500  0.79768100  1
  H  186  1  0.63580200  0.44633300  0.74556300  1
  H  193  1  0.18562900  0.21614600  0.52719100  1
  H  195  1  0.70170600  0.32513000  0.53250800  1
  H  196  1  0.63635300  0.27609400  0.53573400  1
  N  5  1  0.86169600  0.95857600  0.48177500  1
  N  7  1  0.23047600  0.94049600  0.47242800  1
  N  43  1  0.07943600  0.74416600  0.28374100  1
  N  46  1  0.71342300  0.75599700  0.30326100  1
  N  51  1  0.85135400  0.74228700  0.46115700  1
  N  126  1  0.09394700  0.01324800  0.50888500  1
  N  129  1  0.86171800  0.49955300  0.02259500  1
  N  132  1  0.09393200  0.47186600  0.96790700  1
  N  135  1  0.23051000  0.50813600  0.04064800  1
  N  139  1  0.86193900  0.49936200  0.48146500  1
  N  142  1  0.09408900  0.47217800  0.50900500  1
  N  145  1  0.23074000  0.50866700  0.47276900  1
  N  149  1  0.85032300  0.69565600  0.23854800  1
  N  152  1  0.08016100  0.51507500  0.23653300  1
  N  155  1  0.85071200  0.51980200  0.28573600  1
  N  158  1  0.71398500  0.52474600  0.22568700  1
  N  162  1  0.08017700  0.69767100  0.46601000  1
  N  164  1  0.71397300  0.67734300  0.45598600  1
  N  168  1  0.08239100  0.22763700  0.70652800  1
  N  171  1  0.85293300  0.27588200  0.75224500  1
  N  174  1  0.71574600  0.21550000  0.68760500  1
  N  178  1  0.08202600  0.45511000  0.75345800  1
  N  181  1  0.85319200  0.45285800  0.70529800  1
  N  184  1  0.71567500  0.44872200  0.76568200  1
  N  188  1  0.08290100  0.27435500  0.52537000  1
  N  191  1  0.85345100  0.22901800  0.52872600  1
  N  194  1  0.71623100  0.29376400  0.53325100  1
