# generated using pymatgen
data_AgH8(C4N)4
_symmetry_space_group_name_H-M   'P 1'
_cell_length_a   19.86779000
_cell_length_b   19.86794000
_cell_length_c   19.86768000
_cell_angle_alpha   108.49655000
_cell_angle_beta   108.49006000
_cell_angle_gamma   108.49644000
_symmetry_Int_Tables_number   1
_chemical_formula_structural   AgH8(C4N)4
_chemical_formula_sum   'Ag12 H96 C192 N48'
_cell_volume   6245.89689809
_cell_formula_units_Z   12
loop_
 _symmetry_equiv_pos_site_id
 _symmetry_equiv_pos_as_xyz
  1  'x, y, z'
loop_
 _atom_site_type_symbol
 _atom_site_label
 _atom_site_symmetry_multiplicity
 _atom_site_fract_x
 _atom_site_fract_y
 _atom_site_fract_z
 _atom_site_occupancy
  Ag  Ag0  1  0.87373000  0.62110000  0.81464000  1
  Ag  Ag1  1  0.98923000  0.29923000  0.71930000  1
  Ag  Ag2  1  0.62111000  0.81464000  0.87372000  1
  Ag  Ag3  1  0.29923000  0.71930000  0.98924000  1
  Ag  Ag4  1  0.81465000  0.87372000  0.62110000  1
  Ag  Ag5  1  0.71931000  0.98923000  0.29924000  1
  Ag  Ag6  1  0.12627000  0.37889000  0.18535000  1
  Ag  Ag7  1  0.01077000  0.70076000  0.28069000  1
  Ag  Ag8  1  0.37889000  0.18535000  0.12627000  1
  Ag  Ag9  1  0.70077000  0.28069000  0.01076000  1
  Ag  Ag10  1  0.18536000  0.12627000  0.37890000  1
  Ag  Ag11  1  0.28069000  0.01076000  0.70076000  1
  H  H12  1  0.81400000  0.24324000  0.65361000  1
  H  H13  1  0.66930000  0.21119000  0.59913000  1
  H  H14  1  0.63143000  0.32059000  0.63510000  1
  H  H15  1  0.73762000  0.46288000  0.72357000  1
  H  H16  1  0.98573000  0.79221000  0.93225000  1
  H  H17  1  0.09242000  0.93366000  0.02755000  1
  H  H18  1  0.23586000  0.96416000  0.08879000  1
  H  H19  1  0.27382000  0.85459000  0.05325000  1
  H  H20  1  0.36090000  0.59848000  0.96632000  1
  H  H21  1  0.39884000  0.48987000  0.92137000  1
  H  H22  1  0.29239000  0.34980000  0.82251000  1
  H  H23  1  0.14845000  0.31783000  0.77056000  1
  H  H24  1  0.96259000  0.64245000  0.72051000  1
  H  H25  1  0.03569000  0.67326000  0.64325000  1
  H  H26  1  0.01354000  0.75728000  0.57822000  1
  H  H27  1  0.91820000  0.81271000  0.59007000  1
  H  H28  1  0.24324000  0.65361000  0.81401000  1
  H  H29  1  0.21121000  0.59914000  0.66930000  1
  H  H30  1  0.32061000  0.63510000  0.63143000  1
  H  H31  1  0.46289000  0.72357000  0.73762000  1
  H  H32  1  0.79221000  0.93225000  0.98573000  1
  H  H33  1  0.93366000  0.02754000  0.09241000  1
  H  H34  1  0.96415000  0.08878000  0.23585000  1
  H  H35  1  0.85460000  0.05325000  0.27383000  1
  H  H36  1  0.59847000  0.96631000  0.36090000  1
  H  H37  1  0.48987000  0.92137000  0.39885000  1
  H  H38  1  0.34980000  0.82251000  0.29240000  1
  H  H39  1  0.31784000  0.77055000  0.14845000  1
  H  H40  1  0.64245000  0.72052000  0.96259000  1
  H  H41  1  0.67325000  0.64325000  0.03569000  1
  H  H42  1  0.75728000  0.57823000  0.01353000  1
  H  H43  1  0.81272000  0.59007000  0.91819000  1
  H  H44  1  0.65361000  0.81399000  0.24324000  1
  H  H45  1  0.59913000  0.66929000  0.21120000  1
  H  H46  1  0.63510000  0.63142000  0.32059000  1
  H  H47  1  0.72357000  0.73761000  0.46287000  1
  H  H48  1  0.93225000  0.98572000  0.79221000  1
  H  H49  1  0.02755000  0.09242000  0.93365000  1
  H  H50  1  0.08878000  0.23586000  0.96415000  1
  H  H51  1  0.05325000  0.27383000  0.85460000  1
  H  H52  1  0.96632000  0.36089000  0.59847000  1
  H  H53  1  0.92138000  0.39885000  0.48988000  1
  H  H54  1  0.82252000  0.29240000  0.34981000  1
  H  H55  1  0.77056000  0.14845000  0.31783000  1
  H  H56  1  0.72052000  0.96259000  0.64245000  1
  H  H57  1  0.64325000  0.03568000  0.67326000  1
  H  H58  1  0.57823000  0.01353000  0.75729000  1
  H  H59  1  0.59007000  0.91819000  0.81272000  1
  H  H60  1  0.18600000  0.75675000  0.34639000  1
  H  H61  1  0.33070000  0.78880000  0.40086000  1
  H  H62  1  0.36857000  0.67940000  0.36490000  1
  H  H63  1  0.26238000  0.53711000  0.27643000  1
  H  H64  1  0.01427000  0.20778000  0.06775000  1
  H  H65  1  0.90758000  0.06634000  0.97245000  1
  H  H66  1  0.76414000  0.03584000  0.91121000  1
  H  H67  1  0.72618000  0.14540000  0.94675000  1
  H  H68  1  0.63910000  0.40152000  0.03368000  1
  H  H69  1  0.60116000  0.51013000  0.07863000  1
  H  H70  1  0.70761000  0.65019000  0.17748000  1
  H  H71  1  0.85155000  0.68216000  0.22944000  1
  H  H72  1  0.03741000  0.35754000  0.27948000  1
  H  H73  1  0.96431000  0.32674000  0.35675000  1
  H  H74  1  0.98646000  0.24271000  0.42178000  1
  H  H75  1  0.08180000  0.18728000  0.40993000  1
  H  H76  1  0.75676000  0.34639000  0.18599000  1
  H  H77  1  0.78879000  0.40086000  0.33069000  1
  H  H78  1  0.67940000  0.36489000  0.36857000  1
  H  H79  1  0.53711000  0.27642000  0.26238000  1
  H  H80  1  0.20779000  0.06775000  0.01427000  1
  H  H81  1  0.06634000  0.97245000  0.90759000  1
  H  H82  1  0.03585000  0.91122000  0.76415000  1
  H  H83  1  0.14540000  0.94675000  0.72617000  1
  H  H84  1  0.40153000  0.03368000  0.63910000  1
  H  H85  1  0.51013000  0.07862000  0.60115000  1
  H  H86  1  0.65020000  0.17748000  0.70760000  1
  H  H87  1  0.68216000  0.22944000  0.85155000  1
  H  H88  1  0.35755000  0.27948000  0.03741000  1
  H  H89  1  0.32675000  0.35674000  0.96431000  1
  H  H90  1  0.24272000  0.42176000  0.98647000  1
  H  H91  1  0.18728000  0.40993000  0.08180000  1
  H  H92  1  0.34639000  0.18600000  0.75676000  1
  H  H93  1  0.40087000  0.33071000  0.78880000  1
  H  H94  1  0.36490000  0.36858000  0.67940000  1
  H  H95  1  0.27643000  0.26238000  0.53712000  1
  H  H96  1  0.06776000  0.01427000  0.20779000  1
  H  H97  1  0.97246000  0.90758000  0.06635000  1
  H  H98  1  0.91122000  0.76413000  0.03585000  1
  H  H99  1  0.94675000  0.72617000  0.14540000  1
  H  H100  1  0.03368000  0.63910000  0.40153000  1
  H  H101  1  0.07862000  0.60114000  0.51012000  1
  H  H102  1  0.17748000  0.70760000  0.65019000  1
  H  H103  1  0.22944000  0.85155000  0.68216000  1
  H  H104  1  0.27948000  0.03741000  0.35755000  1
  H  H105  1  0.35675000  0.96432000  0.32674000  1
  H  H106  1  0.42177000  0.98647000  0.24271000  1
  H  H107  1  0.40993000  0.08180000  0.18728000  1
  C  C108  1  0.97016000  0.52632000  0.81873000  1
  C  C109  1  0.99145000  0.46353000  0.79856000  1
  C  C110  1  0.85664000  0.37005000  0.71964000  1
  C  C111  1  0.79595000  0.29011000  0.66859000  1
  C  C112  1  0.71584000  0.27288000  0.63860000  1
  C  C113  1  0.69436000  0.33484000  0.65849000  1
  C  C114  1  0.75310000  0.41409000  0.70787000  1
  C  C115  1  0.83484000  0.43321000  0.73928000  1
  C  C116  1  0.11448000  0.62633000  0.90498000  1
  C  C117  1  0.03247000  0.60878000  0.87234000  1
  C  C118  1  0.06924000  0.74425000  0.93978000  1
  C  C119  1  0.04893000  0.80720000  0.95935000  1
  C  C120  1  0.10846000  0.88541000  0.01208000  1
  C  C121  1  0.18966000  0.90291000  0.04649000  1
  C  C122  1  0.21124000  0.84212000  0.02727000  1
  C  C123  1  0.15195000  0.76221000  0.97361000  1
  C  C124  1  0.07547000  0.48184000  0.83009000  1
  C  C125  1  0.13630000  0.56203000  0.88422000  1
  C  C126  1  0.23434000  0.52020000  0.89306000  1
  C  C127  1  0.31547000  0.53688000  0.92356000  1
  C  C128  1  0.33604000  0.47612000  0.89831000  1
  C  C129  1  0.27611000  0.39711000  0.84268000  1
  C  C130  1  0.19569000  0.37888000  0.81303000  1
  C  C131  1  0.17335000  0.43957000  0.83705000  1
  C  C132  1  0.79907000  0.77424000  0.71242000  1
  C  C133  1  0.81153000  0.72513000  0.74880000  1
  C  C134  1  0.89900000  0.70894000  0.69789000  1
  C  C135  1  0.95315000  0.67871000  0.69084000  1
  C  C136  1  0.99365000  0.69625000  0.64822000  1
  C  C137  1  0.98122000  0.74425000  0.61138000  1
  C  C138  1  0.92827000  0.77486000  0.61759000  1
  C  C139  1  0.88663000  0.75818000  0.66084000  1
  C  C140  1  0.52632000  0.81873000  0.97015000  1
  C  C141  1  0.46353000  0.79856000  0.99146000  1
  C  C142  1  0.37005000  0.71964000  0.85664000  1
  C  C143  1  0.29011000  0.66859000  0.79596000  1
  C  C144  1  0.27289000  0.63861000  0.71585000  1
  C  C145  1  0.33485000  0.65849000  0.69436000  1
  C  C146  1  0.41409000  0.70788000  0.75310000  1
  C  C147  1  0.43320000  0.73927000  0.83484000  1
  C  C148  1  0.62633000  0.90497000  0.11447000  1
  C  C149  1  0.60878000  0.87234000  0.03247000  1
  C  C150  1  0.74425000  0.93978000  0.06924000  1
  C  C151  1  0.80720000  0.95934000  0.04893000  1
  C  C152  1  0.88542000  0.01207000  0.10845000  1
  C  C153  1  0.90291000  0.04649000  0.18965000  1
  C  C154  1  0.84213000  0.02727000  0.21124000  1
  C  C155  1  0.76221000  0.97361000  0.15195000  1
  C  C156  1  0.48184000  0.83009000  0.07547000  1
  C  C157  1  0.56203000  0.88421000  0.13629000  1
  C  C158  1  0.52020000  0.89305000  0.23434000  1
  C  C159  1  0.53688000  0.92356000  0.31547000  1
  C  C160  1  0.47611000  0.89831000  0.33604000  1
  C  C161  1  0.39711000  0.84268000  0.27612000  1
  C  C162  1  0.37888000  0.81303000  0.19570000  1
  C  C163  1  0.43957000  0.83704000  0.17335000  1
  C  C164  1  0.77425000  0.71243000  0.79907000  1
  C  C165  1  0.72513000  0.74880000  0.81153000  1
  C  C166  1  0.70894000  0.69789000  0.89900000  1
  C  C167  1  0.67871000  0.69084000  0.95315000  1
  C  C168  1  0.69625000  0.64823000  0.99366000  1
  C  C169  1  0.74425000  0.61139000  0.98121000  1
  C  C170  1  0.77487000  0.61760000  0.92826000  1
  C  C171  1  0.75818000  0.66085000  0.88663000  1
  C  C172  1  0.81873000  0.97015000  0.52632000  1
  C  C173  1  0.79856000  0.99145000  0.46353000  1
  C  C174  1  0.71964000  0.85663000  0.37005000  1
  C  C175  1  0.66859000  0.79594000  0.29011000  1
  C  C176  1  0.63860000  0.71583000  0.27288000  1
  C  C177  1  0.65849000  0.69435000  0.33484000  1
  C  C178  1  0.70787000  0.75309000  0.41408000  1
  C  C179  1  0.73927000  0.83483000  0.43320000  1
  C  C180  1  0.90498000  0.11448000  0.62633000  1
  C  C181  1  0.87234000  0.03247000  0.60878000  1
  C  C182  1  0.93978000  0.06924000  0.74424000  1
  C  C183  1  0.95934000  0.04892000  0.80719000  1
  C  C184  1  0.01207000  0.10845000  0.88540000  1
  C  C185  1  0.04649000  0.18965000  0.90291000  1
  C  C186  1  0.02728000  0.21124000  0.84212000  1
  C  C187  1  0.97361000  0.15195000  0.76220000  1
  C  C188  1  0.83010000  0.07546000  0.48184000  1
  C  C189  1  0.88422000  0.13629000  0.56203000  1
  C  C190  1  0.89306000  0.23433000  0.52020000  1
  C  C191  1  0.92356000  0.31546000  0.53688000  1
  C  C192  1  0.89831000  0.33604000  0.47612000  1
  C  C193  1  0.84269000  0.27611000  0.39712000  1
  C  C194  1  0.81303000  0.19569000  0.37888000  1
  C  C195  1  0.83705000  0.17334000  0.43957000  1
  C  C196  1  0.71243000  0.79907000  0.77425000  1
  C  C197  1  0.74881000  0.81153000  0.72513000  1
  C  C198  1  0.69790000  0.89900000  0.70894000  1
  C  C199  1  0.69084000  0.95315000  0.67871000  1
  C  C200  1  0.64823000  0.99364000  0.69625000  1
  C  C201  1  0.61139000  0.98120000  0.74426000  1
  C  C202  1  0.61760000  0.92826000  0.77487000  1
  C  C203  1  0.66085000  0.88663000  0.75818000  1
  C  C204  1  0.02985000  0.47368000  0.18127000  1
  C  C205  1  0.00855000  0.53646000  0.20144000  1
  C  C206  1  0.14336000  0.62994000  0.28036000  1
  C  C207  1  0.20405000  0.70988000  0.33141000  1
  C  C208  1  0.28416000  0.72712000  0.36140000  1
  C  C209  1  0.30564000  0.66515000  0.34151000  1
  C  C210  1  0.24690000  0.58591000  0.29212000  1
  C  C211  1  0.16516000  0.56679000  0.26072000  1
  C  C212  1  0.88552000  0.37366000  0.09502000  1
  C  C213  1  0.96753000  0.39122000  0.12766000  1
  C  C214  1  0.93076000  0.25575000  0.06022000  1
  C  C215  1  0.95107000  0.19279000  0.04065000  1
  C  C216  1  0.89154000  0.11458000  0.98792000  1
  C  C217  1  0.81034000  0.09708000  0.95350000  1
  C  C218  1  0.78876000  0.15787000  0.97272000  1
  C  C219  1  0.84805000  0.23779000  0.02639000  1
  C  C220  1  0.92454000  0.51815000  0.16990000  1
  C  C221  1  0.86371000  0.43797000  0.11578000  1
  C  C222  1  0.76566000  0.47979000  0.10694000  1
  C  C223  1  0.68453000  0.46311000  0.07644000  1
  C  C224  1  0.66396000  0.52388000  0.10169000  1
  C  C225  1  0.72389000  0.60288000  0.15731000  1
  C  C226  1  0.80431000  0.62112000  0.18697000  1
  C  C227  1  0.82665000  0.56042000  0.16295000  1
  C  C228  1  0.20093000  0.22575000  0.28757000  1
  C  C229  1  0.18847000  0.27486000  0.25119000  1
  C  C230  1  0.10100000  0.29106000  0.30211000  1
  C  C231  1  0.04685000  0.32128000  0.30916000  1
  C  C232  1  0.00635000  0.30374000  0.35178000  1
  C  C233  1  0.01878000  0.25574000  0.38862000  1
  C  C234  1  0.07173000  0.22513000  0.38240000  1
  C  C235  1  0.11337000  0.24182000  0.33915000  1
  C  C236  1  0.47368000  0.18126000  0.02984000  1
  C  C237  1  0.53647000  0.20143000  0.00854000  1
  C  C238  1  0.62995000  0.28036000  0.14336000  1
  C  C239  1  0.70989000  0.33140000  0.20404000  1
  C  C240  1  0.72711000  0.36139000  0.28415000  1
  C  C241  1  0.66515000  0.34150000  0.30564000  1
  C  C242  1  0.58591000  0.29212000  0.24690000  1
  C  C243  1  0.56680000  0.26072000  0.16516000  1
  C  C244  1  0.37367000  0.09502000  0.88552000  1
  C  C245  1  0.39122000  0.12766000  0.96753000  1
  C  C246  1  0.25575000  0.06021000  0.93076000  1
  C  C247  1  0.19280000  0.04065000  0.95107000  1
  C  C248  1  0.11459000  0.98792000  0.89155000  1
  C  C249  1  0.09709000  0.95351000  0.81035000  1
  C  C250  1  0.15787000  0.97272000  0.78876000  1
  C  C251  1  0.23779000  0.02639000  0.84804000  1
  C  C252  1  0.51816000  0.16990000  0.92453000  1
  C  C253  1  0.43797000  0.11578000  0.86370000  1
  C  C254  1  0.47980000  0.10694000  0.76566000  1
  C  C255  1  0.46312000  0.07644000  0.68453000  1
  C  C256  1  0.52389000  0.10169000  0.66395000  1
  C  C257  1  0.60289000  0.15731000  0.72388000  1
  C  C258  1  0.62112000  0.18697000  0.80430000  1
  C  C259  1  0.56043000  0.16295000  0.82665000  1
  C  C260  1  0.22576000  0.28757000  0.20093000  1
  C  C261  1  0.27487000  0.25119000  0.18847000  1
  C  C262  1  0.29106000  0.30210000  0.10099000  1
  C  C263  1  0.32129000  0.30915000  0.04685000  1
  C  C264  1  0.30375000  0.35177000  0.00634000  1
  C  C265  1  0.25575000  0.38860000  0.01879000  1
  C  C266  1  0.22513000  0.38240000  0.07173000  1
  C  C267  1  0.24182000  0.33915000  0.11337000  1
  C  C268  1  0.18127000  0.02984000  0.47368000  1
  C  C269  1  0.20144000  0.00854000  0.53647000  1
  C  C270  1  0.28036000  0.14336000  0.62995000  1
  C  C271  1  0.33141000  0.20405000  0.70989000  1
  C  C272  1  0.36140000  0.28416000  0.72712000  1
  C  C273  1  0.34151000  0.30565000  0.66516000  1
  C  C274  1  0.29213000  0.24690000  0.58592000  1
  C  C275  1  0.26073000  0.16516000  0.56680000  1
  C  C276  1  0.09502000  0.88552000  0.37366000  1
  C  C277  1  0.12766000  0.96753000  0.39122000  1
  C  C278  1  0.06022000  0.93076000  0.25575000  1
  C  C279  1  0.04066000  0.95107000  0.19280000  1
  C  C280  1  0.98793000  0.89154000  0.11459000  1
  C  C281  1  0.95351000  0.81034000  0.09709000  1
  C  C282  1  0.97273000  0.78875000  0.15787000  1
  C  C283  1  0.02639000  0.84804000  0.23779000  1
  C  C284  1  0.16990000  0.92453000  0.51815000  1
  C  C285  1  0.11578000  0.86370000  0.43797000  1
  C  C286  1  0.10694000  0.76566000  0.47980000  1
  C  C287  1  0.07644000  0.68453000  0.46312000  1
  C  C288  1  0.10169000  0.66395000  0.52388000  1
  C  C289  1  0.15731000  0.72389000  0.60288000  1
  C  C290  1  0.18697000  0.80430000  0.62112000  1
  C  C291  1  0.16295000  0.82665000  0.56043000  1
  C  C292  1  0.28757000  0.20093000  0.22575000  1
  C  C293  1  0.25119000  0.18847000  0.27486000  1
  C  C294  1  0.30211000  0.10099000  0.29106000  1
  C  C295  1  0.30916000  0.04685000  0.32129000  1
  C  C296  1  0.35177000  0.00635000  0.30374000  1
  C  C297  1  0.38861000  0.01879000  0.25574000  1
  C  C298  1  0.38240000  0.07173000  0.22513000  1
  C  C299  1  0.33915000  0.11336000  0.24182000  1
  N  N300  1  0.93567000  0.38680000  0.74983000  1
  N  N301  1  0.89317000  0.51163000  0.78869000  1
  N  N302  1  0.01034000  0.66662000  0.88919000  1
  N  N303  1  0.17319000  0.70193000  0.95432000  1
  N  N304  1  0.21430000  0.58084000  0.91625000  1
  N  N305  1  0.09369000  0.42153000  0.80665000  1
  N  N306  1  0.85962000  0.69208000  0.74069000  1
  N  N307  1  0.83557000  0.78998000  0.66858000  1
  N  N308  1  0.38680000  0.74983000  0.93568000  1
  N  N309  1  0.51162000  0.78869000  0.89317000  1
  N  N310  1  0.66663000  0.88919000  0.01034000  1
  N  N311  1  0.70192000  0.95431000  0.17318000  1
  N  N312  1  0.58084000  0.91625000  0.21430000  1
  N  N313  1  0.42154000  0.80664000  0.09369000  1
  N  N314  1  0.69209000  0.74069000  0.85963000  1
  N  N315  1  0.78998000  0.66859000  0.83556000  1
  N  N316  1  0.74983000  0.93567000  0.38680000  1
  N  N317  1  0.78869000  0.89317000  0.51162000  1
  N  N318  1  0.88919000  0.01034000  0.66662000  1
  N  N319  1  0.95432000  0.17318000  0.70193000  1
  N  N320  1  0.91625000  0.21430000  0.58083000  1
  N  N321  1  0.80665000  0.09368000  0.42154000  1
  N  N322  1  0.74069000  0.85962000  0.69208000  1
  N  N323  1  0.66859000  0.83557000  0.78998000  1
  N  N324  1  0.06433000  0.61319000  0.25017000  1
  N  N325  1  0.10683000  0.48837000  0.21130000  1
  N  N326  1  0.98966000  0.33333333  0.11081000  1
  N  N327  1  0.82682000  0.29807000  0.04568000  1
  N  N328  1  0.78570000  0.41916000  0.08374000  1
  N  N329  1  0.90631000  0.57846000  0.19335000  1
  N  N330  1  0.14038000  0.30791000  0.25931000  1
  N  N331  1  0.16443000  0.21002000  0.33141000  1
  N  N332  1  0.61320000  0.25016000  0.06432000  1
  N  N333  1  0.48838000  0.21130000  0.10683000  1
  N  N334  1  0.33333333  0.11081000  0.98966000  1
  N  N335  1  0.29808000  0.04568000  0.82681000  1
  N  N336  1  0.41916000  0.08374000  0.78569000  1
  N  N337  1  0.57846000  0.19335000  0.90631000  1
  N  N338  1  0.30792000  0.25931000  0.14037000  1
  N  N339  1  0.21002000  0.33140000  0.16443000  1
  N  N340  1  0.25017000  0.06432000  0.61320000  1
  N  N341  1  0.21131000  0.10683000  0.48837000  1
  N  N342  1  0.11082000  0.98966000  0.33333333  1
  N  N343  1  0.04568000  0.82681000  0.29807000  1
  N  N344  1  0.08375000  0.78569000  0.41916000  1
  N  N345  1  0.19335000  0.90631000  0.57846000  1
  N  N346  1  0.25931000  0.14037000  0.30791000  1
  N  N347  1  0.33141000  0.16443000  0.21002000  1
