# generated using pymatgen
data_Cu6H9C27N12O13
_symmetry_space_group_name_H-M   'P 1'
_cell_length_a   31.72549000
_cell_length_b   31.72066000
_cell_length_c   31.72313000
_cell_angle_alpha   60.00416000
_cell_angle_beta   60.02969000
_cell_angle_gamma   60.02622000
_symmetry_Int_Tables_number   1
_chemical_formula_structural   Cu6H9C27N12O13
_chemical_formula_sum   'Cu48 H72 C216 N96 O104'
_cell_volume   22584.40361995
_cell_formula_units_Z   8
loop_
 _symmetry_equiv_pos_site_id
 _symmetry_equiv_pos_as_xyz
  1  'x, y, z'
loop_
 _atom_site_type_symbol
 _atom_site_label
 _atom_site_symmetry_multiplicity
 _atom_site_fract_x
 _atom_site_fract_y
 _atom_site_fract_z
 _atom_site_occupancy
  Cu  Cu0  1  0.00009000  0.33428000  0.99994000  1
  Cu  Cu1  1  0.00007000  0.25698000  0.99997000  1
  Cu  Cu2  1  0.00007000  0.66575000  0.00000000  1
  Cu  Cu3  1  0.00008000  0.74287000  0.99999000  1
  Cu  Cu4  1  0.66575000  0.99998000  0.33428000  1
  Cu  Cu5  1  0.74298000  0.00001000  0.25701000  1
  Cu  Cu6  1  0.33426000  0.00001000  0.66572000  1
  Cu  Cu7  1  0.25703000  0.99998000  0.74299000  1
  Cu  Cu8  1  0.00001000  0.99995000  0.33426000  1
  Cu  Cu9  1  0.99998000  0.99997000  0.25716000  1
  Cu  Cu10  1  0.99999000  0.99998000  0.66577000  1
  Cu  Cu11  1  0.00002000  0.99999000  0.74287000  1
  Cu  Cu12  1  0.33420000  0.66579000  0.00003000  1
  Cu  Cu13  1  0.25713000  0.74291000  0.99997000  1
  Cu  Cu14  1  0.66582000  0.33425000  0.99999000  1
  Cu  Cu15  1  0.74287000  0.25713000  0.00004000  1
  Cu  Cu16  1  0.33421000  0.00001000  0.00001000  1
  Cu  Cu17  1  0.25713000  0.00000000  0.99998000  1
  Cu  Cu18  1  0.66578000  0.99995000  0.99999000  1
  Cu  Cu19  1  0.74285000  0.99998000  0.00003000  1
  Cu  Cu20  1  0.99999000  0.33416000  0.66579000  1
  Cu  Cu21  1  0.00001000  0.25703000  0.74289000  1
  Cu  Cu22  1  0.99999000  0.66571000  0.33423000  1
  Cu  Cu23  1  0.99998000  0.74300000  0.25695000  1
  Cu  Cu24  1  0.27271000  0.37562000  0.97606000  1
  Cu  Cu25  1  0.97606000  0.37564000  0.27267000  1
  Cu  Cu26  1  0.37558000  0.97604000  0.37558000  1
  Cu  Cu27  1  0.37561000  0.27273000  0.37561000  1
  Cu  Cu28  1  0.97606000  0.27266000  0.37562000  1
  Cu  Cu29  1  0.27271000  0.97606000  0.37564000  1
  Cu  Cu30  1  0.37558000  0.37556000  0.97604000  1
  Cu  Cu31  1  0.37561000  0.37560000  0.27273000  1
  Cu  Cu32  1  0.37565000  0.97606000  0.27270000  1
  Cu  Cu33  1  0.37563000  0.27267000  0.97606000  1
  Cu  Cu34  1  0.97605000  0.37556000  0.37556000  1
  Cu  Cu35  1  0.27278000  0.37556000  0.37560000  1
  Cu  Cu36  1  0.72585000  0.62511000  0.02397000  1
  Cu  Cu37  1  0.02393000  0.62409000  0.72784000  1
  Cu  Cu38  1  0.62439000  0.72729000  0.62437000  1
  Cu  Cu39  1  0.62442000  0.02395000  0.62442000  1
  Cu  Cu40  1  0.02396000  0.62518000  0.62512000  1
  Cu  Cu41  1  0.72721000  0.62444000  0.62440000  1
  Cu  Cu42  1  0.62423000  0.72769000  0.02392000  1
  Cu  Cu43  1  0.62435000  0.02393000  0.72731000  1
  Cu  Cu44  1  0.62437000  0.62443000  0.72725000  1
  Cu  Cu45  1  0.62416000  0.62409000  0.02393000  1
  Cu  Cu46  1  0.02391000  0.72781000  0.62407000  1
  Cu  Cu47  1  0.72729000  0.02394000  0.62436000  1
  H  H48  1  0.15896000  0.29505000  0.97772000  1
  H  H49  1  0.97775000  0.56836000  0.15896000  1
  H  H50  1  0.56844000  0.97774000  0.29503000  1
  H  H51  1  0.29495000  0.15888000  0.56845000  1
  H  H52  1  0.97775000  0.15899000  0.29499000  1
  H  H53  1  0.15895000  0.97774000  0.56837000  1
  H  H54  1  0.29501000  0.56838000  0.97776000  1
  H  H55  1  0.56839000  0.29495000  0.15892000  1
  H  H56  1  0.29498000  0.97774000  0.15904000  1
  H  H57  1  0.56835000  0.15893000  0.97774000  1
  H  H58  1  0.97775000  0.29503000  0.56835000  1
  H  H59  1  0.15890000  0.56836000  0.29501000  1
  H  H60  1  0.84145000  0.43144000  0.02229000  1
  H  H61  1  0.02227000  0.70498000  0.84103000  1
  H  H62  1  0.43157000  0.84115000  0.70499000  1
  H  H63  1  0.70499000  0.02226000  0.43155000  1
  H  H64  1  0.02224000  0.43142000  0.70488000  1
  H  H65  1  0.84109000  0.70502000  0.43159000  1
  H  H66  1  0.70517000  0.84075000  0.02226000  1
  H  H67  1  0.43164000  0.02225000  0.84105000  1
  H  H68  1  0.70507000  0.43163000  0.84104000  1
  H  H69  1  0.43161000  0.70503000  0.02224000  1
  H  H70  1  0.02225000  0.84076000  0.43174000  1
  H  H71  1  0.84098000  0.02225000  0.70499000  1
  H  H72  1  0.84133000  0.70483000  0.02226000  1
  H  H73  1  0.02229000  0.43170000  0.84083000  1
  H  H74  1  0.43156000  0.02226000  0.70496000  1
  H  H75  1  0.70509000  0.84110000  0.43153000  1
  H  H76  1  0.02225000  0.84101000  0.70501000  1
  H  H77  1  0.84105000  0.02225000  0.43164000  1
  H  H78  1  0.70524000  0.43170000  0.02224000  1
  H  H79  1  0.43162000  0.70506000  0.84108000  1
  H  H80  1  0.70499000  0.02226000  0.84097000  1
  H  H81  1  0.43162000  0.84109000  0.02226000  1
  H  H82  1  0.02227000  0.70478000  0.43142000  1
  H  H83  1  0.84104000  0.43166000  0.70502000  1
  H  H84  1  0.15896000  0.56834000  0.97772000  1
  H  H85  1  0.97773000  0.29506000  0.15893000  1
  H  H86  1  0.56843000  0.15885000  0.29500000  1
  H  H87  1  0.29502000  0.97774000  0.56845000  1
  H  H88  1  0.97773000  0.56840000  0.29505000  1
  H  H89  1  0.15894000  0.29495000  0.56837000  1
  H  H90  1  0.29496000  0.15902000  0.97775000  1
  H  H91  1  0.56836000  0.97774000  0.15895000  1
  H  H92  1  0.29488000  0.56840000  0.15899000  1
  H  H93  1  0.56837000  0.29502000  0.97776000  1
  H  H94  1  0.97773000  0.15893000  0.56835000  1
  H  H95  1  0.15901000  0.97774000  0.29503000  1
  H  H96  1  0.15679000  0.15683000  0.98511000  1
  H  H97  1  0.98513000  0.70133000  0.15686000  1
  H  H98  1  0.70129000  0.98513000  0.15691000  1
  H  H99  1  0.15684000  0.15672000  0.70132000  1
  H  H100  1  0.98512000  0.15683000  0.15679000  1
  H  H101  1  0.15691000  0.98513000  0.70131000  1
  H  H102  1  0.15688000  0.70127000  0.98516000  1
  H  H103  1  0.70127000  0.15676000  0.15686000  1
  H  H104  1  0.15679000  0.98514000  0.15682000  1
  H  H105  1  0.70127000  0.15686000  0.98516000  1
  H  H106  1  0.98516000  0.15682000  0.70129000  1
  H  H107  1  0.15675000  0.70134000  0.15680000  1
  H  H108  1  0.84323000  0.29866000  0.01488000  1
  H  H109  1  0.01486000  0.84321000  0.84321000  1
  H  H110  1  0.29873000  0.84324000  0.84314000  1
  H  H111  1  0.84310000  0.01487000  0.29869000  1
  H  H112  1  0.01487000  0.29862000  0.84319000  1
  H  H113  1  0.84319000  0.84325000  0.29864000  1
  H  H114  1  0.84324000  0.84318000  0.01486000  1
  H  H115  1  0.29871000  0.01486000  0.84309000  1
  H  H116  1  0.84321000  0.29869000  0.84324000  1
  H  H117  1  0.29868000  0.84317000  0.01484000  1
  H  H118  1  0.01487000  0.84311000  0.29865000  1
  H  H119  1  0.84319000  0.01485000  0.84320000  1
  C  C120  1  0.17885000  0.25541000  0.97796000  1
  C  C121  1  0.15248000  0.22893000  0.98087000  1
  C  C122  1  0.09675000  0.25466000  0.98530000  1
  C  C123  1  0.97797000  0.58785000  0.17889000  1
  C  C124  1  0.98090000  0.63778000  0.15252000  1
  C  C125  1  0.98535000  0.66335000  0.09679000  1
  C  C126  1  0.58786000  0.97798000  0.25539000  1
  C  C127  1  0.63777000  0.98091000  0.22893000  1
  C  C128  1  0.66336000  0.98534000  0.25465000  1
  C  C129  1  0.25533000  0.17884000  0.58789000  1
  C  C130  1  0.22887000  0.15246000  0.63780000  1
  C  C131  1  0.25459000  0.09672000  0.66339000  1
  C  C132  1  0.97797000  0.17890000  0.25534000  1
  C  C133  1  0.98090000  0.15251000  0.22887000  1
  C  C134  1  0.98532000  0.09677000  0.25463000  1
  C  C135  1  0.17889000  0.97798000  0.58785000  1
  C  C136  1  0.15253000  0.98090000  0.63777000  1
  C  C137  1  0.09681000  0.98532000  0.66334000  1
  C  C138  1  0.25537000  0.58782000  0.97800000  1
  C  C139  1  0.22890000  0.63773000  0.98094000  1
  C  C140  1  0.25463000  0.66331000  0.98535000  1
  C  C141  1  0.58784000  0.25531000  0.17888000  1
  C  C142  1  0.63774000  0.22884000  0.15253000  1
  C  C143  1  0.66331000  0.25459000  0.09682000  1
  C  C144  1  0.25534000  0.97799000  0.17892000  1
  C  C145  1  0.22886000  0.98092000  0.15253000  1
  C  C146  1  0.25461000  0.98532000  0.09681000  1
  C  C147  1  0.58782000  0.17887000  0.97798000  1
  C  C148  1  0.63774000  0.15251000  0.98092000  1
  C  C149  1  0.66332000  0.09678000  0.98531000  1
  C  C150  1  0.97799000  0.25537000  0.58781000  1
  C  C151  1  0.98093000  0.22888000  0.63773000  1
  C  C152  1  0.98534000  0.25461000  0.66330000  1
  C  C153  1  0.17882000  0.58786000  0.25537000  1
  C  C154  1  0.15245000  0.63778000  0.22889000  1
  C  C155  1  0.09671000  0.66336000  0.25459000  1
  C  C156  1  0.82139000  0.41208000  0.02204000  1
  C  C157  1  0.84766000  0.36214000  0.01913000  1
  C  C158  1  0.90340000  0.33651000  0.01468000  1
  C  C159  1  0.02202000  0.74463000  0.82116000  1
  C  C160  1  0.01908000  0.77111000  0.84753000  1
  C  C161  1  0.01470000  0.74535000  0.90324000  1
  C  C162  1  0.41214000  0.82118000  0.74462000  1
  C  C163  1  0.36224000  0.84754000  0.77109000  1
  C  C164  1  0.33665000  0.90328000  0.74536000  1
  C  C165  1  0.74462000  0.02202000  0.41213000  1
  C  C166  1  0.77109000  0.01910000  0.36221000  1
  C  C167  1  0.74537000  0.01465000  0.33662000  1
  C  C168  1  0.02200000  0.41209000  0.74453000  1
  C  C169  1  0.01907000  0.36215000  0.77111000  1
  C  C170  1  0.01466000  0.33653000  0.74543000  1
  C  C171  1  0.82117000  0.74467000  0.41211000  1
  C  C172  1  0.84752000  0.77115000  0.36219000  1
  C  C173  1  0.90325000  0.74542000  0.33660000  1
  C  C174  1  0.74481000  0.82093000  0.02200000  1
  C  C175  1  0.77120000  0.84739000  0.01908000  1
  C  C176  1  0.74538000  0.90313000  0.01469000  1
  C  C177  1  0.41216000  0.02202000  0.82110000  1
  C  C178  1  0.36224000  0.01910000  0.84746000  1
  C  C179  1  0.33666000  0.01470000  0.90318000  1
  C  C180  1  0.74470000  0.41216000  0.82112000  1
  C  C181  1  0.77117000  0.36225000  0.84750000  1
  C  C182  1  0.74544000  0.33668000  0.90321000  1
  C  C183  1  0.41212000  0.74467000  0.02200000  1
  C  C184  1  0.36223000  0.77114000  0.01905000  1
  C  C185  1  0.33668000  0.74539000  0.01465000  1
  C  C186  1  0.02200000  0.82091000  0.41218000  1
  C  C187  1  0.01909000  0.84736000  0.36226000  1
  C  C188  1  0.01468000  0.90312000  0.33671000  1
  C  C189  1  0.82110000  0.02201000  0.74463000  1
  C  C190  1  0.84749000  0.01908000  0.77111000  1
  C  C191  1  0.90321000  0.01467000  0.74537000  1
  C  C192  1  0.82132000  0.74448000  0.02201000  1
  C  C193  1  0.84761000  0.77105000  0.01909000  1
  C  C194  1  0.90332000  0.74536000  0.01469000  1
  C  C195  1  0.02203000  0.41216000  0.82098000  1
  C  C196  1  0.01912000  0.36222000  0.84743000  1
  C  C197  1  0.01472000  0.33664000  0.90321000  1
  C  C198  1  0.41214000  0.02202000  0.74460000  1
  C  C199  1  0.36223000  0.01910000  0.77107000  1
  C  C200  1  0.33664000  0.01466000  0.74535000  1
  C  C201  1  0.74471000  0.82115000  0.41209000  1
  C  C202  1  0.77118000  0.84752000  0.36217000  1
  C  C203  1  0.74545000  0.90327000  0.33659000  1
  C  C204  1  0.02201000  0.82115000  0.74466000  1
  C  C205  1  0.01907000  0.84752000  0.77114000  1
  C  C206  1  0.01467000  0.90323000  0.74537000  1
  C  C207  1  0.82111000  0.02202000  0.41215000  1
  C  C208  1  0.84747000  0.01909000  0.36223000  1
  C  C209  1  0.90320000  0.01466000  0.33667000  1
  C  C210  1  0.74487000  0.41218000  0.02199000  1
  C  C211  1  0.77124000  0.36227000  0.01907000  1
  C  C212  1  0.74545000  0.33673000  0.01466000  1
  C  C213  1  0.41216000  0.74470000  0.82111000  1
  C  C214  1  0.36226000  0.77116000  0.84747000  1
  C  C215  1  0.33670000  0.74543000  0.90318000  1
  C  C216  1  0.74463000  0.02202000  0.82110000  1
  C  C217  1  0.77111000  0.01908000  0.84749000  1
  C  C218  1  0.74536000  0.01467000  0.90321000  1
  C  C219  1  0.41211000  0.82118000  0.02202000  1
  C  C220  1  0.36221000  0.84753000  0.01908000  1
  C  C221  1  0.33664000  0.90324000  0.01469000  1
  C  C222  1  0.02202000  0.74443000  0.41209000  1
  C  C223  1  0.01910000  0.77102000  0.36215000  1
  C  C224  1  0.01466000  0.74535000  0.33652000  1
  C  C225  1  0.82113000  0.41217000  0.74466000  1
  C  C226  1  0.84751000  0.36225000  0.77115000  1
  C  C227  1  0.90320000  0.33667000  0.74541000  1
  C  C228  1  0.17889000  0.58782000  0.97797000  1
  C  C229  1  0.15254000  0.63774000  0.98090000  1
  C  C230  1  0.09683000  0.66331000  0.98532000  1
  C  C231  1  0.97796000  0.25541000  0.17884000  1
  C  C232  1  0.98089000  0.22893000  0.15246000  1
  C  C233  1  0.98536000  0.25465000  0.09670000  1
  C  C234  1  0.58786000  0.17882000  0.25537000  1
  C  C235  1  0.63776000  0.15247000  0.22890000  1
  C  C236  1  0.66335000  0.09672000  0.25463000  1
  C  C237  1  0.25538000  0.97798000  0.58787000  1
  C  C238  1  0.22891000  0.98090000  0.63778000  1
  C  C239  1  0.25463000  0.98534000  0.66337000  1
  C  C240  1  0.97796000  0.58785000  0.25540000  1
  C  C241  1  0.98089000  0.63778000  0.22891000  1
  C  C242  1  0.98533000  0.66337000  0.25462000  1
  C  C243  1  0.17887000  0.25530000  0.58785000  1
  C  C244  1  0.15251000  0.22882000  0.63776000  1
  C  C245  1  0.09681000  0.25453000  0.66332000  1
  C  C246  1  0.25532000  0.17891000  0.97798000  1
  C  C247  1  0.22885000  0.15253000  0.98090000  1
  C  C248  1  0.25460000  0.09680000  0.98531000  1
  C  C249  1  0.58784000  0.97798000  0.17890000  1
  C  C250  1  0.63776000  0.98090000  0.15254000  1
  C  C251  1  0.66334000  0.98528000  0.09682000  1
  C  C252  1  0.25526000  0.58787000  0.17891000  1
  C  C253  1  0.22879000  0.63779000  0.15253000  1
  C  C254  1  0.25453000  0.66336000  0.09682000  1
  C  C255  1  0.58782000  0.25537000  0.97800000  1
  C  C256  1  0.63773000  0.22890000  0.98095000  1
  C  C257  1  0.66330000  0.25465000  0.98536000  1
  C  C258  1  0.97798000  0.17887000  0.58783000  1
  C  C259  1  0.98091000  0.15249000  0.63775000  1
  C  C260  1  0.98531000  0.09677000  0.66333000  1
  C  C261  1  0.17888000  0.97799000  0.25539000  1
  C  C262  1  0.15249000  0.98092000  0.22891000  1
  C  C263  1  0.09678000  0.98530000  0.25467000  1
  C  C264  1  0.25752000  0.25758000  0.97485000  1
  C  C265  1  0.23042000  0.23050000  0.97631000  1
  C  C266  1  0.17748000  0.17753000  0.98220000  1
  C  C267  1  0.97483000  0.51010000  0.25756000  1
  C  C268  1  0.97630000  0.56282000  0.23049000  1
  C  C269  1  0.98221000  0.66287000  0.17753000  1
  C  C270  1  0.51010000  0.97485000  0.25755000  1
  C  C271  1  0.56281000  0.97632000  0.23049000  1
  C  C272  1  0.66284000  0.98221000  0.17755000  1
  C  C273  1  0.25754000  0.25751000  0.51012000  1
  C  C274  1  0.23045000  0.23043000  0.56283000  1
  C  C275  1  0.17750000  0.17744000  0.66286000  1
  C  C276  1  0.97485000  0.25757000  0.25751000  1
  C  C277  1  0.97631000  0.23049000  0.23043000  1
  C  C278  1  0.98220000  0.17752000  0.17748000  1
  C  C279  1  0.25754000  0.97484000  0.51011000  1
  C  C280  1  0.23048000  0.97632000  0.56282000  1
  C  C281  1  0.17754000  0.98221000  0.66285000  1
  C  C282  1  0.25755000  0.51008000  0.97484000  1
  C  C283  1  0.23048000  0.56279000  0.97632000  1
  C  C284  1  0.17754000  0.66281000  0.98223000  1
  C  C285  1  0.51011000  0.25751000  0.25755000  1
  C  C286  1  0.56281000  0.23042000  0.23047000  1
  C  C287  1  0.66282000  0.17746000  0.17752000  1
  C  C288  1  0.25755000  0.97486000  0.25758000  1
  C  C289  1  0.23045000  0.97633000  0.23050000  1
  C  C290  1  0.17748000  0.98223000  0.17752000  1
  C  C291  1  0.51008000  0.25753000  0.97484000  1
  C  C292  1  0.56279000  0.23047000  0.97633000  1
  C  C293  1  0.66281000  0.17752000  0.98225000  1
  C  C294  1  0.97484000  0.25753000  0.51007000  1
  C  C295  1  0.97632000  0.23047000  0.56278000  1
  C  C296  1  0.98224000  0.17749000  0.66282000  1
  C  C297  1  0.25750000  0.51011000  0.25758000  1
  C  C298  1  0.23039000  0.56283000  0.23050000  1
  C  C299  1  0.17743000  0.66287000  0.17750000  1
  C  C300  1  0.74256000  0.48991000  0.02519000  1
  C  C301  1  0.76982000  0.43719000  0.02367000  1
  C  C302  1  0.82261000  0.33712000  0.01779000  1
  C  C303  1  0.02519000  0.74250000  0.74248000  1
  C  C304  1  0.02369000  0.76956000  0.76958000  1
  C  C305  1  0.01777000  0.82252000  0.82253000  1
  C  C306  1  0.48989000  0.74250000  0.74244000  1
  C  C307  1  0.43719000  0.76959000  0.76952000  1
  C  C308  1  0.33718000  0.82254000  0.82247000  1
  C  C309  1  0.74246000  0.02516000  0.48989000  1
  C  C310  1  0.76952000  0.02369000  0.43718000  1
  C  C311  1  0.82246000  0.01779000  0.33715000  1
  C  C312  1  0.02518000  0.48991000  0.74240000  1
  C  C313  1  0.02366000  0.43718000  0.76936000  1
  C  C314  1  0.01779000  0.33709000  0.82248000  1
  C  C315  1  0.74250000  0.74247000  0.48986000  1
  C  C316  1  0.76959000  0.76955000  0.43714000  1
  C  C317  1  0.82254000  0.82254000  0.33710000  1
  C  C318  1  0.74251000  0.74236000  0.02517000  1
  C  C319  1  0.76976000  0.76932000  0.02366000  1
  C  C320  1  0.82258000  0.82244000  0.01778000  1
  C  C321  1  0.48989000  0.02516000  0.74245000  1
  C  C322  1  0.43719000  0.02368000  0.76951000  1
  C  C323  1  0.33716000  0.01779000  0.82244000  1
  C  C324  1  0.74246000  0.48992000  0.74245000  1
  C  C325  1  0.76956000  0.43721000  0.76953000  1
  C  C326  1  0.82253000  0.33716000  0.82253000  1
  C  C327  1  0.48978000  0.74251000  0.02521000  1
  C  C328  1  0.43713000  0.76959000  0.02369000  1
  C  C329  1  0.33714000  0.82252000  0.01775000  1
  C  C330  1  0.02518000  0.74236000  0.48990000  1
  C  C331  1  0.02367000  0.76928000  0.43718000  1
  C  C332  1  0.01778000  0.82241000  0.33712000  1
  C  C333  1  0.74243000  0.02515000  0.74244000  1
  C  C334  1  0.76953000  0.02368000  0.76952000  1
  C  C335  1  0.82249000  0.01777000  0.82250000  1
  N  N336  1  0.23606000  0.30680000  0.97474000  1
  N  N337  1  0.27273000  0.31559000  0.97462000  1
  N  N338  1  0.97472000  0.48250000  0.23603000  1
  N  N339  1  0.97461000  0.43713000  0.27266000  1
  N  N340  1  0.48246000  0.97473000  0.30677000  1
  N  N341  1  0.43712000  0.97461000  0.31555000  1
  N  N342  1  0.30675000  0.23602000  0.48251000  1
  N  N343  1  0.31557000  0.27267000  0.43714000  1
  N  N344  1  0.97474000  0.23607000  0.30675000  1
  N  N345  1  0.97462000  0.27273000  0.31556000  1
  N  N346  1  0.23604000  0.97473000  0.48248000  1
  N  N347  1  0.27267000  0.97462000  0.43714000  1
  N  N348  1  0.30677000  0.48244000  0.97472000  1
  N  N349  1  0.31555000  0.43709000  0.97461000  1
  N  N350  1  0.48248000  0.30675000  0.23605000  1
  N  N351  1  0.43714000  0.31555000  0.27269000  1
  N  N352  1  0.30677000  0.97474000  0.23610000  1
  N  N353  1  0.31560000  0.97462000  0.27275000  1
  N  N354  1  0.48247000  0.23601000  0.97473000  1
  N  N355  1  0.43712000  0.27264000  0.97461000  1
  N  N356  1  0.97472000  0.30677000  0.48241000  1
  N  N357  1  0.97461000  0.31554000  0.43707000  1
  N  N358  1  0.23606000  0.48243000  0.30680000  1
  N  N359  1  0.27272000  0.43709000  0.31558000  1
  N  N360  1  0.76355000  0.51799000  0.02532000  1
  N  N361  1  0.72643000  0.56311000  0.02556000  1
  N  N362  1  0.02531000  0.69328000  0.76396000  1
  N  N363  1  0.02546000  0.68443000  0.72731000  1
  N  N364  1  0.51752000  0.76399000  0.69321000  1
  N  N365  1  0.56285000  0.72734000  0.68441000  1
  N  N366  1  0.69324000  0.02527000  0.51752000  1
  N  N367  1  0.68446000  0.02538000  0.56287000  1
  N  N368  1  0.02532000  0.51797000  0.69320000  1
  N  N369  1  0.02556000  0.56311000  0.68497000  1
  N  N370  1  0.76395000  0.69324000  0.51753000  1
  N  N371  1  0.72729000  0.68446000  0.56287000  1
  N  N372  1  0.69319000  0.76425000  0.02540000  1
  N  N373  1  0.68377000  0.72796000  0.02564000  1
  N  N374  1  0.51751000  0.02527000  0.76396000  1
  N  N375  1  0.56286000  0.02538000  0.72734000  1
  N  N376  1  0.69324000  0.51753000  0.76393000  1
  N  N377  1  0.68442000  0.56290000  0.72729000  1
  N  N378  1  0.51736000  0.69329000  0.02534000  1
  N  N379  1  0.56272000  0.68442000  0.02547000  1
  N  N380  1  0.02541000  0.76432000  0.51706000  1
  N  N381  1  0.02563000  0.72808000  0.56254000  1
  N  N382  1  0.76389000  0.02527000  0.69321000  1
  N  N383  1  0.72724000  0.02538000  0.68441000  1
  N  N384  1  0.76352000  0.69317000  0.02533000  1
  N  N385  1  0.72641000  0.68488000  0.02559000  1
  N  N386  1  0.02540000  0.51710000  0.76433000  1
  N  N387  1  0.02562000  0.56258000  0.72808000  1
  N  N388  1  0.51754000  0.02527000  0.69322000  1
  N  N389  1  0.56288000  0.02538000  0.68445000  1
  N  N390  1  0.69328000  0.76397000  0.51746000  1
  N  N391  1  0.68445000  0.72733000  0.56283000  1
  N  N392  1  0.02533000  0.76399000  0.69325000  1
  N  N393  1  0.02547000  0.72734000  0.68441000  1
  N  N394  1  0.76396000  0.02527000  0.51752000  1
  N  N395  1  0.72733000  0.02538000  0.56286000  1
  N  N396  1  0.69324000  0.51708000  0.02540000  1
  N  N397  1  0.68380000  0.56256000  0.02562000  1
  N  N398  1  0.51752000  0.69326000  0.76393000  1
  N  N399  1  0.56285000  0.68447000  0.72729000  1
  N  N400  1  0.69322000  0.02526000  0.76392000  1
  N  N401  1  0.68440000  0.02537000  0.72726000  1
  N  N402  1  0.51742000  0.76397000  0.02534000  1
  N  N403  1  0.56275000  0.72732000  0.02547000  1
  N  N404  1  0.02531000  0.69316000  0.51799000  1
  N  N405  1  0.02556000  0.68495000  0.56310000  1
  N  N406  1  0.76392000  0.51758000  0.69322000  1
  N  N407  1  0.72726000  0.56293000  0.68442000  1
  N  N408  1  0.23604000  0.48244000  0.97473000  1
  N  N409  1  0.27268000  0.43710000  0.97461000  1
  N  N410  1  0.97473000  0.30681000  0.23604000  1
  N  N411  1  0.97462000  0.31561000  0.27270000  1
  N  N412  1  0.48248000  0.23603000  0.30677000  1
  N  N413  1  0.43714000  0.27268000  0.31557000  1
  N  N414  1  0.30677000  0.97472000  0.48248000  1
  N  N415  1  0.31555000  0.97461000  0.43713000  1
  N  N416  1  0.97473000  0.48243000  0.30679000  1
  N  N417  1  0.97462000  0.43708000  0.31555000  1
  N  N418  1  0.23608000  0.30675000  0.48246000  1
  N  N419  1  0.27273000  0.31554000  0.43712000  1
  N  N420  1  0.30674000  0.23608000  0.97473000  1
  N  N421  1  0.31558000  0.27273000  0.97461000  1
  N  N422  1  0.48248000  0.97473000  0.23603000  1
  N  N423  1  0.43714000  0.97461000  0.27266000  1
  N  N424  1  0.30671000  0.48250000  0.23607000  1
  N  N425  1  0.31555000  0.43713000  0.27271000  1
  N  N426  1  0.48244000  0.30676000  0.97473000  1
  N  N427  1  0.43710000  0.31553000  0.97461000  1
  N  N428  1  0.97472000  0.23601000  0.48246000  1
  N  N429  1  0.97461000  0.27265000  0.43710000  1
  N  N430  1  0.23609000  0.97474000  0.30680000  1
  N  N431  1  0.27275000  0.97461000  0.31561000  1
  O  O432  1  0.07498000  0.22841000  0.98759000  1
  O  O433  1  0.07509000  0.30044000  0.98741000  1
  O  O434  1  0.98757000  0.70911000  0.07498000  1
  O  O435  1  0.98753000  0.63713000  0.07505000  1
  O  O436  1  0.70906000  0.98760000  0.22843000  1
  O  O437  1  0.63714000  0.98748000  0.30041000  1
  O  O438  1  0.22839000  0.07496000  0.70910000  1
  O  O439  1  0.30033000  0.07506000  0.63715000  1
  O  O440  1  0.98759000  0.07494000  0.22846000  1
  O  O441  1  0.98743000  0.07504000  0.30044000  1
  O  O442  1  0.07502000  0.98752000  0.70909000  1
  O  O443  1  0.07505000  0.98749000  0.63714000  1
  O  O444  1  0.22847000  0.70905000  0.98757000  1
  O  O445  1  0.30041000  0.63713000  0.98748000  1
  O  O446  1  0.70904000  0.22844000  0.07503000  1
  O  O447  1  0.63715000  0.30039000  0.07506000  1
  O  O448  1  0.22845000  0.98759000  0.07497000  1
  O  O449  1  0.30040000  0.98744000  0.07510000  1
  O  O450  1  0.70907000  0.07498000  0.98750000  1
  O  O451  1  0.63712000  0.07502000  0.98748000  1
  O  O452  1  0.98757000  0.22843000  0.70905000  1
  O  O453  1  0.98747000  0.30040000  0.63711000  1
  O  O454  1  0.07496000  0.70907000  0.22836000  1
  O  O455  1  0.07504000  0.63711000  0.30035000  1
  O  O456  1  0.92510000  0.29079000  0.01246000  1
  O  O457  1  0.92510000  0.36279000  0.01247000  1
  O  O458  1  0.01245000  0.77151000  0.92507000  1
  O  O459  1  0.01259000  0.69954000  0.92497000  1
  O  O460  1  0.29096000  0.92501000  0.77158000  1
  O  O461  1  0.36288000  0.92497000  0.69960000  1
  O  O462  1  0.77158000  0.01240000  0.29092000  1
  O  O463  1  0.69962000  0.01250000  0.36286000  1
  O  O464  1  0.01243000  0.29079000  0.77161000  1
  O  O465  1  0.01253000  0.36274000  0.69963000  1
  O  O466  1  0.92499000  0.77165000  0.29088000  1
  O  O467  1  0.92493000  0.69965000  0.36284000  1
  O  O468  1  0.77153000  0.92499000  0.01244000  1
  O  O469  1  0.69959000  0.92482000  0.01259000  1
  O  O470  1  0.29091000  0.01251000  0.92497000  1
  O  O471  1  0.36285000  0.01254000  0.92494000  1
  O  O472  1  0.77157000  0.29093000  0.92505000  1
  O  O473  1  0.69968000  0.36288000  0.92493000  1
  O  O474  1  0.29094000  0.77154000  0.01242000  1
  O  O475  1  0.36285000  0.69960000  0.01253000  1
  O  O476  1  0.01247000  0.92495000  0.29095000  1
  O  O477  1  0.01251000  0.92485000  0.36294000  1
  O  O478  1  0.92504000  0.01240000  0.77154000  1
  O  O479  1  0.92491000  0.01256000  0.69957000  1
  O  O480  1  0.92512000  0.77156000  0.01243000  1
  O  O481  1  0.92503000  0.69956000  0.01258000  1
  O  O482  1  0.01250000  0.29090000  0.92497000  1
  O  O483  1  0.01253000  0.36292000  0.92488000  1
  O  O484  1  0.29094000  0.01239000  0.77157000  1
  O  O485  1  0.36287000  0.01252000  0.69959000  1
  O  O486  1  0.77164000  0.92503000  0.29087000  1
  O  O487  1  0.69971000  0.92492000  0.36283000  1
  O  O488  1  0.01242000  0.92507000  0.77153000  1
  O  O489  1  0.01257000  0.92495000  0.69956000  1
  O  O490  1  0.92499000  0.01246000  0.29092000  1
  O  O491  1  0.92496000  0.01247000  0.36287000  1
  O  O492  1  0.77159000  0.29099000  0.01242000  1
  O  O493  1  0.69967000  0.36291000  0.01253000  1
  O  O494  1  0.29097000  0.77159000  0.92497000  1
  O  O495  1  0.36286000  0.69964000  0.92494000  1
  O  O496  1  0.77152000  0.01241000  0.92506000  1
  O  O497  1  0.69958000  0.01254000  0.92492000  1
  O  O498  1  0.29088000  0.92505000  0.01251000  1
  O  O499  1  0.36285000  0.92500000  0.01252000  1
  O  O500  1  0.01241000  0.77161000  0.29081000  1
  O  O501  1  0.01251000  0.69958000  0.36278000  1
  O  O502  1  0.92501000  0.29092000  0.77155000  1
  O  O503  1  0.92493000  0.36287000  0.69962000  1
  O  O504  1  0.07504000  0.70907000  0.98752000  1
  O  O505  1  0.07507000  0.63710000  0.98750000  1
  O  O506  1  0.98767000  0.22840000  0.07494000  1
  O  O507  1  0.98749000  0.30044000  0.07502000  1
  O  O508  1  0.70904000  0.07499000  0.22842000  1
  O  O509  1  0.63712000  0.07503000  0.30039000  1
  O  O510  1  0.22842000  0.98760000  0.70908000  1
  O  O511  1  0.30039000  0.98750000  0.63714000  1
  O  O512  1  0.98759000  0.70909000  0.22838000  1
  O  O513  1  0.98747000  0.63713000  0.30040000  1
  O  O514  1  0.07501000  0.22836000  0.70905000  1
  O  O515  1  0.07507000  0.30033000  0.63713000  1
  O  O516  1  0.22843000  0.07497000  0.98757000  1
  O  O517  1  0.30039000  0.07509000  0.98742000  1
  O  O518  1  0.70909000  0.98747000  0.07503000  1
  O  O519  1  0.63715000  0.98745000  0.07506000  1
  O  O520  1  0.22839000  0.70910000  0.07499000  1
  O  O521  1  0.30028000  0.63716000  0.07511000  1
  O  O522  1  0.70903000  0.22849000  0.98760000  1
  O  O523  1  0.63713000  0.30043000  0.98748000  1
  O  O524  1  0.98750000  0.07497000  0.70910000  1
  O  O525  1  0.98749000  0.07502000  0.63712000  1
  O  O526  1  0.07494000  0.98755000  0.22851000  1
  O  O527  1  0.07507000  0.98740000  0.30047000  1
  O  O528  1  0.33891000  0.33887000  0.98323000  1
  O  O529  1  0.98321000  0.33889000  0.33889000  1
  O  O530  1  0.33890000  0.98323000  0.33889000  1
  O  O531  1  0.33895000  0.33891000  0.33892000  1
  O  O532  1  0.66083000  0.66157000  0.01597000  1
  O  O533  1  0.01591000  0.66167000  0.66166000  1
  O  O534  1  0.66105000  0.66111000  0.66107000  1
  O  O535  1  0.66108000  0.01681000  0.66110000  1
