# generated using pymatgen
data_H7C12(N3O)2
_symmetry_space_group_name_H-M   'P 1'
_cell_length_a   15.58640000
_cell_length_b   26.99643671
_cell_length_c   93.51870000
_cell_angle_alpha   90.00000000
_cell_angle_beta   90.00000000
_cell_angle_gamma   90.00000000
_symmetry_Int_Tables_number   1
_chemical_formula_structural   H7C12(N3O)2
_chemical_formula_sum   'H168 C288 N144 O48'
_cell_volume   39350.54244683
_cell_formula_units_Z   24
loop_
 _symmetry_equiv_pos_site_id
 _symmetry_equiv_pos_as_xyz
  1  'x, y, z'
loop_
 _atom_site_type_symbol
 _atom_site_label
 _atom_site_symmetry_multiplicity
 _atom_site_fract_x
 _atom_site_fract_y
 _atom_site_fract_z
 _atom_site_occupancy
  C  2  1  0.05074900  0.01358500  0.08256400  1
  C  3  1  0.59220000  0.51705400  0.05674500  1
  C  4  1  0.53017100  0.51630600  0.06776900  1
  C  7  1  0.00914300  0.01911100  0.42734100  1
  C  8  1  0.02341800  0.04126900  0.45326000  1
  C  9  1  0.05669200  0.06332300  0.42458800  1
  C  12  1  0.54430000  0.49361100  0.58227100  1
  C  13  1  0.61762000  0.43045800  0.56014400  1
  C  14  1  0.62028600  0.41600400  0.57473800  1
  C  15  1  0.58338600  0.44697100  0.58529200  1
  C  17  1  0.01080300  0.02553600  0.59317500  1
  C  18  1  0.96108700  0.06866900  0.59017200  1
  C  19  1  0.92861600  0.10093400  0.60083500  1
  C  20  1  0.94341200  0.09015200  0.61550300  1
  C  29  1  0.53985600  0.49389200  0.92673700  1
  C  30  1  0.62939000  0.49708100  0.92371100  1
  C  31  1  0.08207000  0.99334800  0.95254400  1
  C  33  1  0.02097300  0.02531900  0.24874600  1
  C  34  1  0.02705700  0.05135400  0.22301800  1
  C  35  1  0.06940800  0.06901400  0.25167700  1
  C  39  1  0.06244800  0.05361300  0.00033700  1
  C  40  1  0.05109000  0.01611000  0.98998100  1
  C  41  1  0.05126200  0.02615400  0.97541000  1
  C  43  1  0.00442700  0.03285100  0.68592900  1
  C  45  1  0.06681500  0.04612900  0.67554800  1
  C  46  1  0.01704700  0.03888800  0.70057500  1
  C  49  1  0.81449900  0.21185500  0.58623000  1
  C  51  1  0.79099200  0.23973300  0.57398500  1
  C  54  1  0.86030800  0.16690400  0.58552700  1
  C  56  1  0.95522500  0.07260000  0.16732900  1
  C  61  1  0.04850400  0.01390200  0.84304500  1
  C  64  1  0.57274700  0.50594200  0.49028200  1
  C  66  1  0.63876400  0.49705500  0.50043200  1
  C  67  1  0.58532400  0.50197800  0.47556600  1
  C  69  1  0.55077100  0.51345000  0.08261800  1
  C  70  1  0.09223400  0.01715100  0.05669800  1
  C  71  1  0.03017500  0.01646300  0.06771600  1
  C  74  1  0.53116600  0.51198300  0.42713600  1
  C  75  1  0.51795500  0.50291900  0.44201700  1
  C  76  1  0.54796400  0.53444900  0.45300300  1
  C  77  1  0.57774100  0.55641500  0.42420600  1
  C  80  1  0.04531000  0.99385900  0.58209100  1
  C  81  1  0.11821000  0.93074700  0.55991000  1
  C  82  1  0.12111100  0.91625600  0.57450500  1
  C  83  1  0.08438100  0.94720800  0.58507800  1
  C  85  1  0.50992400  0.52542200  0.59333000  1
  C  86  1  0.46034800  0.56859100  0.59030500  1
  C  87  1  0.42812800  0.60102100  0.60094900  1
  C  88  1  0.44303800  0.59036100  0.61562000  1
  C  97  1  0.03987400  0.99388100  0.92671700  1
  C  98  1  0.12940700  0.99707100  0.92369200  1
  C  99  1  0.58205800  0.49338500  0.95256500  1
  C  101  1  0.51000300  0.52911200  0.24887800  1
  C  102  1  0.52083400  0.55427800  0.22313500  1
  C  103  1  0.56002700  0.57209900  0.25192300  1
  C  107  1  0.56253000  0.55360000  0.00037600  1
  C  108  1  0.55116600  0.51611000  0.99001400  1
  C  109  1  0.55136500  0.52617400  0.97544300  1
  C  111  1  0.50449200  0.53282000  0.68601400  1
  C  113  1  0.56683400  0.54611400  0.67562800  1
  C  114  1  0.51717400  0.53882000  0.70065500  1
  C  117  1  0.31433200  0.71188800  0.58623800  1
  C  119  1  0.29107400  0.73962900  0.57395300  1
  C  122  1  0.36003300  0.66689300  0.58559400  1
  C  124  1  0.45436200  0.57367700  0.16716100  1
  C  129  1  0.54850400  0.51390200  0.84306600  1
  C  132  1  0.05488800  0.00793600  0.48997600  1
  C  134  1  0.12434500  0.99847500  0.49942500  1
  C  135  1  0.06183000  0.00452300  0.47515000  1
  C  136  1  0.50681500  0.51096800  0.10865300  1
  C  137  1  0.54309600  0.50645700  0.56746800  1
  C  138  1  0.57739100  0.47598600  0.55654600  1
  C  140  1  0.99041600  0.04676700  0.61902200  1
  C  141  1  0.02423900  0.01654800  0.60804100  1
  C  147  1  0.55108600  0.49441100  0.01948700  1
  C  148  1  0.55232200  0.48529800  0.03415200  1
  C  151  1  0.74712500  0.27333800  0.60105300  1
  C  152  1  0.72363600  0.30134100  0.58893900  1
  C  154  1  0.67853600  0.34635000  0.58995800  1
  C  157  1  0.03309900  0.01314200  0.51987000  1
  C  158  1  0.02432800  0.01526600  0.53466400  1
  C  159  1  0.00675000  0.01124700  0.10859300  1
  C  160  1  0.04399200  0.00674100  0.56729000  1
  C  161  1  0.07790100  0.97627500  0.55632200  1
  C  163  1  0.48994200  0.54696200  0.61915600  1
  C  164  1  0.52350400  0.51656600  0.60819500  1
  C  170  1  0.05103100  0.99444800  0.01945300  1
  C  171  1  0.05224500  0.98536500  0.03411900  1
  C  174  1  0.24692600  0.77362600  0.60096600  1
  C  175  1  0.22373200  0.80150000  0.58881000  1
  C  177  1  0.17886100  0.84660200  0.58975600  1
  C  180  1  0.54037200  0.51242100  0.51989400  1
  C  181  1  0.52687800  0.51471000  0.53458600  1
  C  182  1  0.00164900  0.01817200  0.23396300  1
  C  183  1  0.97302900  0.04456000  0.14232300  1
  C  184  1  0.47397400  0.54466900  0.14228800  1
  C  187  1  0.14069500  0.01206100  0.08542600  1
  C  188  1  0.20510300  0.01371800  0.07473200  1
  C  189  1  0.18094700  0.01645900  0.06010700  1
  C  191  1  0.06972300  0.08507400  0.44995500  1
  C  192  1  0.08701900  0.09582300  0.43537000  1
  C  196  1  0.69409900  0.49709300  0.93436100  1
  C  197  1  0.67062500  0.49507700  0.94903300  1
  C  201  1  0.07282700  0.09514400  0.22657000  1
  C  202  1  0.09435200  0.10370600  0.24111400  1
  C  211  1  0.64072900  0.51201300  0.08547400  1
  C  212  1  0.70511400  0.51370600  0.07477500  1
  C  213  1  0.68092000  0.51643200  0.06015100  1
  C  215  1  0.59220900  0.57879600  0.44951600  1
  C  216  1  0.60788300  0.58941200  0.43487200  1
  C  220  1  0.19411200  0.99707800  0.93434300  1
  C  221  1  0.17063500  0.99505600  0.94901500  1
  C  225  1  0.56856000  0.59729500  0.22676700  1
  C  226  1  0.58829600  0.60600000  0.24137900  1
  C  265  1  0.49205100  0.52193700  0.23405400  1
  C  266  1  0.99336600  0.01022600  0.44216000  1
  C  267  1  0.98620500  0.01242100  0.09372100  1
  C  269  1  0.44474700  0.50982000  0.11967500  1
  C  270  1  0.85598700  0.00910600  0.11616600  1
  C  271  1  0.83193100  0.01092900  0.10152600  1
  C  272  1  0.89625500  0.01238700  0.09082800  1
  C  281  1  0.51076700  0.48864000  0.76047700  1
  C  282  1  0.50225800  0.49948500  0.77535200  1
  C  283  1  0.53465800  0.46890700  0.78637400  1
  C  284  1  0.58027400  0.42497900  0.78292700  1
  C  285  1  0.58962400  0.41207000  0.76828700  1
  C  286  1  0.55546500  0.44356700  0.75758700  1
  C  289  1  0.97701200  0.02042800  0.74927100  1
  C  290  1  0.93394900  0.06603100  0.75214500  1
  C  291  1  0.89938700  0.09747700  0.74146100  1
  C  292  1  0.90774000  0.08421000  0.72682700  1
  C  293  1  0.95174600  0.03973400  0.72338800  1
  C  294  1  0.98368400  0.00899000  0.73441000  1
  C  307  1  0.50032800  0.47900100  0.41602500  1
  C  308  1  0.45492900  0.43417700  0.41895500  1
  C  309  1  0.42479500  0.40107600  0.40830500  1
  C  310  1  0.43939600  0.41214400  0.39365100  1
  C  311  1  0.48295300  0.45672400  0.39016400  1
  C  312  1  0.51276900  0.48832500  0.40114600  1
  C  329  1  0.47498500  0.49247300  0.91567700  1
  C  330  1  0.99488600  0.98628400  0.90086800  1
  C  331  1  0.93201100  0.98416900  0.88995500  1
  C  332  1  0.34362100  0.48695000  0.89355800  1
  C  333  1  0.32060200  0.49323600  0.90813600  1
  C  334  1  0.38549800  0.49641800  0.91868600  1
  C  336  1  0.01973600  0.99166600  0.94158000  1
  C  344  1  0.47930200  0.49599200  0.25992100  1
  C  345  1  0.43931300  0.44965700  0.25686100  1
  C  346  1  0.40663800  0.41727800  0.26747500  1
  C  347  1  0.41494500  0.42995800  0.28215700  1
  C  348  1  0.45664400  0.47506400  0.28573900  1
  C  349  1  0.48566100  0.50708600  0.27480000  1
  C  358  1  0.53886100  0.45652800  0.00914800  1
  C  365  1  0.41070400  0.50721200  0.66700200  1
  C  366  1  0.47204600  0.52064400  0.65658100  1
  C  368  1  0.45700800  0.51481000  0.64201800  1
  C  370  1  0.97015500  0.98786200  0.35254400  1
  C  372  1  0.55430900  0.45435000  0.33372800  1
  C  373  1  0.50344600  0.47829700  0.32331300  1
  C  375  1  0.92215700  0.01120500  0.34154100  1
  C  379  1  0.94966800  0.99233700  0.36698700  1
  C  381  1  0.51953600  0.47367500  0.30875100  1
  C  383  1  0.42842400  0.01197000  0.08948800  1
  C  385  1  0.05546600  0.51325800  0.07496400  1
  C  386  1  0.10828800  0.51230900  0.08721000  1
  C  388  1  0.48109400  0.01121700  0.10186000  1
  C  393  1  0.33805800  0.01177700  0.09002600  1
  C  395  1  0.19840300  0.51234600  0.08636500  1
  C  397  1  0.78980500  0.20976900  0.75626300  1
  C  399  1  0.72453600  0.27265400  0.74169200  1
  C  400  1  0.69938400  0.29950200  0.75393400  1
  C  402  1  0.76450700  0.23644300  0.76863700  1
  C  407  1  0.83534900  0.16470700  0.75679100  1
  C  409  1  0.65424700  0.34452600  0.75307500  1
  C  411  1  0.30998900  0.29060300  0.42327800  1
  C  413  1  0.24327000  0.22778500  0.40886400  1
  C  414  1  0.21332800  0.20291600  0.42116100  1
  C  416  1  0.28134700  0.26538900  0.43571000  1
  C  421  1  0.35689500  0.33524700  0.42370500  1
  C  423  1  0.16387500  0.15939000  0.42034600  1
  C  431  1  0.91738300  0.49854500  0.91970300  1
  C  433  1  0.54344400  0.00166800  0.93448200  1
  C  434  1  0.59707100  0.99926000  0.92235500  1
  C  436  1  0.97082900  0.49621800  0.90744600  1
  C  441  1  0.82705000  0.49812600  0.91902500  1
  C  442  1  0.68713700  0.99928900  0.92335100  1
  C  444  1  0.29790000  0.30486600  0.25269600  1
  C  446  1  0.24104300  0.23975100  0.26744500  1
  C  447  1  0.21108200  0.21404000  0.25530400  1
  C  449  1  0.26792600  0.27928100  0.24042600  1
  C  454  1  0.34192700  0.35041200  0.25205600  1
  C  456  1  0.16763300  0.16849400  0.25629000  1
  C  458  1  0.97580700  0.03590500  0.15700500  1
  C  460  1  0.50370200  0.48039000  0.17642500  1
  C  461  1  0.48343000  0.51720600  0.18661100  1
  C  465  1  0.48631500  0.50910900  0.20131100  1
  C  467  1  0.47907700  0.47101500  0.82370600  1
  C  468  1  0.00376800  0.98533900  0.85326600  1
  C  470  1  0.43423800  0.44188100  0.83390200  1
  C  474  1  0.46793900  0.46577000  0.80900400  1
  C  476  1  0.01365500  0.99152900  0.86794700  1
  C  478  1  0.96461000  0.02283200  0.51038200  1
  C  483  1  0.48625800  0.51223900  0.09378000  1
  C  485  1  0.94468900  0.01009900  0.11961400  1
  C  486  1  0.35604300  0.50893500  0.11622800  1
  C  487  1  0.33198100  0.51080900  0.10158900  1
  C  488  1  0.39630200  0.51227200  0.09089100  1
  C  497  1  0.01074200  0.98865800  0.76043800  1
  C  498  1  0.00219400  0.99951200  0.77531400  1
  C  499  1  0.03456800  0.96894800  0.78634000  1
  C  500  1  0.08020500  0.92502000  0.78289900  1
  C  501  1  0.08957800  0.91210000  0.76826000  1
  C  502  1  0.05544000  0.94358600  0.75755400  1
  C  505  1  0.47700100  0.52042500  0.74931900  1
  C  506  1  0.43393100  0.56602800  0.75219500  1
  C  507  1  0.39936600  0.59746900  0.74150900  1
  C  508  1  0.40770900  0.58420400  0.72687600  1
  C  509  1  0.45170800  0.53972800  0.72344300  1
  C  510  1  0.48366500  0.50898300  0.73445900  1
  C  523  1  0.98191400  0.98549500  0.41613200  1
  C  524  1  0.93951700  0.93961900  0.41893600  1
  C  525  1  0.91615000  0.90492100  0.40823900  1
  C  526  1  0.93472700  0.91538900  0.39367500  1
  C  527  1  0.97426600  0.96127700  0.39028600  1
  C  528  1  0.99702300  0.99462600  0.40130800  1
  C  545  1  0.97499700  0.99247000  0.91565800  1
  C  546  1  0.49488100  0.48628000  0.90088800  1
  C  547  1  0.43201800  0.48416100  0.88997300  1
  C  548  1  0.84361500  0.98695400  0.89354300  1
  C  549  1  0.82060800  0.99323700  0.90812300  1
  C  550  1  0.88551500  0.99641900  0.91867000  1
  C  552  1  0.51972300  0.49169900  0.94160100  1
  C  560  1  0.99252700  0.99178500  0.25986700  1
  C  561  1  0.95120700  0.94574200  0.25692600  1
  C  562  1  0.91896800  0.91353400  0.26762500  1
  C  563  1  0.92957400  0.92593900  0.28228700  1
  C  564  1  0.97343900  0.97046700  0.28575900  1
  C  565  1  0.00164900  0.00239400  0.27473900  1
  C  574  1  0.03881600  0.95654700  0.00912000  1
  C  581  1  0.91074200  0.00724800  0.66689900  1
  C  582  1  0.97213900  0.02065400  0.65648200  1
  C  584  1  0.95712900  0.01481300  0.64191400  1
  C  586  1  0.46819000  0.48776900  0.35274700  1
  C  588  1  0.06152100  0.95226500  0.33454900  1
  C  589  1  0.01370000  0.97501600  0.32352800  1
  C  591  1  0.41708700  0.51231700  0.34236100  1
  C  595  1  0.45245700  0.49065800  0.36738900  1
  C  597  1  0.03309500  0.96860000  0.30913500  1
  C  598  1  0.92846500  0.51201700  0.08952700  1
  C  600  1  0.55538200  0.01318600  0.07491400  1
  C  601  1  0.60823100  0.01227100  0.08715700  1
  C  603  1  0.98111200  0.51124600  0.10190300  1
  C  608  1  0.83809800  0.51181300  0.09006200  1
  C  610  1  0.69834000  0.01233600  0.08630400  1
  C  612  1  0.28979000  0.70978800  0.75628500  1
  C  614  1  0.22455500  0.77263700  0.74169600  1
  C  615  1  0.19937900  0.79951100  0.75393300  1
  C  617  1  0.26446200  0.73648800  0.76865200  1
  C  622  1  0.33533000  0.66472600  0.75682800  1
  C  624  1  0.15423700  0.84453200  0.75306200  1
  C  626  1  0.80985900  0.79125800  0.42290600  1
  C  628  1  0.75114200  0.72626400  0.40832300  1
  C  629  1  0.72342000  0.70017500  0.42055100  1
  C  631  1  0.78325300  0.76494000  0.43526900  1
  C  636  1  0.85174800  0.83750100  0.42345700  1
  C  638  1  0.67885100  0.65494300  0.41966900  1
  C  646  1  0.41740800  0.99854900  0.91969200  1
  C  648  1  0.04342800  0.50166700  0.93449100  1
  C  649  1  0.09704800  0.49925900  0.92236400  1
  C  651  1  0.47085900  0.99622200  0.90743600  1
  C  656  1  0.32707900  0.99812600  0.91901100  1
  C  657  1  0.18711300  0.49928900  0.92336000  1
  C  659  1  0.80213700  0.80348500  0.25303600  1
  C  661  1  0.74147500  0.73955500  0.26779900  1
  C  662  1  0.70970900  0.71451100  0.25566900  1
  C  664  1  0.77006300  0.77866700  0.24078200  1
  C  669  1  0.84903500  0.84806200  0.25235300  1
  C  671  1  0.66368200  0.66980100  0.25664400  1
  C  672  1  0.47559500  0.53655300  0.15700300  1
  C  674  1  0.00541600  0.97896500  0.17617600  1
  C  675  1  0.98580700  0.01534500  0.18652600  1
  C  679  1  0.98991500  0.00662700  0.20118800  1
  C  681  1  0.97907300  0.97101200  0.82368500  1
  C  682  1  0.50377100  0.48533200  0.85328600  1
  C  684  1  0.93423900  0.94188200  0.83388300  1
  C  688  1  0.96792700  0.96575500  0.80898200  1
  C  690  1  0.51366600  0.49152100  0.86796600  1
  C  692  1  0.47527900  0.52156600  0.50972600  1
  H  1  1  0.56889300  0.51140900  0.11199400  1
  H  6  1  0.61110500  0.40532500  0.80350400  1
  H  10  1  0.02583000  0.02639200  0.39801600  1
  H  22  1  0.88297400  0.15124000  0.62388500  1
  H  23  1  0.68041400  0.36973100  0.55194900  1
  H  24  1  0.58418600  0.43365400  0.59544100  1
  H  25  1  0.94550400  0.07708800  0.57991900  1
  H  28  1  0.05653000  0.98067600  0.89766800  1
  H  36  1  0.02758700  0.03504400  0.27804100  1
  H  42  1  0.06875900  0.05994200  0.97225900  1
  H  47  1  0.06105200  0.06328700  0.70373900  1
  H  48  1  0.60536000  0.43263200  0.33093500  1
  H  55  1  0.87766300  0.15281300  0.57581300  1
  H  59  1  0.95393000  0.07776900  0.13895400  1
  H  62  1  0.09089400  0.04084700  0.84604900  1
  H  63  1  0.04893400  0.01995300  0.87131500  1
  H  68  1  0.06883000  0.01177200  0.11193400  1
  H  73  1  0.11105700  0.90539900  0.80347800  1
  H  78  1  0.54438700  0.51912500  0.39777200  1
  H  90  1  0.38282700  0.65155400  0.62398200  1
  H  91  1  0.18085100  0.87002000  0.55169000  1
  H  92  1  0.08519000  0.93385800  0.59522200  1
  H  93  1  0.44467000  0.57690300  0.58004800  1
  H  96  1  0.55652900  0.48066400  0.89768800  1
  H  104  1  0.51025400  0.54005400  0.27814100  1
  H  110  1  0.56890400  0.55996000  0.97229700  1
  H  115  1  0.56115200  0.56323100  0.70382000  1
  H  116  1  0.11316800  0.93019500  0.33235500  1
  H  123  1  0.37742000  0.65267600  0.57589800  1
  H  127  1  0.45634600  0.57798900  0.13879200  1
  H  130  1  0.59089400  0.54084700  0.84607300  1
  H  131  1  0.54892600  0.51995100  0.87133500  1
  H  139  1  0.02112100  0.04027100  0.56411000  1
  H  142  1  0.56077700  0.48779900  0.61151000  1
  H  143  1  0.92653200  0.11508700  0.63605500  1
  H  144  1  0.65117700  0.41008800  0.53970100  1
  H  153  1  0.73210700  0.28472600  0.61117100  1
  H  155  1  0.66143600  0.35976900  0.59977400  1
  H  162  1  0.52039600  0.53999800  0.56425600  1
  H  165  1  0.06157900  0.98778800  0.61134100  1
  H  166  1  0.42633000  0.61541600  0.63616400  1
  H  167  1  0.15157900  0.91044100  0.53945600  1
  H  176  1  0.23180500  0.78517200  0.61106500  1
  H  178  1  0.16171700  0.86014500  0.59955600  1
  H  185  1  0.56492700  0.45093100  0.03738500  1
  H  186  1  0.06478100  0.95099800  0.03735900  1
  H  190  1  0.16201900  0.00948100  0.09562500  1
  H  194  1  0.08390700  0.10954200  0.47060700  1
  H  195  1  0.07234000  0.07263800  0.41444000  1
  H  199  1  0.21654100  0.99082200  0.96955800  1
  H  200  1  0.64970200  0.50068900  0.91345100  1
  H  204  1  0.08196900  0.12318100  0.20617200  1
  H  205  1  0.08933400  0.07640400  0.26177900  1
  H  206  1  0.07133200  0.08981100  0.99748800  1
  H  210  1  0.64449200  0.49503700  0.47209900  1
  H  214  1  0.66207100  0.50949800  0.09567300  1
  H  218  1  0.60611400  0.60434400  0.47006600  1
  H  219  1  0.59119800  0.56613500  0.41398700  1
  H  223  1  0.71655400  0.49083200  0.96957600  1
  H  224  1  0.14972400  0.00068600  0.91343200  1
  H  228  1  0.58292300  0.62416500  0.20632500  1
  H  229  1  0.57907800  0.57929200  0.26209000  1
  H  230  1  0.57142900  0.58979800  0.99752900  1
  H  234  1  0.11861500  0.99513300  0.47110100  1
  H  236  1  0.72545900  0.52124000  0.03953600  1
  H  238  1  0.12825300  0.14626200  0.45863900  1
  H  240  1  0.79251900  0.49447700  0.95739600  1
  H  242  1  0.12705400  0.15855600  0.21836700  1
  H  246  1  0.14966400  0.14481800  0.41054300  1
  H  247  1  0.79714600  0.49641800  0.90932000  1
  H  250  1  0.22553100  0.02122000  0.03949300  1
  H  252  1  0.64820700  0.64123000  0.45792800  1
  H  254  1  0.29251800  0.99447800  0.95738100  1
  H  256  1  0.62811900  0.65914800  0.21860500  1
  H  260  1  0.66596000  0.63997100  0.40986300  1
  H  261  1  0.29718100  0.99642200  0.90930600  1
  H  262  1  0.65224800  0.65437300  0.26644300  1
  H  264  1  0.07337100  0.94140800  0.30652100  1
  H  274  1  0.46813400  0.51819200  0.06445200  1
  H  275  1  0.30232800  0.01846000  0.05157000  1
  H  276  1  0.73455100  0.00477100  0.12461500  1
  H  277  1  0.31117500  0.50324900  0.13680400  1
  H  278  1  0.87478800  0.01291200  0.08060700  1
  H  287  1  0.97065400  0.03038000  0.77865400  1
  H  296  1  0.51248000  0.47722700  0.73112900  1
  H  297  1  0.84279200  0.14355400  0.71835100  1
  H  298  1  0.87730300  0.10399100  0.70624400  1
  H  299  1  0.64700700  0.36625300  0.79138400  1
  H  300  1  0.56515100  0.43248400  0.74736600  1
  H  301  1  0.92657100  0.07777700  0.76235200  1
  H  306  1  0.48577500  0.47231900  0.44539000  1
  H  314  1  0.38341700  0.34977800  0.38521000  1
  H  315  1  0.42358700  0.38737400  0.37306100  1
  H  316  1  0.44277200  0.42415300  0.42918800  1
  H  337  1  0.95793800  0.98738400  0.94489100  1
  H  338  1  0.22118000  0.48580200  0.88535000  1
  H  339  1  0.79637300  0.97989800  0.87310900  1
  H  340  1  0.36515100  0.50296000  0.92882200  1
  H  343  1  0.45343300  0.49371100  0.23081500  1
  H  351  1  0.35260200  0.36933900  0.29043300  1
  H  352  1  0.38470700  0.40907300  0.30265800  1
  H  353  1  0.43482700  0.43767700  0.24660200  1
  H  367  1  0.35244800  0.49274400  0.66421100  1
  H  369  1  0.39714700  0.50725700  0.63898800  1
  H  380  1  0.88997600  0.00202300  0.36955500  1
  H  382  1  0.56226000  0.44835300  0.30567500  1
  H  389  1  0.08084000  0.51399900  0.06488800  1
  H  394  1  0.30788600  0.01095400  0.09971400  1
  H  396  1  0.22740300  0.51328400  0.07656700  1
  H  403  1  0.71083700  0.28498500  0.73161300  1
  H  408  1  0.85165200  0.15000200  0.76647700  1
  H  410  1  0.63848200  0.35858100  0.74327300  1
  H  417  1  0.23014100  0.21500000  0.39881200  1
  H  422  1  0.37145300  0.35073700  0.43336500  1
  H  437  1  0.56813000  0.00359400  0.94459200  1
  H  443  1  0.71589500  0.00127500  0.93315800  1
  H  450  1  0.23212400  0.22623600  0.27754600  1
  H  455  1  0.35412800  0.36637400  0.24236600  1
  H  457  1  0.15722600  0.15286200  0.26609300  1
  H  463  1  0.52225900  0.44563700  0.17946600  1
  H  466  1  0.50931500  0.47679000  0.20465600  1
  H  475  1  0.42713600  0.44010300  0.80550500  1
  H  480  1  0.90480700  0.03176100  0.51405300  1
  H  482  1  0.96602300  0.02166700  0.53858800  1
  H  490  1  0.96815100  0.01843500  0.06439700  1
  H  491  1  0.80228200  0.51853600  0.05160800  1
  H  492  1  0.23460300  0.50481600  0.12468400  1
  H  493  1  0.81110500  0.00326000  0.13673600  1
  H  494  1  0.37482600  0.51289500  0.08067200  1
  H  503  1  0.47073300  0.53035600  0.77869700  1
  H  512  1  0.01250500  0.97722700  0.73108200  1
  H  513  1  0.34279200  0.64354900  0.71839200  1
  H  514  1  0.37731500  0.60397400  0.70629000  1
  H  515  1  0.14696700  0.86631600  0.79136300  1
  H  516  1  0.06514500  0.93249200  0.74733400  1
  H  517  1  0.42655100  0.57777000  0.76240200  1
  H  522  1  0.95993400  0.97992400  0.44540600  1
  H  530  1  0.88998000  0.85012500  0.38519600  1
  H  531  1  0.92991900  0.88829700  0.37317700  1
  H  532  1  0.92560300  0.92973200  0.42911300  1
  H  553  1  0.45792500  0.48742800  0.94491200  1
  H  554  1  0.72116600  0.98579500  0.88533900  1
  H  555  1  0.29640000  0.47989800  0.87312200  1
  H  556  1  0.86517200  0.00296400  0.92880600  1
  H  559  1  0.96454800  0.98923600  0.23077300  1
  H  567  1  0.86526700  0.86622700  0.29069700  1
  H  568  1  0.90003400  0.90542900  0.30285000  1
  H  569  1  0.94422900  0.93415100  0.24667600  1
  H  583  1  0.85249500  0.99278900  0.66410200  1
  H  585  1  0.89724500  0.00736500  0.63887800  1
  H  596  1  0.39440100  0.50130400  0.37059800  1
  H  604  1  0.58073000  0.01391700  0.06483700  1
  H  609  1  0.80792900  0.51096100  0.09975000  1
  H  611  1  0.72732700  0.01326900  0.07650400  1
  H  618  1  0.21087700  0.78494200  0.73161400  1
  H  623  1  0.35161600  0.65003900  0.76651600  1
  H  625  1  0.13849300  0.85856700  0.74325600  1
  H  632  1  0.74006400  0.71312100  0.39824100  1
  H  637  1  0.86334300  0.85357700  0.43314800  1
  H  652  1  0.06811700  0.50359300  0.94460100  1
  H  658  1  0.21586800  0.50127500  0.93316800  1
  H  665  1  0.73205000  0.72614500  0.27789900  1
  H  670  1  0.86148300  0.86384900  0.24264800  1
  H  677  1  0.02427900  0.94410800  0.17905800  1
  H  680  1  0.01307000  0.97414900  0.20436800  1
  H  689  1  0.92717400  0.94005600  0.80548500  1
  H  694  1  0.41424100  0.53048600  0.51278200  1
  H  696  1  0.46717500  0.52008500  0.53802000  1
  N  5  1  0.56520000  0.52105500  0.04324100  1
  N  11  1  0.00848200  0.02785300  0.46679900  1
  N  16  1  0.65283100  0.40110200  0.54975800  1
  N  21  1  0.91458600  0.12111500  0.62601600  1
  N  26  1  0.88454200  0.14293300  0.59756700  1
  N  27  1  0.65987800  0.37262800  0.57805400  1
  N  32  1  0.05503600  0.99044000  0.96607400  1
  N  37  1  0.00455600  0.04444800  0.20937600  1
  N  38  1  0.06204300  0.04139700  0.01442000  1
  N  44  1  0.04758800  0.03933100  0.66143800  1
  N  50  1  0.74710200  0.28292700  0.57597300  1
  N  52  1  0.81254200  0.22410300  0.56005500  1
  N  57  1  0.92910900  0.12071000  0.16336800  1
  N  60  1  0.03427300  0.00579300  0.82889300  1
  N  65  1  0.10989600  0.00163100  0.51379100  1
  N  72  1  0.06526900  0.02114300  0.04319400  1
  N  79  1  0.53167900  0.52184400  0.46656300  1
  N  84  1  0.15317900  0.90137300  0.54950900  1
  N  89  1  0.41440000  0.62142400  0.62612200  1
  N  94  1  0.38417600  0.64304500  0.59766000  1
  N  95  1  0.16048500  0.87279800  0.57781900  1
  N  100  1  0.55503100  0.49047700  0.96609600  1
  N  105  1  0.49976300  0.54727300  0.20943200  1
  N  106  1  0.56211800  0.54136500  0.01445800  1
  N  112  1  0.54752500  0.53932000  0.66152400  1
  N  118  1  0.24731000  0.78289400  0.57587500  1
  N  120  1  0.31277900  0.72381600  0.56004800  1
  N  125  1  0.42856400  0.62163100  0.16299300  1
  N  128  1  0.53427300  0.50579700  0.82891500  1
  N  133  1  0.61916300  0.50079300  0.51460100  1
  N  145  1  0.00847600  0.03477700  0.63255900  1
  N  146  1  0.57848400  0.49039900  0.54288700  1
  N  150  1  0.79115700  0.23040200  0.59921500  1
  N  156  1  0.96111500  0.06039400  0.18144700  1
  N  168  1  0.50810600  0.53509000  0.63269000  1
  N  169  1  0.07721400  0.99035900  0.54260500  1
  N  173  1  0.29086100  0.73062000  0.59919400  1
  N  179  1  0.45920100  0.56204900  0.18133000  1
  N  193  1  0.09697500  0.11588600  0.46061800  1
  N  198  1  0.73153500  0.49388800  0.95953700  1
  N  203  1  0.09576400  0.12835200  0.21619400  1
  N  207  1  0.14727100  0.06570000  0.67950500  1
  N  208  1  0.72297000  0.48448000  0.49626100  1
  N  217  1  0.61843500  0.61046700  0.46004100  1
  N  222  1  0.23152900  0.99387800  0.95952000  1
  N  227  1  0.59522900  0.62955100  0.21639100  1
  N  231  1  0.64730700  0.56569100  0.67957300  1
  N  232  1  0.20685800  0.98619500  0.49433600  1
  N  235  1  0.24121900  0.01870000  0.04952000  1
  N  237  1  0.29029300  0.01324700  0.07794800  1
  N  239  1  0.13422800  0.13690800  0.43230000  1
  N  241  1  0.77911000  0.49806300  0.93107800  1
  N  243  1  0.13781800  0.14587900  0.24438900  1
  N  249  1  0.74116700  0.51872500  0.04956200  1
  N  251  1  0.79031800  0.51327600  0.07798600  1
  N  253  1  0.65162100  0.63157000  0.43163400  1
  N  255  1  0.27912700  0.99805600  0.93106300  1
  N  257  1  0.63364200  0.64744600  0.24471700  1
  N  273  1  0.79555900  0.00608700  0.12671500  1
  N  279  1  0.74681400  0.01109800  0.09829900  1
  N  280  1  0.47217400  0.50813100  0.13321500  1
  N  288  1  0.61470700  0.39616800  0.79348000  1
  N  295  1  0.87371000  0.11314800  0.71626900  1
  N  302  1  0.96020900  0.02439700  0.70987500  1
  N  303  1  0.85727600  0.14021400  0.74470400  1
  N  304  1  0.63182100  0.36938700  0.76506600  1
  N  305  1  0.52325300  0.48343500  0.79991000  1
  N  313  1  0.41289900  0.38064000  0.38310800  1
  N  317  1  0.50162400  0.46849200  0.37664000  1
  N  318  1  0.38196300  0.35857100  0.41158500  1
  N  335  1  0.28202800  0.48378700  0.88317000  1
  N  341  1  0.23574500  0.49522900  0.91145000  1
  N  342  1  0.95328100  0.97582000  0.87633600  1
  N  350  1  0.38223800  0.40008000  0.29261500  1
  N  354  1  0.46521300  0.49002500  0.29928800  1
  N  355  1  0.36569200  0.37430200  0.26413600  1
  N  357  1  0.53953600  0.46926700  0.99502000  1
  N  359  1  0.52589600  0.40673200  0.01316000  1
  N  364  1  0.42913200  0.51382800  0.68106200  1
  N  371  1  0.53476900  0.45992500  0.34778600  1
  N  374  1  0.94627500  0.00358600  0.32768500  1
  N  376  1  0.85102300  0.04166900  0.34461100  1
  N  384  1  0.96890400  0.51303500  0.07661200  1
  N  387  1  0.56797700  0.01138400  0.10005800  1
  N  390  1  0.44586300  0.01056900  0.11574500  1
  N  398  1  0.76817600  0.22950000  0.74334500  1
  N  401  1  0.72078800  0.27979600  0.76683600  1
  N  404  1  0.78308700  0.21913900  0.78252100  1
  N  412  1  0.28933500  0.27015000  0.41041100  1
  N  415  1  0.23439100  0.22309600  0.43401800  1
  N  418  1  0.30005700  0.28308000  0.44954900  1
  N  432  1  0.45700900  0.00109300  0.93266600  1
  N  435  1  0.05758200  0.49657800  0.90941100  1
  N  438  1  0.93647200  0.49310300  0.89352900  1
  N  445  1  0.28251600  0.28354100  0.26565400  1
  N  448  1  0.22608800  0.23538200  0.24236300  1
  N  451  1  0.27989900  0.29826100  0.22652300  1
  N  459  1  0.49936600  0.49149200  0.16226200  1
  N  469  1  0.44898300  0.45051200  0.84805900  1
  N  471  1  0.37563400  0.40471000  0.82978400  1
  N  477  1  0.49379800  0.51775800  0.49556200  1
  N  489  1  0.29562300  0.50602000  0.12678000  1
  N  495  1  0.24685700  0.51104300  0.09836100  1
  N  496  1  0.97225700  0.00833900  0.13314200  1
  N  504  1  0.11464500  0.89622400  0.79345600  1
  N  511  1  0.37370400  0.61313800  0.71631500  1
  N  518  1  0.46020300  0.52439200  0.70993600  1
  N  519  1  0.35726200  0.64021200  0.74474600  1
  N  520  1  0.13178300  0.86941300  0.76504600  1
  N  521  1  0.02313000  0.98348700  0.79987700  1
  N  529  1  0.91616600  0.88200300  0.38314300  1
  N  533  1  0.99701800  0.97243000  0.37689300  1
  N  534  1  0.87704000  0.86115600  0.41140900  1
  N  551  1  0.78201400  0.98378700  0.88315700  1
  N  557  1  0.73575700  0.99523300  0.91143800  1
  N  558  1  0.45330100  0.47579700  0.87635700  1
  N  566  1  0.89651400  0.89648700  0.29281600  1
  N  570  1  0.98263300  0.98597700  0.29924300  1
  N  571  1  0.87539300  0.87132000  0.26438800  1
  N  573  1  0.03948200  0.96927100  0.99499000  1
  N  575  1  0.02587400  0.90675500  0.01313700  1
  N  580  1  0.92909300  0.01386900  0.68096500  1
  N  587  1  0.03801600  0.95944300  0.34838500  1
  N  590  1  0.43723500  0.50633100  0.32825500  1
  N  592  1  0.34704700  0.54243600  0.34630200  1
  N  599  1  0.46882600  0.01296600  0.07656900  1
  N  602  1  0.06799600  0.51140600  0.10010800  1
  N  605  1  0.94584900  0.51057200  0.11578500  1
  N  613  1  0.26819000  0.72948700  0.74336200  1
  N  616  1  0.22075100  0.77983800  0.76684100  1
  N  619  1  0.28302300  0.71921100  0.78253900  1
  N  627  1  0.79236600  0.77021400  0.40998700  1
  N  630  1  0.74136400  0.72098600  0.43345700  1
  N  633  1  0.79933900  0.78303100  0.44915700  1
  N  647  1  0.95699000  0.50109300  0.93267600  1
  N  650  1  0.55760700  0.99658200  0.90940300  1
  N  653  1  0.43650700  0.99310700  0.89351800  1
  N  660  1  0.78576300  0.78242700  0.26599700  1
  N  663  1  0.72566000  0.73562800  0.24273000  1
  N  666  1  0.78258000  0.79754800  0.22688000  1
  N  673  1  0.00004100  0.99065100  0.16206400  1
  N  683  1  0.94898300  0.95051600  0.84803800  1
  N  685  1  0.87563200  0.90470600  0.82976800  1
  N  691  1  0.97802500  0.01961900  0.49605300  1
  O  53  1  0.85868400  0.25601200  0.55402400  1
  O  58  1  0.97984700  0.15239300  0.16838800  1
  O  121  1  0.35906400  0.75563100  0.55400500  1
  O  126  1  0.47901800  0.65348800  0.16800100  1
  O  149  1  0.82755000  0.25036200  0.78916600  1
  O  172  1  0.32747800  0.75044100  0.78918200  1
  O  209  1  0.22933500  0.94450100  0.49896200  1
  O  233  1  0.74337400  0.44295900  0.50127400  1
  O  244  1  0.20657200  0.03828400  0.67503400  1
  O  245  1  0.15728400  0.10796100  0.67414700  1
  O  248  1  0.77537600  0.51597300  0.50088900  1
  O  258  1  0.70659000  0.53828000  0.67509300  1
  O  259  1  0.65727800  0.60795200  0.67421200  1
  O  263  1  0.26083600  0.01760400  0.49848100  1
  O  360  1  0.45478200  0.39159300  0.00860500  1
  O  361  1  0.58357500  0.37977700  0.00793000  1
  O  377  1  0.86327800  0.08455800  0.33983000  1
  O  378  1  0.78466600  0.02455200  0.33881400  1
  O  391  1  0.47045500  0.97271600  0.12238500  1
  O  392  1  0.46994200  0.04801900  0.12262700  1
  O  406  1  0.71487400  0.21243200  0.78940100  1
  O  419  1  0.23194100  0.29156500  0.45628800  1
  O  420  1  0.34224100  0.25134100  0.45640200  1
  O  428  1  0.74588700  0.21847900  0.55268800  1
  O  439  1  0.96127400  0.52916400  0.88612300  1
  O  440  1  0.96121100  0.45401600  0.88752600  1
  O  452  1  0.32212700  0.26820200  0.21907500  1
  O  453  1  0.20869000  0.30501400  0.22054700  1
  O  464  1  0.85545800  0.12965000  0.16816500  1
  O  472  1  0.30246400  0.41387000  0.83474900  1
  O  473  1  0.39924000  0.36334900  0.83450800  1
  O  576  1  0.95476300  0.89160100  0.00858500  1
  O  577  1  0.08356200  0.87979900  0.00791000  1
  O  593  1  0.35806900  0.58587900  0.34186400  1
  O  594  1  0.27896900  0.52607800  0.34089000  1
  O  606  1  0.97042200  0.47270800  0.12242200  1
  O  607  1  0.96991000  0.54801400  0.12267300  1
  O  621  1  0.21479700  0.71251000  0.78941700  1
  O  634  1  0.73010500  0.78900900  0.45580100  1
  O  635  1  0.84438900  0.75270500  0.45603900  1
  O  643  1  0.24621400  0.71815500  0.55266300  1
  O  654  1  0.46131400  0.02916500  0.88611200  1
  O  655  1  0.46124800  0.95401700  0.88751700  1
  O  667  1  0.82249100  0.76671400  0.21934200  1
  O  668  1  0.71156400  0.80591900  0.22101400  1
  O  678  1  0.35461800  0.63078100  0.16762900  1
  O  686  1  0.80246900  0.91387100  0.83473400  1
  O  687  1  0.89924100  0.86335300  0.83449600  1
