# generated using pymatgen
data_Co2H11C15(NO4)2
_symmetry_space_group_name_H-M   'P 1'
_cell_length_a   9.07774000
_cell_length_b   9.11164076
_cell_length_c   15.06717000
_cell_angle_alpha   85.03339942
_cell_angle_beta   81.82162000
_cell_angle_gamma   60.49749500
_symmetry_Int_Tables_number   1
_chemical_formula_structural   Co2H11C15(NO4)2
_chemical_formula_sum   'Co4 H22 C30 N4 O16'
_cell_volume   1073.42768126
_cell_formula_units_Z   2
loop_
 _symmetry_equiv_pos_site_id
 _symmetry_equiv_pos_as_xyz
  1  'x, y, z'
loop_
 _atom_site_type_symbol
 _atom_site_label
 _atom_site_symmetry_multiplicity
 _atom_site_fract_x
 _atom_site_fract_y
 _atom_site_fract_z
 _atom_site_occupancy
  Co  Co1  1  0.78477000  0.22744000  0.16511000  1.0
  Co  Co2  1  0.21542000  0.77209000  0.83383000  1.0
  Co  Co3  1  0.50069000  0.49912000  0.99966000  1.0
  Co  Co4  1  0.50659000  0.99797000  0.00271000  1.0
  H  H1  1  0.92315000  0.70533000  0.22500000  1.0
  H  H2  1  0.15904000  0.66922000  0.30195000  1.0
  H  H3  1  0.26476000  0.69970000  0.19977000  1.0
  H  H4  1  0.23465000  0.39048000  0.26549000  1.0
  H  H5  1  0.08495000  0.40502000  0.15681000  1.0
  H  H6  1  0.94575000  0.64935000  0.07346000  1.0
  H  H7  1  0.62070000  0.63837000  0.17852000  1.0
  H  H8  1  0.68662000  0.76864000  0.31965000  1.0
  H  H9  1  0.96135000  0.23164000  0.32911000  1.0
  H  H10  1  0.14050000  0.25334000  0.40066000  1.0
  H  H11  1  0.72843000  0.75379000  0.46570000  1.0
  H  H12  1  0.07715000  0.29335000  0.77378000  1.0
  H  H13  1  0.83909000  0.33259000  0.69775000  1.0
  H  H14  1  0.73427000  0.30154000  0.80022000  1.0
  H  H15  1  0.76674000  0.60958000  0.73548000  1.0
  H  H16  1  0.91404000  0.59506000  0.84509000  1.0
  H  H17  1  0.05738000  0.34786000  0.92527000  1.0
  H  H18  1  0.37976000  0.36127000  0.82129000  1.0
  H  H19  1  0.31308000  0.23131000  0.68032000  1.0
  H  H20  1  0.03907000  0.76856000  0.67094000  1.0
  H  H21  1  0.85927000  0.74704000  0.59940000  1.0
  H  H22  1  0.27149000  0.24636000  0.53431000  1.0
  C  C1  1  0.45734000  0.37304000  0.19201000  1.0
  C  C2  1  0.29758000  0.32184000  0.05756000  1.0
  C  C3  1  0.14869000  0.69488000  0.02044000  1.0
  C  C4  1  0.93000000  0.91988000  0.17262000  1.0
  C  C5  1  0.01857000  0.73095000  0.18378000  1.0
  C  C6  1  0.18251000  0.64789000  0.22944000  1.0
  C  C7  1  0.26538000  0.45766000  0.20851000  1.0
  C  C8  1  0.17426000  0.44949000  0.12776000  1.0
  C  C9  1  0.06156000  0.63413000  0.09614000  1.0
  C  C10  1  0.69888000  0.57516000  0.23241000  1.0
  C  C11  1  0.73167000  0.63990000  0.30129000  1.0
  C  C12  1  0.87944000  0.35951000  0.30691000  1.0
  C  C13  1  0.92471000  0.50330000  0.42424000  1.0
  C  C14  1  0.07740000  0.36088000  0.44462000  1.0
  C  C15  1  0.84784000  0.64333000  0.47986000  1.0
  C  C16  1  0.54303000  0.62663000  0.80749000  1.0
  C  C17  1  0.70466000  0.67412000  0.94454000  1.0
  C  C18  1  0.85447000  0.30162000  0.97915000  1.0
  C  C19  1  0.06827000  0.07945000  0.82591000  1.0
  C  C20  1  0.98150000  0.26824000  0.81512000  1.0
  C  C21  1  0.81673000  0.35289000  0.77028000  1.0
  C  C22  1  0.73500000  0.54233000  0.79198000  1.0
  C  C23  1  0.82614000  0.54835000  0.87313000  1.0
  C  C24  1  0.94096000  0.36282000  0.90327000  1.0
  C  C25  1  0.30092000  0.42452000  0.76752000  1.0
  C  C26  1  0.26842000  0.36020000  0.69858000  1.0
  C  C27  1  0.12035000  0.64046000  0.69312000  1.0
  C  C28  1  0.07508000  0.49689000  0.57580000  1.0
  C  C29  1  0.92242000  0.63941000  0.55544000  1.0
  C  C30  1  0.15206000  0.35687000  0.52017000  1.0
  N  N1  1  0.79059000  0.40058000  0.23764000  1.0
  N  N2  1  0.84847000  0.50180000  0.34853000  1.0
  N  N3  1  0.21025000  0.59904000  0.76196000  1.0
  N  N4  1  0.15172000  0.49827000  0.65132000  1.0
  O  O1  1  0.53219000  0.43035000  0.13042000  1.0
  O  O2  1  0.54983000  0.24683000  0.23876000  1.0
  O  O3  1  0.32643000  0.16787000  0.07303000  1.0
  O  O4  1  0.37355000  0.35784000  0.98961000  1.0
  O  O5  1  0.09023000  0.73161000  0.94537000  1.0
  O  O6  1  0.28080000  0.70138000  0.03640000  1.0
  O  O7  1  0.82448000  0.99123000  0.11522000  1.0
  O  O8  1  0.95489000  0.00793000  0.22536000  1.0
  O  O9  1  0.46824000  0.56844000  0.86857000  1.0
  O  O10  1  0.45051000  0.75259000  0.76036000  1.0
  O  O11  1  0.68339000  0.82519000  0.93167000  1.0
  O  O12  1  0.62727000  0.63684000  0.01138000  1.0
  O  O13  1  0.91222000  0.26600000  0.05436000  1.0
  O  O14  1  0.72137000  0.29641000  0.96365000  1.0
  O  O15  1  0.17483000  0.00756000  0.88286000  1.0
  O  O16  1  0.04094000  0.99267000  0.77368000  1.0
