# generated using pymatgen
data_CoH24C30(NO)6
_symmetry_space_group_name_H-M   'P 1'
_cell_length_a   20.27327174
_cell_length_b   20.32850000
_cell_length_c   20.32882000
_cell_angle_alpha   70.41420000
_cell_angle_beta   70.66325086
_cell_angle_gamma   109.41471178
_symmetry_Int_Tables_number   1
_chemical_formula_structural   CoH24C30(NO)6
_chemical_formula_sum   'Co4 H96 C120 N24 O24'
_cell_volume   6455.45208084
_cell_formula_units_Z   4
loop_
 _symmetry_equiv_pos_site_id
 _symmetry_equiv_pos_as_xyz
  1  'x, y, z'
loop_
 _atom_site_type_symbol
 _atom_site_label
 _atom_site_symmetry_multiplicity
 _atom_site_fract_x
 _atom_site_fract_y
 _atom_site_fract_z
 _atom_site_occupancy
  Co  Co0  1  0.49995000  0.50009000  0.49969000  1
  Co  Co1  1  0.99960000  0.49990000  0.00009000  1
  Co  Co2  1  0.99955000  0.00001000  0.50009000  1
  Co  Co3  1  0.50012000  0.00007000  0.99979000  1
  H  H4  1  0.06003000  0.88333000  0.26370000  1
  H  H5  1  0.63097000  0.73944000  0.33104000  1
  H  H6  1  0.58638000  0.30274000  0.80250000  1
  H  H7  1  0.73700000  0.06109000  0.11612000  1
  H  H8  1  0.71688000  0.41406000  0.38822000  1
  H  H9  1  0.69693000  0.28313000  0.10505000  1
  H  H10  1  0.66902000  0.92912000  0.96228000  1
  H  H11  1  0.11619000  0.26365000  0.06075000  1
  H  H12  1  0.51262000  0.09273000  0.09669000  1
  H  H13  1  0.38832000  0.28329000  0.41407000  1
  H  H14  1  0.28365000  0.89483000  0.30262000  1
  H  H15  1  0.82364000  0.14761000  0.11588000  1
  H  H16  1  0.19777000  0.89470000  0.38841000  1
  H  H17  1  0.89131000  0.92936000  0.73948000  1
  H  H18  1  0.90663000  0.09641000  0.51334000  1
  H  H19  1  0.26350000  0.14765000  0.67572000  1
  H  H20  1  0.11640000  0.17707000  0.14733000  1
  H  H21  1  0.61135000  0.19765000  0.10509000  1
  H  H22  1  0.06074000  0.32421000  0.82265000  1
  H  H23  1  0.17625000  0.85240000  0.88400000  1
  H  H24  1  0.74030000  0.66900000  0.36957000  1
  H  H25  1  0.41352000  0.69698000  0.19725000  1
  H  H26  1  0.17710000  0.06085000  0.67577000  1
  H  H27  1  0.73646000  0.85247000  0.32431000  1
  H  H28  1  0.30325000  0.71703000  0.89453000  1
  H  H29  1  0.90352000  0.51286000  0.90702000  1
  H  H30  1  0.58017000  0.48698000  0.60956000  1
  H  H31  1  0.09622000  0.18913000  0.39069000  1
  H  H32  1  0.14652000  0.88328000  0.17737000  1
  H  H33  1  0.90303000  0.81031000  0.60961000  1
  H  H34  1  0.19014000  0.60997000  0.90280000  1
  H  H35  1  0.81012000  0.90743000  0.58001000  1
  H  H36  1  0.93952000  0.67584000  0.17701000  1
  H  H37  1  0.71633000  0.10498000  0.69736000  1
  H  H38  1  0.25914000  0.89014000  0.07144000  1
  H  H39  1  0.60990000  0.42022000  0.48683000  1
  H  H40  1  0.30281000  0.19754000  0.41409000  1
  H  H41  1  0.48718000  0.39036000  0.42013000  1
  H  H42  1  0.96099000  0.89020000  0.36941000  1
  H  H43  1  0.89435000  0.61128000  0.80253000  1
  H  H44  1  0.93982000  0.11648000  0.73631000  1
  H  H45  1  0.10531000  0.30283000  0.28319000  1
  H  H46  1  0.03893000  0.10974000  0.63053000  1
  H  H47  1  0.10893000  0.36943000  0.96180000  1
  H  H48  1  0.66902000  0.63060000  0.26085000  1
  H  H49  1  0.81009000  0.39021000  0.09691000  1
  H  H50  1  0.28332000  0.58598000  0.61175000  1
  H  H51  1  0.88364000  0.73620000  0.93935000  1
  H  H52  1  0.18938000  0.09270000  0.42030000  1
  H  H53  1  0.74083000  0.10985000  0.92857000  1
  H  H54  1  0.07086000  0.96195000  0.66902000  1
  H  H55  1  0.10569000  0.38872000  0.19738000  1
  H  H56  1  0.09657000  0.48721000  0.09277000  1
  H  H57  1  0.19760000  0.58595000  0.69745000  1
  H  H58  1  0.61145000  0.71698000  0.58604000  1
  H  H59  1  0.38890000  0.80250000  0.89464000  1
  H  H60  1  0.67577000  0.82271000  0.06096000  1
  H  H61  1  0.80239000  0.41410000  0.30262000  1
  H  H62  1  0.96146000  0.33069000  0.92859000  1
  H  H63  1  0.48787000  0.90753000  0.90251000  1
  H  H64  1  0.07011000  0.73940000  0.89146000  1
  H  H65  1  0.89142000  0.63074000  0.03800000  1
  H  H66  1  0.10920000  0.07088000  0.26023000  1
  H  H67  1  0.36872000  0.03785000  0.89139000  1
  H  H68  1  0.39064000  0.90342000  0.18929000  1
  H  H69  1  0.32414000  0.26377000  0.85242000  1
  H  H70  1  0.92977000  0.26040000  0.10879000  1
  H  H71  1  0.09274000  0.57954000  0.81080000  1
  H  H72  1  0.09305000  0.90338000  0.48678000  1
  H  H73  1  0.03862000  0.66903000  0.07129000  1
  H  H74  1  0.85284000  0.67587000  0.26354000  1
  H  H75  1  0.85340000  0.11655000  0.82266000  1
  H  H76  1  0.41365000  0.61148000  0.28296000  1
  H  H77  1  0.58632000  0.38853000  0.71715000  1
  H  H78  1  0.88367000  0.82299000  0.85259000  1
  H  H79  1  0.25964000  0.33084000  0.63065000  1
  H  H80  1  0.41969000  0.81055000  0.09270000  1
  H  H81  1  0.82322000  0.93894000  0.32434000  1
  H  H82  1  0.69711000  0.80238000  0.58602000  1
  H  H83  1  0.80194000  0.10498000  0.61190000  1
  H  H84  1  0.63134000  0.96207000  0.10887000  1
  H  H85  1  0.51273000  0.60984000  0.57994000  1
  H  H86  1  0.36926000  0.26049000  0.66893000  1
  H  H87  1  0.90705000  0.42020000  0.18952000  1
  H  H88  1  0.33088000  0.36945000  0.73946000  1
  H  H89  1  0.33092000  0.07103000  0.03805000  1
  H  H90  1  0.89407000  0.69678000  0.71703000  1
  H  H91  1  0.26291000  0.93894000  0.88429000  1
  H  H92  1  0.39036000  0.57970000  0.51314000  1
  H  H93  1  0.32425000  0.17738000  0.93907000  1
  H  H94  1  0.60931000  0.09645000  0.81063000  1
  H  H95  1  0.58012000  0.18895000  0.90709000  1
  H  H96  1  0.41967000  0.51301000  0.39047000  1
  H  H97  1  0.67583000  0.73601000  0.14774000  1
  H  H98  1  0.92938000  0.03791000  0.33108000  1
  H  H99  1  0.14720000  0.32427000  0.73652000  1
  C  C100  1  0.08996000  0.89693000  0.43673000  1
  C  C101  1  0.74632000  0.27385000  0.10663000  1
  C  C102  1  0.19297000  0.08979000  0.47333000  1
  C  C103  1  0.45529000  0.25245000  0.85860000  1
  C  C104  1  0.91010000  0.47329000  0.19298000  1
  C  C105  1  0.74084000  0.10936000  0.87531000  1
  C  C106  1  0.11247000  0.31148000  0.07161000  1
  C  C107  1  0.72598000  0.10661000  0.74645000  1
  C  C108  1  0.52705000  0.43706000  0.66617000  1
  C  C109  1  0.66612000  0.10312000  0.80697000  1
  C  C110  1  0.52771000  0.25360000  0.85318000  1
  C  C111  1  0.61699000  0.81578000  0.07184000  1
  C  C112  1  0.89289000  0.74619000  0.72620000  1
  C  C113  1  0.74772000  0.85850000  0.45515000  1
  C  C114  1  0.10290000  0.19278000  0.33403000  1
  C  C115  1  0.31131000  0.19919000  0.61703000  1
  C  C116  1  0.14126000  0.88905000  0.31372000  1
  C  C117  1  0.74787000  0.20298000  0.11081000  1
  C  C118  1  0.87621000  0.26007000  0.10845000  1
  C  C119  1  0.31364000  0.85848000  0.88924000  1
  C  C120  1  0.14140000  0.45506000  0.74772000  1
  C  C121  1  0.36820000  0.98417000  0.89168000  1
  C  C122  1  0.54468000  0.68605000  0.20290000  1
  C  C123  1  0.92882000  0.11269000  0.68852000  1
  C  C124  1  0.25913000  0.89076000  0.12464000  1
  C  C125  1  0.54463000  0.74742000  0.14152000  1
  C  C126  1  0.72628000  0.47265000  0.38037000  1
  C  C127  1  0.25942000  0.38398000  0.63126000  1
  C  C128  1  0.38056000  0.27393000  0.47262000  1
  C  C129  1  0.80157000  0.11276000  0.81571000  1
  C  C130  1  0.89158000  0.63138000  0.98432000  1
  C  C131  1  0.01525000  0.38386000  0.87537000  1
  C  C132  1  0.45524000  0.31394000  0.79715000  1
  C  C133  1  0.81617000  0.92819000  0.38299000  1
  C  C134  1  0.52703000  0.19279000  0.91010000  1
  C  C135  1  0.88898000  0.74754000  0.79717000  1
  C  C136  1  0.63157000  0.73982000  0.38413000  1
  C  C137  1  0.47228000  0.61924000  0.27385000  1
  C  C138  1  0.12431000  0.01565000  0.61598000  1
  C  C139  1  0.80132000  0.61716000  0.31135000  1
  C  C140  1  0.85312000  0.47267000  0.25344000  1
  C  C141  1  0.98498000  0.10924000  0.63121000  1
  C  C142  1  0.38292000  0.31158000  0.80091000  1
  C  C143  1  0.66643000  0.47329000  0.43681000  1
  C  C144  1  0.98476000  0.61596000  0.12455000  1
  C  C145  1  0.33369000  0.52670000  0.56316000  1
  C  C146  1  0.31386000  0.20298000  0.54487000  1
  C  C147  1  0.80667000  0.91021000  0.52697000  1
  C  C148  1  0.25363000  0.14685000  0.47266000  1
  C  C149  1  0.14697000  0.89333000  0.38044000  1
  C  C150  1  0.92859000  0.61714000  0.18410000  1
  C  C151  1  0.85868000  0.54497000  0.25223000  1
  C  C152  1  0.43741000  0.91028000  0.89643000  1
  C  C153  1  0.79726000  0.11093000  0.74768000  1
  C  C154  1  0.38299000  0.18429000  0.92833000  1
  C  C155  1  0.81642000  0.19917000  0.11212000  1
  C  C156  1  0.74058000  0.61596000  0.36880000  1
  C  C157  1  0.89694000  0.56290000  0.91002000  1
  C  C158  1  0.11257000  0.18413000  0.19892000  1
  C  C159  1  0.01497000  0.89074000  0.36868000  1
  C  C160  1  0.27385000  0.52739000  0.61953000  1
  C  C161  1  0.38083000  0.85316000  0.89316000  1
  C  C162  1  0.31092000  0.92810000  0.88803000  1
  C  C163  1  0.14689000  0.52732000  0.74656000  1
  C  C164  1  0.61929000  0.14690000  0.10672000  1
  C  C165  1  0.68629000  0.79708000  0.45515000  1
  C  C166  1  0.43705000  0.33388000  0.47319000  1
  C  C167  1  0.25216000  0.79710000  0.88923000  1
  C  C168  1  0.68627000  0.14145000  0.11092000  1
  C  C169  1  0.25239000  0.14140000  0.54490000  1
  C  C170  1  0.56290000  0.08985000  0.10314000  1
  C  C171  1  0.36854000  0.26011000  0.61590000  1
  C  C172  1  0.63181000  0.01574000  0.10859000  1
  C  C173  1  0.11107000  0.25241000  0.20282000  1
  C  C174  1  0.47221000  0.74627000  0.14672000  1
  C  C175  1  0.38410000  0.12442000  0.98439000  1
  C  C176  1  0.20282000  0.45509000  0.68628000  1
  C  C177  1  0.85290000  0.10658000  0.61965000  1
  C  C178  1  0.27403000  0.89336000  0.25347000  1
  C  C179  1  0.61703000  0.68837000  0.19926000  1
  C  C180  1  0.89671000  0.80687000  0.66609000  1
  C  C181  1  0.87591000  0.98426000  0.38417000  1
  C  C182  1  0.88757000  0.68848000  0.92841000  1
  C  C183  1  0.10326000  0.43720000  0.08976000  1
  C  C184  1  0.20272000  0.88904000  0.25235000  1
  C  C185  1  0.07152000  0.38283000  0.81574000  1
  C  C186  1  0.90986000  0.10302000  0.56330000  1
  C  C187  1  0.12370000  0.73980000  0.89175000  1
  C  C188  1  0.56295000  0.66624000  0.52689000  1
  C  C189  1  0.80681000  0.33375000  0.10323000  1
  C  C190  1  0.89156000  0.87590000  0.73987000  1
  C  C191  1  0.61588000  0.87573000  0.01591000  1
  C  C192  1  0.10678000  0.25358000  0.27388000  1
  C  C193  1  0.10705000  0.38085000  0.14671000  1
  C  C194  1  0.25376000  0.72625000  0.89321000  1
  C  C195  1  0.18416000  0.07175000  0.61708000  1
  C  C196  1  0.61587000  0.63134000  0.26036000  1
  C  C197  1  0.47287000  0.56301000  0.33402000  1
  C  C198  1  0.10873000  0.36874000  0.01550000  1
  C  C199  1  0.85870000  0.11093000  0.68630000  1
  C  C200  1  0.74630000  0.85314000  0.52748000  1
  C  C201  1  0.52766000  0.38074000  0.72630000  1
  C  C202  1  0.10880000  0.12427000  0.25990000  1
  C  C203  1  0.88896000  0.68614000  0.85855000  1
  C  C204  1  0.47286000  0.80703000  0.08981000  1
  C  C205  1  0.07116000  0.88727000  0.31140000  1
  C  C206  1  0.79732000  0.54498000  0.31362000  1
  C  C207  1  0.18352000  0.80082000  0.88792000  1
  C  C208  1  0.19837000  0.88723000  0.18433000  1
  C  C209  1  0.61938000  0.72622000  0.52746000  1
  C  C210  1  0.33393000  0.89698000  0.19284000  1
  C  C211  1  0.89304000  0.61919000  0.85317000  1
  C  C212  1  0.19324000  0.66629000  0.89671000  1
  C  C213  1  0.68872000  0.80083000  0.38297000  1
  C  C214  1  0.38406000  0.36879000  0.73992000  1
  C  C215  1  0.68896000  0.07182000  0.11237000  1
  C  C216  1  0.19876000  0.38291000  0.68859000  1
  C  C217  1  0.08981000  0.52657000  0.80712000  1
  C  C218  1  0.88760000  0.81601000  0.80092000  1
  C  C219  1  0.11111000  0.31394000  0.14132000  1
  N  N220  1  0.97612000  0.54465000  0.12847000  1
  N  N221  1  0.54443000  0.56880000  0.32776000  1
  N  N222  1  0.45551000  0.12813000  0.97573000  1
  N  N223  1  0.56879000  0.67259000  0.45547000  1
  N  N224  1  0.32684000  0.89568000  0.12833000  1
  N  N225  1  0.12801000  0.67263000  0.89610000  1
  N  N226  1  0.12826000  0.02409000  0.54473000  1
  N  N227  1  0.02387000  0.89565000  0.43121000  1
  N  N228  1  0.56885000  0.02422000  0.10403000  1
  N  N229  1  0.89643000  0.56876000  0.97558000  1
  N  N230  1  0.67318000  0.10452000  0.87148000  1
  N  N231  1  0.97607000  0.10444000  0.56865000  1
  N  N232  1  0.87183000  0.32719000  0.10421000  1
  N  N233  1  0.54446000  0.87203000  0.02439000  1
  N  N234  1  0.43148000  0.97592000  0.89570000  1
  N  N235  1  0.10409000  0.43146000  0.02409000  1
  N  N236  1  0.32678000  0.45528000  0.56858000  1
  N  N237  1  0.87160000  0.97594000  0.45557000  1
  N  N238  1  0.67328000  0.54464000  0.43151000  1
  N  N239  1  0.45550000  0.43139000  0.67259000  1
  N  N240  1  0.10391000  0.12805000  0.32736000  1
  N  N241  1  0.02388000  0.45512000  0.87160000  1
  N  N242  1  0.43146000  0.32724000  0.54459000  1
  N  N243  1  0.89638000  0.87204000  0.67238000  1
  O  O244  1  0.90205000  0.51586000  0.03063000  1
  O  O245  1  0.06828000  0.61461000  0.90054000  1
  O  O246  1  0.06846000  0.96883000  0.54658000  1
  O  O247  1  0.61528000  0.54654000  0.48502000  1
  O  O248  1  0.03142000  0.09989000  0.51521000  1
  O  O249  1  0.93121000  0.03124000  0.45408000  1
  O  O250  1  0.48512000  0.03121000  0.90012000  1
  O  O251  1  0.93145000  0.38518000  0.09983000  1
  O  O252  1  0.96862000  0.90042000  0.48445000  1
  O  O253  1  0.09872000  0.06764000  0.38560000  1
  O  O254  1  0.51554000  0.96903000  0.09935000  1
  O  O255  1  0.38478000  0.90049000  0.06822000  1
  O  O256  1  0.38475000  0.45326000  0.51524000  1
  O  O257  1  0.54673000  0.93276000  0.96943000  1
  O  O258  1  0.90218000  0.93273000  0.61385000  1
  O  O259  1  0.45340000  0.48424000  0.61418000  1
  O  O260  1  0.48501000  0.38517000  0.54633000  1
  O  O261  1  0.51520000  0.61453000  0.45377000  1
  O  O262  1  0.45335000  0.06768000  0.03088000  1
  O  O263  1  0.61515000  0.09986000  0.93144000  1
  O  O264  1  0.09854000  0.48434000  0.96907000  1
  O  O265  1  0.03149000  0.54658000  0.06857000  1
  O  O266  1  0.54665000  0.51595000  0.38620000  1
  O  O267  1  0.96852000  0.45308000  0.93156000  1
