# generated using pymatgen
data_H9C16N4O3
_symmetry_space_group_name_H-M   'P 1'
_cell_length_a   31.16870000
_cell_length_b   36.60390000
_cell_length_c   36.60390000
_cell_angle_alpha   89.99980000
_cell_angle_beta   89.99970000
_cell_angle_gamma   89.99980000
_symmetry_Int_Tables_number   1
_chemical_formula_structural   H9C16N4O3
_chemical_formula_sum   'H144 C256 N64 O48'
_cell_volume   41761.24228547
_cell_formula_units_Z   16
loop_
 _symmetry_equiv_pos_site_id
 _symmetry_equiv_pos_as_xyz
  1  'x, y, z'
loop_
 _atom_site_type_symbol
 _atom_site_label
 _atom_site_symmetry_multiplicity
 _atom_site_fract_x
 _atom_site_fract_y
 _atom_site_fract_z
 _atom_site_occupancy
  H  9  1  0.00219400  0.02081200  0.10873300  1
  H  17  1  0.00293400  0.02146300  0.85926400  1
  H  19  1  0.02703200  0.93218900  0.95180300  1
  H  20  1  0.02681300  0.93201400  0.01582300  1
  H  21  1  0.97826400  0.11026400  0.95217300  1
  H  22  1  0.97804300  0.11009000  0.01619100  1
  H  39  1  0.50260400  0.02116600  0.35921100  1
  H  47  1  0.50290900  0.02085700  0.60869000  1
  H  49  1  0.52669600  0.11009900  0.51605200  1
  H  50  1  0.52663200  0.11017600  0.45202600  1
  H  51  1  0.47893000  0.93183000  0.51587100  1
  H  52  1  0.47881400  0.93191600  0.45184800  1
  H  69  1  0.75246100  0.39412800  0.73407900  1
  H  77  1  0.75273600  0.14459800  0.73372100  1
  H  79  1  0.78611600  0.23716100  0.82067100  1
  H  80  1  0.78447200  0.30112200  0.82129500  1
  H  81  1  0.71930800  0.23736400  0.64699800  1
  H  82  1  0.72081900  0.30132400  0.64656100  1
  H  99  1  0.25196900  0.64832700  0.73356100  1
  H  107  1  0.25292800  0.89784500  0.73387200  1
  H  109  1  0.28552800  0.80520900  0.64680400  1
  H  110  1  0.28363800  0.74124800  0.64618100  1
  H  111  1  0.21966700  0.80517600  0.82073800  1
  H  112  1  0.22102400  0.74120600  0.82118900  1
  H  129  1  0.25236600  0.64829900  0.23445000  1
  H  137  1  0.25245600  0.89782100  0.23406900  1
  H  139  1  0.21926300  0.80504200  0.14730900  1
  H  140  1  0.22081900  0.74107800  0.14687700  1
  H  141  1  0.28550900  0.80528500  0.32113700  1
  H  142  1  0.28390100  0.74132500  0.32176300  1
  H  159  1  0.75321400  0.39407100  0.23438600  1
  H  167  1  0.75217300  0.14454600  0.23394400  1
  H  169  1  0.71975100  0.23714800  0.32110100  1
  H  170  1  0.72164900  0.30110800  0.32175100  1
  H  171  1  0.78547300  0.23725700  0.14712800  1
  H  172  1  0.78416600  0.30122600  0.14672100  1
  H  189  1  0.50169000  0.52071700  0.60871500  1
  H  197  1  0.50315900  0.52135000  0.35914100  1
  H  199  1  0.54291100  0.43636800  0.45192600  1
  H  200  1  0.54246500  0.43617900  0.51583200  1
  H  201  1  0.46240100  0.60588500  0.45201900  1
  H  202  1  0.46199900  0.60571600  0.51592700  1
  H  219  1  0.00274500  0.52107900  0.85919900  1
  H  227  1  0.00251500  0.52128600  0.10877500  1
  H  229  1  0.04282000  0.60598500  0.01590100  1
  H  230  1  0.04285200  0.60594400  0.95199300  1
  H  231  1  0.96241100  0.43642900  0.01598700  1
  H  232  1  0.96248300  0.43636900  0.95207600  1
  H  247  1  0.84877300  0.10860100  0.07189800  1
  H  250  1  0.93334200  0.21987900  0.16292600  1
  H  251  1  0.97953300  0.19136800  0.16274800  1
  H  252  1  0.96025400  0.21029200  0.20427400  1
  H  255  1  0.91637600  0.08066700  0.05787200  1
  H  257  1  0.84596000  0.19613500  0.18444100  1
  H  264  1  0.34924200  0.93363400  0.39611400  1
  H  267  1  0.43334300  0.82192800  0.30531300  1
  H  268  1  0.47969300  0.85024800  0.30551700  1
  H  269  1  0.46038200  0.83135700  0.26398600  1
  H  272  1  0.41695400  0.96125000  0.41024100  1
  H  274  1  0.34609800  0.84604400  0.28362400  1
  H  281  1  0.59660200  0.36096600  0.64850600  1
  H  284  1  0.67954600  0.44744000  0.53297200  1
  H  285  1  0.72786400  0.44453800  0.55859400  1
  H  286  1  0.71032100  0.48714900  0.54084700  1
  H  289  1  0.66384000  0.34559800  0.67649500  1
  H  291  1  0.59776700  0.47280900  0.55936200  1
  H  298  1  0.09710500  0.68194600  0.82070500  1
  H  301  1  0.18041300  0.59338500  0.93380500  1
  H  302  1  0.22838100  0.59680200  0.90774900  1
  H  303  1  0.21137300  0.55394600  0.92522100  1
  H  306  1  0.16390900  0.69689000  0.79171600  1
  H  308  1  0.09850100  0.56922100  0.90857300  1
  H  315  1  0.65581200  0.10937500  0.39648700  1
  H  318  1  0.57347300  0.22060400  0.30463400  1
  H  319  1  0.52642000  0.19317200  0.30585000  1
  H  320  1  0.54541300  0.21118400  0.26383000  1
  H  323  1  0.58836600  0.08109400  0.41027300  1
  H  325  1  0.65883800  0.19653800  0.28370700  1
  H  332  1  0.15595900  0.93353700  0.07197500  1
  H  335  1  0.07392200  0.82123800  0.16261400  1
  H  336  1  0.02660800  0.84833300  0.16122600  1
  H  337  1  0.04535500  0.83018600  0.20326800  1
  H  340  1  0.08829500  0.96127400  0.05780200  1
  H  342  1  0.15874100  0.84592200  0.18449900  1
  H  349  1  0.90796200  0.36032800  0.82087800  1
  H  352  1  0.82472400  0.44939000  0.93361800  1
  H  353  1  0.77683900  0.44614500  0.90742800  1
  H  354  1  0.79403100  0.48894900  0.92489200  1
  H  357  1  0.84118500  0.34566300  0.79168500  1
  H  359  1  0.90691300  0.47320700  0.90853200  1
  H  366  1  0.40726800  0.68178700  0.64677700  1
  H  369  1  0.32246500  0.59345800  0.53378900  1
  H  370  1  0.27503000  0.59607000  0.56064700  1
  H  371  1  0.29244500  0.55353300  0.54267900  1
  H  374  1  0.34046100  0.69673400  0.67569200  1
  H  376  1  0.40606200  0.56899600  0.55901600  1
  H  383  1  0.15658500  0.93430500  0.89573100  1
  H  386  1  0.07243900  0.82154100  0.80637600  1
  H  387  1  0.02588300  0.84961800  0.80670900  1
  H  388  1  0.04489600  0.83049100  0.76518700  1
  H  391  1  0.08877300  0.96166700  0.91014100  1
  H  393  1  0.15920600  0.84605300  0.78366700  1
  H  400  1  0.65596600  0.10917300  0.57157500  1
  H  403  1  0.57148100  0.22007900  0.66313600  1
  H  404  1  0.52528100  0.19158200  0.66285300  1
  H  405  1  0.54459800  0.21031000  0.70445500  1
  H  408  1  0.58849800  0.08099000  0.55768400  1
  H  410  1  0.65886700  0.19635500  0.68438000  1
  H  417  1  0.40817000  0.68133600  0.31975400  1
  H  420  1  0.32540400  0.59478300  0.43533800  1
  H  421  1  0.27699700  0.59785400  0.40985800  1
  H  422  1  0.29447600  0.55516400  0.42744900  1
  H  425  1  0.34087800  0.69690900  0.29197900  1
  H  427  1  0.40700200  0.56926900  0.40862200  1
  H  434  1  0.90804000  0.36032300  0.14701800  1
  H  437  1  0.82482800  0.44910300  0.03403800  1
  H  438  1  0.77683700  0.44563900  0.06005700  1
  H  439  1  0.79386500  0.48852800  0.04267900  1
  H  442  1  0.84130000  0.34547700  0.17614100  1
  H  444  1  0.90671600  0.47317100  0.05931600  1
  H  451  1  0.34970400  0.93286900  0.57145100  1
  H  454  1  0.43200500  0.82190900  0.66368400  1
  H  455  1  0.47897800  0.84944600  0.66258300  1
  H  456  1  0.45985600  0.83144600  0.70456500  1
  H  459  1  0.41722700  0.96099100  0.55764000  1
  H  461  1  0.34640300  0.84592200  0.68437600  1
  H  468  1  0.84927500  0.10895100  0.89598600  1
  H  471  1  0.93159500  0.22069800  0.80481500  1
  H  472  1  0.97878100  0.19343900  0.80617600  1
  H  473  1  0.95998000  0.21151300  0.76412100  1
  H  476  1  0.91686000  0.08104600  0.91012100  1
  H  478  1  0.84655700  0.19629400  0.78327600  1
  H  485  1  0.09720100  0.68209400  0.14709700  1
  H  488  1  0.18070800  0.59294500  0.03456800  1
  H  489  1  0.22852200  0.59618200  0.06085400  1
  H  490  1  0.21135400  0.55337800  0.04337500  1
  H  493  1  0.16389000  0.69673200  0.17644000  1
  H  495  1  0.09843000  0.56921500  0.05945100  1
  H  502  1  0.59789800  0.36037300  0.32114200  1
  H  505  1  0.68255800  0.44880800  0.43412700  1
  H  506  1  0.72997900  0.44629800  0.40724200  1
  H  507  1  0.71246800  0.48879300  0.42523700  1
  H  510  1  0.66473500  0.34553500  0.29222200  1
  H  512  1  0.59884800  0.47316400  0.40889800  1
  C  1  1  0.00247100  0.02108500  0.00352800  1
  C  2  1  0.01293700  0.98857100  0.02302500  1
  C  3  1  0.01406400  0.98889300  0.06183700  1
  C  4  1  0.00225000  0.02087500  0.08068100  1
  C  5  1  0.99050000  0.05294300  0.06195600  1
  C  6  1  0.99187200  0.05349200  0.02315200  1
  C  7  1  0.02114800  0.95634600  0.00295000  1
  C  8  1  0.98379800  0.08582700  0.00321700  1
  C  10  1  0.00260700  0.02119200  0.96446600  1
  C  11  1  0.01321000  0.98878600  0.94484400  1
  C  12  1  0.01456700  0.98931800  0.90604100  1
  C  13  1  0.00285000  0.02139400  0.88731600  1
  C  14  1  0.99101900  0.05337700  0.90615200  1
  C  15  1  0.99214500  0.05370800  0.94496700  1
  C  16  1  0.02129500  0.95645400  0.96478000  1
  C  18  1  0.98393300  0.08593400  0.96504300  1
  C  23  1  0.97345800  0.08203500  0.08309600  1
  C  24  1  0.03113500  0.95973600  0.08286800  1
  C  25  1  0.03170600  0.96027200  0.88490700  1
  C  26  1  0.97406600  0.08259300  0.88511900  1
  C  31  1  0.50276500  0.02102400  0.46442100  1
  C  32  1  0.51311200  0.05354800  0.44489300  1
  C  33  1  0.51432400  0.05316000  0.40608600  1
  C  34  1  0.50264600  0.02112800  0.38726500  1
  C  35  1  0.49100900  0.98905100  0.40602200  1
  C  36  1  0.49235400  0.98855500  0.44483000  1
  C  37  1  0.52109400  0.08583700  0.46492900  1
  C  38  1  0.48442300  0.95621600  0.46480000  1
  C  40  1  0.50281900  0.02097500  0.50348200  1
  C  41  1  0.51320100  0.05345500  0.52307300  1
  C  42  1  0.51449400  0.05297400  0.56187800  1
  C  43  1  0.50289000  0.02088700  0.58063500  1
  C  44  1  0.49124400  0.98883900  0.56182500  1
  C  45  1  0.49248200  0.98845100  0.52301200  1
  C  46  1  0.52112600  0.08579300  0.50310200  1
  C  48  1  0.48448400  0.95616700  0.50297400  1
  C  53  1  0.47398600  0.95991500  0.38492600  1
  C  54  1  0.53131900  0.08231500  0.38501400  1
  C  55  1  0.53147900  0.08209900  0.58299800  1
  C  56  1  0.47431300  0.95962300  0.58287000  1
  C  61  1  0.75266500  0.28893200  0.73391000  1
  C  62  1  0.76557400  0.30843800  0.76579200  1
  C  63  1  0.76597400  0.34726400  0.76555700  1
  C  64  1  0.75253200  0.36606800  0.73403100  1
  C  65  1  0.73916400  0.34732700  0.70244500  1
  C  66  1  0.73969200  0.30850600  0.70209000  1
  C  67  1  0.77682300  0.28832500  0.79732800  1
  C  68  1  0.72849900  0.28847000  0.67049000  1
  C  70  1  0.75270700  0.24987300  0.73385200  1
  C  71  1  0.76681000  0.23025500  0.76525000  1
  C  72  1  0.76866800  0.19147000  0.76441800  1
  C  73  1  0.75273700  0.17264100  0.73375300  1
  C  74  1  0.73681800  0.19154100  0.70312600  1
  C  75  1  0.73863100  0.23032900  0.70239900  1
  C  76  1  0.77787900  0.25017100  0.79694800  1
  C  78  1  0.72752100  0.25031600  0.67076000  1
  C  83  1  0.72205200  0.36866100  0.67355500  1
  C  84  1  0.78287200  0.36857100  0.79456100  1
  C  85  1  0.79026700  0.17086500  0.79158500  1
  C  86  1  0.71518100  0.17101800  0.67591100  1
  C  91  1  0.25233800  0.75351700  0.73369000  1
  C  92  1  0.26501400  0.73398400  0.70175800  1
  C  93  1  0.26529600  0.69516000  0.70198400  1
  C  94  1  0.25205200  0.67638700  0.73359100  1
  C  95  1  0.23898400  0.69515200  0.76525600  1
  C  96  1  0.23953600  0.73397300  0.76558100  1
  C  97  1  0.27615600  0.75406600  0.67017600  1
  C  98  1  0.22858000  0.75404000  0.79722100  1
  C  100  1  0.25248800  0.79257600  0.73374100  1
  C  101  1  0.26648300  0.81215500  0.70228700  1
  C  102  1  0.26847200  0.85093300  0.70309800  1
  C  103  1  0.25280300  0.86980400  0.73384000  1
  C  104  1  0.23697900  0.85095000  0.76453600  1
  C  105  1  0.23866400  0.81215800  0.76524900  1
  C  106  1  0.27732700  0.79221800  0.67054700  1
  C  108  1  0.22771300  0.79220000  0.79694800  1
  C  113  1  0.22215700  0.67382700  0.79427700  1
  C  114  1  0.28216500  0.67379900  0.67302000  1
  C  115  1  0.29018600  0.87143800  0.67592600  1
  C  116  1  0.21547700  0.87155900  0.79176100  1
  C  121  1  0.25232100  0.75349200  0.23431000  1
  C  122  1  0.23949500  0.73390600  0.20245300  1
  C  123  1  0.23906100  0.69508100  0.20278900  1
  C  124  1  0.25234100  0.67635900  0.23441400  1
  C  125  1  0.26563000  0.69517700  0.26598200  1
  C  126  1  0.26515800  0.73399900  0.26622000  1
  C  127  1  0.22839000  0.75393700  0.17082800  1
  C  128  1  0.27629400  0.75411700  0.29778200  1
  C  130  1  0.25234100  0.79255200  0.23425000  1
  C  131  1  0.23837800  0.81208900  0.20275900  1
  C  132  1  0.23657800  0.85087900  0.20345800  1
  C  133  1  0.25242100  0.86978000  0.23411900  1
  C  134  1  0.26822500  0.85096200  0.26483900  1
  C  135  1  0.26633900  0.81217700  0.26567600  1
  C  136  1  0.22739300  0.79209500  0.17109300  1
  C  138  1  0.27731100  0.79227200  0.29740400  1
  C  143  1  0.28262100  0.67391900  0.29498400  1
  C  144  1  0.22214400  0.67370700  0.17385000  1
  C  145  1  0.21498900  0.87142300  0.17624000  1
  C  146  1  0.28984900  0.87152800  0.29203600  1
  C  151  1  0.75286500  0.28887500  0.23421700  1
  C  152  1  0.74020400  0.30839400  0.26616200  1
  C  153  1  0.73989800  0.34721800  0.26594000  1
  C  154  1  0.75314800  0.36600800  0.23435000  1
  C  155  1  0.76627900  0.34725300  0.20270100  1
  C  156  1  0.76567900  0.30843200  0.20233800  1
  C  157  1  0.72909800  0.28830100  0.29774600  1
  C  158  1  0.77660600  0.28838000  0.17068300  1
  C  160  1  0.75267700  0.24981600  0.23414100  1
  C  161  1  0.73869700  0.23022800  0.26559100  1
  C  162  1  0.73667300  0.19145100  0.26474700  1
  C  163  1  0.75230100  0.17258600  0.23399100  1
  C  164  1  0.76811600  0.19145000  0.20329700  1
  C  165  1  0.76646000  0.23024700  0.20261100  1
  C  166  1  0.72791400  0.25014600  0.29735500  1
  C  168  1  0.77745900  0.25022000  0.17093400  1
  C  173  1  0.78308200  0.36860600  0.17369600  1
  C  174  1  0.72298100  0.36855700  0.29490400  1
  C  175  1  0.71503300  0.17091200  0.29193500  1
  C  176  1  0.78957100  0.17089200  0.17599700  1
  C  181  1  0.50230300  0.52097600  0.50346200  1
  C  182  1  0.51848900  0.49025500  0.52302000  1
  C  183  1  0.51934900  0.49075000  0.56184100  1
  C  184  1  0.50184100  0.52077700  0.58066600  1
  C  185  1  0.48455400  0.55089400  0.56184000  1
  C  186  1  0.48586300  0.55159000  0.52303600  1
  C  187  1  0.53253200  0.45950200  0.50297500  1
  C  188  1  0.47208700  0.58246100  0.50303500  1
  C  190  1  0.50255600  0.52108800  0.46439700  1
  C  191  1  0.51901800  0.49048500  0.44482000  1
  C  192  1  0.52035900  0.49119500  0.40601600  1
  C  193  1  0.50301500  0.52129000  0.38719300  1
  C  194  1  0.48545900  0.55129000  0.40602100  1
  C  195  1  0.48634400  0.55179800  0.44483900  1
  C  196  1  0.53279500  0.45961400  0.46481800  1
  C  198  1  0.47231800  0.58256000  0.46487800  1
  C  203  1  0.46315100  0.57792100  0.58274800  1
  C  204  1  0.54057200  0.46362400  0.58278100  1
  C  205  1  0.54179400  0.46419000  0.38510800  1
  C  206  1  0.46413000  0.57833600  0.38507000  1
  C  211  1  0.00264800  0.52116900  0.96445500  1
  C  212  1  0.01893100  0.55183800  0.94487300  1
  C  213  1  0.02000200  0.55123400  0.90606100  1
  C  214  1  0.00271900  0.52110300  0.88724900  1
  C  215  1  0.98541100  0.49100200  0.90608900  1
  C  216  1  0.98640600  0.49046700  0.94490300  1
  C  217  1  0.03282000  0.58266800  0.96488000  1
  C  218  1  0.97247400  0.45967000  0.96494000  1
  C  220  1  0.00260300  0.52120400  0.00352000  1
  C  221  1  0.01887000  0.55189800  0.02307300  1
  C  222  1  0.01988300  0.55135400  0.06188800  1
  C  223  1  0.00253500  0.52126700  0.08072600  1
  C  224  1  0.98521700  0.49115500  0.06191100  1
  C  225  1  0.98630300  0.49054400  0.02309800  1
  C  226  1  0.03280000  0.58269500  0.00303600  1
  C  228  1  0.97243200  0.45970500  0.00309800  1
  C  233  1  0.96414600  0.46388800  0.88517400  1
  C  234  1  0.04129000  0.57831300  0.88513000  1
  C  235  1  0.04118700  0.57844100  0.08279800  1
  C  236  1  0.96388500  0.46412000  0.08286000  1
  C  241  1  0.85804100  0.15692100  0.14760300  1
  C  243  1  0.86404300  0.12034600  0.09363100  1
  C  244  1  0.90821000  0.11481100  0.10004300  1
  C  246  1  0.90272300  0.15263700  0.15366300  1
  C  248  1  0.92373700  0.16703500  0.18366500  1
  C  249  1  0.95067000  0.19875000  0.17799300  1
  C  258  1  0.35837300  0.88522000  0.32046100  1
  C  260  1  0.36450100  0.92176700  0.37444200  1
  C  261  1  0.40869600  0.92715900  0.36805200  1
  C  263  1  0.40309400  0.88930800  0.31446200  1
  C  265  1  0.42407700  0.87479000  0.28450100  1
  C  266  1  0.45081800  0.84296800  0.29024000  1
  C  275  1  0.60866600  0.43506700  0.59809600  1
  C  277  1  0.61272100  0.38184000  0.63605100  1
  C  278  1  0.65715300  0.38703400  0.64117600  1
  C  280  1  0.65364700  0.43976600  0.60191000  1
  C  282  1  0.67597700  0.46839400  0.58630200  1
  C  283  1  0.69971300  0.46142200  0.55298800  1
  C  292  1  0.10923900  0.60703400  0.86988200  1
  C  294  1  0.11320500  0.66076300  0.83265200  1
  C  295  1  0.15748000  0.65529100  0.82687900  1
  C  297  1  0.15408500  0.60202000  0.86542500  1
  C  299  1  0.17631300  0.57287000  0.88024000  1
  C  300  1  0.20041000  0.57972800  0.91343500  1
  C  309  1  0.64661100  0.15741100  0.32060500  1
  C  311  1  0.64055700  0.12104800  0.37471100  1
  C  312  1  0.59643900  0.11535000  0.36819000  1
  C  314  1  0.60196000  0.15301800  0.31446100  1
  C  316  1  0.58101900  0.16724300  0.28435800  1
  C  317  1  0.55518900  0.19969300  0.29008400  1
  C  326  1  0.14656500  0.88499900  0.14753300  1
  C  328  1  0.14062900  0.92165200  0.09360100  1
  C  329  1  0.09641500  0.92704600  0.09989900  1
  C  331  1  0.10182500  0.88909000  0.15343100  1
  C  333  1  0.08072000  0.87452100  0.18328900  1
  C  334  1  0.05528100  0.84192100  0.17716100  1
  C  343  1  0.89608800  0.43539900  0.86986000  1
  C  345  1  0.89195400  0.38162600  0.83270800  1
  C  346  1  0.84770200  0.38720500  0.82690200  1
  C  348  1  0.85127400  0.44055500  0.86532500  1
  C  350  1  0.82915900  0.46981700  0.88003800  1
  C  351  1  0.80488900  0.46310700  0.91317200  1
  C  360  1  0.39521100  0.60682500  0.59767300  1
  C  362  1  0.39119100  0.66058700  0.63484100  1
  C  363  1  0.34687500  0.65519200  0.64047400  1
  C  365  1  0.35034000  0.60188100  0.60199200  1
  C  367  1  0.32812500  0.57275300  0.58708400  1
  C  368  1  0.30317700  0.57941600  0.55438800  1
  C  377  1  0.14708100  0.88526400  0.82050600  1
  C  379  1  0.14121700  0.92224800  0.87421900  1
  C  380  1  0.09694500  0.92742800  0.86805400  1
  C  382  1  0.10229000  0.88914700  0.81474900  1
  C  384  1  0.08109900  0.87428000  0.78506700  1
  C  385  1  0.05465200  0.84236600  0.79127200  1
  C  394  1  0.64672000  0.15725000  0.64743000  1
  C  396  1  0.64069100  0.12087100  0.59332700  1
  C  397  1  0.59657000  0.11517200  0.59983200  1
  C  399  1  0.60206000  0.15287300  0.65353900  1
  C  401  1  0.58108400  0.16713700  0.68362600  1
  C  402  1  0.55415900  0.19888700  0.67811600  1
  C  411  1  0.39607400  0.60714500  0.37003100  1
  C  413  1  0.39203200  0.66047500  0.33221800  1
  C  414  1  0.34756400  0.65539400  0.32720700  1
  C  416  1  0.35105800  0.60256600  0.36634300  1
  C  418  1  0.32869900  0.57395200  0.38194500  1
  C  419  1  0.30511500  0.58089400  0.41534300  1
  C  428  1  0.89593600  0.43530400  0.09794300  1
  C  430  1  0.89194700  0.38152300  0.13509500  1
  C  431  1  0.84768400  0.38702500  0.14091500  1
  C  433  1  0.85109400  0.44033100  0.10241600  1
  C  435  1  0.82888500  0.46951300  0.08764400  1
  C  436  1  0.80481600  0.46272200  0.05442100  1
  C  445  1  0.35870400  0.88502400  0.64747300  1
  C  447  1  0.36490200  0.92125400  0.59329000  1
  C  448  1  0.40901700  0.92691700  0.59984400  1
  C  450  1  0.40334500  0.88941900  0.65368000  1
  C  452  1  0.42420200  0.87527800  0.68386200  1
  C  453  1  0.45016100  0.84288100  0.67826400  1
  C  462  1  0.85867800  0.15720800  0.82025200  1
  C  464  1  0.86459800  0.12071700  0.87429200  1
  C  465  1  0.90878100  0.11520100  0.86795300  1
  C  467  1  0.90338800  0.15297600  0.81428900  1
  C  469  1  0.92446400  0.16737300  0.78433500  1
  C  470  1  0.95008500  0.19990000  0.79029000  1
  C  479  1  0.10918100  0.60701200  0.09815400  1
  C  481  1  0.11323300  0.66078500  0.13530800  1
  C  482  1  0.15745400  0.65516800  0.14124500  1
  C  484  1  0.15397300  0.60182400  0.10280400  1
  C  486  1  0.17611100  0.57254500  0.08814700  1
  C  487  1  0.20047800  0.57923000  0.05506000  1
  C  496  1  0.60979200  0.43535400  0.37024600  1
  C  498  1  0.61393100  0.38159700  0.33308100  1
  C  499  1  0.65823500  0.38706100  0.32745300  1
  C  501  1  0.65465400  0.44036400  0.36593500  1
  C  503  1  0.67680400  0.46952500  0.38084600  1
  C  504  1  0.70179400  0.46289700  0.41352200  1
  N  242  1  0.84105800  0.14072100  0.11744300  1
  N  245  1  0.92519400  0.13149200  0.12990800  1
  N  254  1  0.93182700  0.09229100  0.07799900  1
  N  256  1  0.83217500  0.17688600  0.17019400  1
  N  259  1  0.34143600  0.90149900  0.35059800  1
  N  262  1  0.42564300  0.91038700  0.33822100  1
  N  271  1  0.43237700  0.94963700  0.39009300  1
  N  273  1  0.33241800  0.86535700  0.29785700  1
  N  276  1  0.59064800  0.40585700  0.61522000  1
  N  279  1  0.67525800  0.41585000  0.62352200  1
  N  288  1  0.67999600  0.36486100  0.66413300  1
  N  290  1  0.58343800  0.45812200  0.57796700  1
  N  293  1  0.09122700  0.63662600  0.85342300  1
  N  296  1  0.17556500  0.62606200  0.84385600  1
  N  305  1  0.18015600  0.67756400  0.80389700  1
  N  307  1  0.08412100  0.58391300  0.89000000  1
  N  310  1  0.66355700  0.14136600  0.35086400  1
  N  313  1  0.57949900  0.13187500  0.33821800  1
  N  322  1  0.57288300  0.09272700  0.39017200  1
  N  324  1  0.67253100  0.17724700  0.29795700  1
  N  327  1  0.16360100  0.90132900  0.11746200  1
  N  330  1  0.07937300  0.91022500  0.12965800  1
  N  339  1  0.07280800  0.94957800  0.07786600  1
  N  341  1  0.17246900  0.86517400  0.17022200  1
  N  344  1  0.91400000  0.40571700  0.85348000  1
  N  347  1  0.82972000  0.41653000  0.84379200  1
  N  356  1  0.82495300  0.36493200  0.80397300  1
  N  358  1  0.92127000  0.45846800  0.88998100  1
  N  361  1  0.41321000  0.63641200  0.61414900  1
  N  364  1  0.32879900  0.62597900  0.62345700  1
  N  373  1  0.32417600  0.67749800  0.66340600  1
  N  375  1  0.42037400  0.58364700  0.57766400  1
  N  378  1  0.16417500  0.90184900  0.85041100  1
  N  381  1  0.07983800  0.91034000  0.83847200  1
  N  390  1  0.07331800  0.94999200  0.89004500  1
  N  392  1  0.17295300  0.86536700  0.79784800  1
  N  395  1  0.66367600  0.14119100  0.61718500  1
  N  398  1  0.57960100  0.13173100  0.62977400  1
  N  407  1  0.57302100  0.09257600  0.57781500  1
  N  409  1  0.67260800  0.17713500  0.67006700  1
  N  412  1  0.41411500  0.63635500  0.35292300  1
  N  415  1  0.32943700  0.62658300  0.34485100  1
  N  424  1  0.32471100  0.67764600  0.30433600  1
  N  426  1  0.42130500  0.58397800  0.39002000  1
  N  429  1  0.91393400  0.40567600  0.11435200  1
  N  432  1  0.82961200  0.41628700  0.12397900  1
  N  441  1  0.82503400  0.36477600  0.16394000  1
  N  443  1  0.92107500  0.45846200  0.07788800  1
  N  446  1  0.34183700  0.90100600  0.61714800  1
  N  449  1  0.42588000  0.91047200  0.62989200  1
  N  458  1  0.43266600  0.94941300  0.57780200  1
  N  460  1  0.33273500  0.86520400  0.67009300  1
  N  463  1  0.84164600  0.14102400  0.85040100  1
  N  466  1  0.92581900  0.13186900  0.83810200  1
  N  475  1  0.93236300  0.09270100  0.89004000  1
  N  477  1  0.83280400  0.17706400  0.79756800  1
  N  480  1  0.09123700  0.63670800  0.11448300  1
  N  483  1  0.17547200  0.62582900  0.12439900  1
  N  492  1  0.18013700  0.67742200  0.16423700  1
  N  494  1  0.08404400  0.58394600  0.07799200  1
  N  497  1  0.59185700  0.40574000  0.35376700  1
  N  500  1  0.67624900  0.41630100  0.34447300  1
  N  509  1  0.68097700  0.36479000  0.30452100  1
  N  511  1  0.58457100  0.45849900  0.39024100  1
  O  27  1  0.99648100  0.09316000  0.11244500  1
  O  28  1  0.00806700  0.94854500  0.11217100  1
  O  29  1  0.00869900  0.94905800  0.85558200  1
  O  30  1  0.99715100  0.09366200  0.85578200  1
  O  57  1  0.49692200  0.94884900  0.35550600  1
  O  58  1  0.50821200  0.09357400  0.35576300  1
  O  59  1  0.50841100  0.09325700  0.61231200  1
  O  60  1  0.49728800  0.94862800  0.61229500  1
  O  87  1  0.74631700  0.39682500  0.66132900  1
  O  88  1  0.75842100  0.39659800  0.80683400  1
  O  89  1  0.77061900  0.14062000  0.80481300  1
  O  90  1  0.73483900  0.14075600  0.66272100  1
  O  117  1  0.24655000  0.64565500  0.80629800  1
  O  118  1  0.25762800  0.64587900  0.66063700  1
  O  119  1  0.27067000  0.90179400  0.66279700  1
  O  120  1  0.23515000  0.90183800  0.80489100  1
  O  147  1  0.25836300  0.64570900  0.30711700  1
  O  148  1  0.24659500  0.64564100  0.16166600  1
  O  149  1  0.23460800  0.90168400  0.16300900  1
  O  150  1  0.27029100  0.90192600  0.30501500  1
  O  177  1  0.75862800  0.39666900  0.16151100  1
  O  178  1  0.74746300  0.39650800  0.30729600  1
  O  179  1  0.73453800  0.14056800  0.30509800  1
  O  180  1  0.76985000  0.14058700  0.16298200  1
  O  207  1  0.48408900  0.59191700  0.61201300  1
  O  208  1  0.51946400  0.44970000  0.61198800  1
  O  209  1  0.52091100  0.45015900  0.35583300  1
  O  210  1  0.48522100  0.59247700  0.35596100  1
  O  237  1  0.98519400  0.44992500  0.85595600  1
  O  238  1  0.02022400  0.59225100  0.85590600  1
  O  239  1  0.02010800  0.59243700  0.11198900  1
  O  240  1  0.98492300  0.45003400  0.11202300  1
  O  253  1  0.93745600  0.14404200  0.20495200  1
  O  270  1  0.43796600  0.89770200  0.26320500  1
  O  287  1  0.69377000  0.48883100  0.60803200  1
  O  304  1  0.19389100  0.55277100  0.85811200  1
  O  321  1  0.56563500  0.14460600  0.26353700  1
  O  338  1  0.06489300  0.89690700  0.20414200  1
  O  355  1  0.81178600  0.48995900  0.85783100  1
  O  372  1  0.31194900  0.55228200  0.60965900  1
  O  389  1  0.06681800  0.89694300  0.76369300  1
  O  406  1  0.56737100  0.14405200  0.70482100  1
  O  423  1  0.31076100  0.55360700  0.36021500  1
  O  440  1  0.81128900  0.48957400  0.10980000  1
  O  457  1  0.43942600  0.89798100  0.70469800  1
  O  474  1  0.94010700  0.14485900  0.76352000  1
  O  491  1  0.19341000  0.55240500  0.11039800  1
  O  508  1  0.69291300  0.49003600  0.35826900  1
