# generated using pymatgen
data_H40C53O4
_symmetry_space_group_name_H-M   'P 1'
_cell_length_a   42.64725000
_cell_length_b   42.64720000
_cell_length_c   42.66040000
_cell_angle_alpha   90.00000000
_cell_angle_beta   90.00000000
_cell_angle_gamma   119.99988365
_symmetry_Int_Tables_number   1
_chemical_formula_structural   H40C53O4
_chemical_formula_sum   'H240 C318 O24'
_cell_volume   67195.10222719
_cell_formula_units_Z   6
loop_
 _symmetry_equiv_pos_site_id
 _symmetry_equiv_pos_as_xyz
  1  'x, y, z'
loop_
 _atom_site_type_symbol
 _atom_site_label
 _atom_site_symmetry_multiplicity
 _atom_site_fract_x
 _atom_site_fract_y
 _atom_site_fract_z
 _atom_site_occupancy
  H  26  1  0.85438100  0.22838500  0.69717600  1
  H  27  1  0.79632300  0.20230900  0.71996800  1
  H  28  1  0.86918500  0.33259800  0.71321400  1
  H  29  1  0.81007200  0.30624900  0.73368300  1
  H  30  1  0.73589200  0.28568200  0.73331700  1
  H  31  1  0.69932700  0.28671100  0.69268500  1
  H  32  1  0.70485600  0.20168000  0.64726300  1
  H  33  1  0.73869600  0.19840800  0.68981300  1
  H  34  1  0.68943000  0.17499100  0.73870200  1
  H  35  1  0.66454600  0.11551500  0.75859100  1
  H  36  1  0.76221200  0.14545700  0.80602900  1
  H  37  1  0.78802700  0.20494300  0.78469500  1
  H  38  1  0.81342400  0.27784700  0.78972400  1
  H  39  1  0.70132800  0.23399500  0.77559400  1
  H  40  1  0.69906200  0.26725500  0.81940600  1
  H  41  1  0.81124800  0.31116400  0.83318000  1
  H  67  1  0.36742600  0.14038900  0.36393700  1
  H  68  1  0.39948600  0.19846900  0.38673800  1
  H  69  1  0.45673900  0.12544000  0.37998300  1
  H  70  1  0.48954200  0.18451900  0.40047700  1
  H  71  1  0.54344400  0.25875500  0.39990300  1
  H  72  1  0.58105600  0.29542800  0.35930800  1
  H  73  1  0.49043300  0.28959500  0.31371800  1
  H  74  1  0.45330700  0.25570200  0.35623900  1
  H  75  1  0.48116700  0.30603400  0.40533600  1
  H  76  1  0.44810300  0.33244800  0.42531800  1
  H  77  1  0.37774900  0.23507700  0.47203500  1
  H  78  1  0.41012700  0.20784300  0.45077700  1
  H  79  1  0.45763500  0.18151000  0.45656000  1
  H  80  1  0.52661500  0.29340800  0.44197900  1
  H  81  1  0.56195800  0.29562400  0.48587200  1
  H  82  1  0.49304800  0.18361200  0.50005400  1
  H  108  1  0.76521300  0.62648400  0.03033800  1
  H  109  1  0.79199600  0.59520800  0.05328400  1
  H  110  1  0.66158200  0.53639300  0.04698600  1
  H  111  1  0.68860000  0.50435100  0.06744500  1
  H  112  1  0.70937000  0.45142900  0.06680700  1
  H  113  1  0.70823000  0.41387800  0.02608600  1
  H  114  1  0.79315400  0.50448800  0.98062000  1
  H  115  1  0.79651000  0.54156100  0.02323500  1
  H  116  1  0.81999500  0.51571400  0.07220800  1
  H  117  1  0.87946800  0.55034500  0.09207700  1
  H  118  1  0.84955000  0.61823300  0.13926800  1
  H  119  1  0.79007100  0.58453500  0.11791600  1
  H  120  1  0.71752600  0.53705700  0.12334700  1
  H  121  1  0.76092000  0.46845000  0.10901000  1
  H  122  1  0.72754000  0.43289800  0.15277900  1
  H  123  1  0.68409900  0.50155600  0.16674100  1
  H  149  1  0.13785200  0.76901500  0.19713600  1
  H  150  1  0.19590500  0.79509400  0.21993700  1
  H  151  1  0.12304200  0.66480700  0.21321700  1
  H  152  1  0.18214600  0.69115700  0.23369500  1
  H  153  1  0.25634600  0.71173100  0.23333600  1
  H  154  1  0.29289400  0.71068200  0.19269700  1
  H  155  1  0.28732500  0.79567000  0.14724000  1
  H  156  1  0.25350500  0.79896500  0.18979000  1
  H  157  1  0.30280800  0.82242200  0.23869300  1
  H  158  1  0.32769700  0.88190000  0.25858200  1
  H  159  1  0.23002900  0.85196500  0.30601300  1
  H  160  1  0.20421100  0.79247800  0.28468100  1
  H  161  1  0.17880300  0.71957700  0.28972300  1
  H  162  1  0.29089400  0.76341000  0.27557900  1
  H  163  1  0.29316200  0.73016300  0.31939700  1
  H  164  1  0.18098400  0.68627500  0.33319200  1
  H  190  1  0.62482700  0.85704400  0.86400700  1
  H  191  1  0.59275300  0.79895600  0.88679000  1
  H  192  1  0.53548700  0.87197000  0.87997100  1
  H  193  1  0.50266600  0.81288000  0.90044300  1
  H  194  1  0.44875500  0.73861300  0.89990900  1
  H  195  1  0.41114800  0.70194000  0.85931000  1
  H  196  1  0.50178800  0.70783100  0.81370300  1
  H  197  1  0.53891000  0.74171900  0.85622300  1
  H  198  1  0.51107700  0.69136700  0.90529800  1
  H  199  1  0.54414800  0.66496500  0.92530100  1
  H  200  1  0.61443800  0.76233000  0.97206000  1
  H  201  1  0.58205300  0.78955100  0.95078800  1
  H  202  1  0.53456400  0.81591800  0.95652900  1
  H  203  1  0.46563000  0.70399600  0.94200600  1
  H  204  1  0.43029600  0.70178600  0.98589600  1
  H  205  1  0.49914700  0.81381500  0.00002900  1
  H  231  1  0.22700800  0.37090500  0.53038000  1
  H  232  1  0.20022700  0.40218900  0.55331000  1
  H  233  1  0.33064100  0.46102000  0.54697100  1
  H  234  1  0.30362100  0.49307300  0.56741200  1
  H  235  1  0.28283900  0.54599300  0.56680900  1
  H  236  1  0.28397800  0.58354300  0.52608800  1
  H  237  1  0.19907500  0.49292700  0.48060800  1
  H  238  1  0.19571900  0.45585400  0.52322600  1
  H  239  1  0.17219500  0.48166700  0.57216300  1
  H  240  1  0.11272500  0.44702000  0.59203600  1
  H  241  1  0.14269100  0.37919400  0.63927200  1
  H  242  1  0.20216800  0.41290600  0.61791800  1
  H  243  1  0.27472800  0.46037200  0.62331400  1
  H  244  1  0.23127500  0.52894200  0.60902200  1
  H  245  1  0.26465500  0.56449100  0.65278600  1
  H  246  1  0.30816000  0.49588200  0.66670800  1
  H  253  1  0.80807600  0.41992300  0.92755500  1
  H  254  1  0.80799400  0.45896000  0.96710500  1
  H  261  1  0.72831900  0.37642600  0.87012500  1
  H  262  1  0.72882400  0.33884400  0.82899800  1
  H  263  1  0.78007600  0.29950300  0.88825400  1
  H  264  1  0.69447100  0.39574100  0.97368500  1
  H  268  1  0.76348800  0.33181900  0.95950700  1
  H  269  1  0.80750500  0.36210900  0.94569200  1
  H  270  1  0.77196900  0.28520900  0.94561100  1
  H  272  1  0.68513000  0.32339800  0.92069400  1
  H  273  1  0.66931400  0.32998400  0.95672700  1
  H  274  1  0.63679300  0.33263200  0.91437900  1
  H  281  1  0.60532900  0.18670800  0.59427700  1
  H  282  1  0.64448700  0.18683900  0.63381300  1
  H  289  1  0.64154900  0.26637900  0.53677900  1
  H  290  1  0.60344800  0.26583200  0.49565700  1
  H  291  1  0.51289500  0.21472500  0.55497200  1
  H  292  1  0.69478800  0.30036700  0.64029700  1
  H  296  1  0.56184300  0.23136400  0.62619700  1
  H  297  1  0.54809300  0.18732400  0.61242300  1
  H  298  1  0.50674800  0.22288200  0.61231800  1
  H  300  1  0.63176700  0.30965400  0.58729200  1
  H  301  1  0.65415200  0.32549500  0.62332800  1
  H  302  1  0.68934300  0.35799200  0.58098400  1
  H  309  1  0.57487500  0.38938900  0.26100100  1
  H  310  1  0.53587800  0.35014000  0.30052000  1
  H  317  1  0.61832400  0.35320800  0.20344900  1
  H  318  1  0.65599900  0.39128700  0.16236000  1
  H  319  1  0.69545200  0.48183400  0.22168600  1
  H  320  1  0.59925100  0.29998200  0.30689200  1
  H  324  1  0.66299200  0.43293400  0.29288600  1
  H  325  1  0.63271700  0.44667600  0.27906300  1
  H  326  1  0.70961600  0.48803000  0.27902500  1
  H  328  1  0.67148900  0.36308700  0.25389400  1
  H  329  1  0.66500600  0.34073300  0.28994100  1
  H  330  1  0.66229400  0.30551600  0.24760900  1
  H  337  1  0.18414500  0.57749400  0.42754900  1
  H  338  1  0.18422600  0.53845700  0.46709900  1
  H  345  1  0.26390100  0.62099600  0.37012100  1
  H  346  1  0.26339700  0.65857900  0.32899600  1
  H  347  1  0.21215500  0.69792400  0.38826000  1
  H  348  1  0.29774800  0.60167700  0.47368100  1
  H  352  1  0.22874800  0.66560800  0.45950800  1
  H  353  1  0.18472800  0.63531500  0.44569700  1
  H  354  1  0.22026100  0.71221700  0.44561500  1
  H  356  1  0.30709000  0.67401900  0.42069000  1
  H  357  1  0.32290600  0.66743300  0.45672400  1
  H  358  1  0.35542900  0.66478700  0.41437500  1
  H  365  1  0.38685800  0.81066800  0.09425400  1
  H  366  1  0.34769900  0.81053800  0.13378700  1
  H  373  1  0.35065800  0.73096800  0.03679100  1
  H  374  1  0.38876200  0.73153400  0.99566400  1
  H  375  1  0.47933100  0.78271900  0.05495300  1
  H  376  1  0.29745300  0.69701600  0.14032500  1
  H  380  1  0.43039700  0.76607800  0.12619000  1
  H  381  1  0.44412000  0.81010400  0.11240200  1
  H  382  1  0.48550100  0.77458500  0.11230400  1
  H  384  1  0.36048300  0.68773800  0.08732300  1
  H  385  1  0.33811400  0.67191100  0.12336800  1
  H  386  1  0.30291600  0.63937700  0.08103800  1
  H  393  1  0.41736000  0.60802700  0.76097500  1
  H  394  1  0.45635200  0.64726800  0.80050000  1
  H  401  1  0.37388600  0.64420500  0.70344400  1
  H  402  1  0.33621600  0.60613300  0.66235200  1
  H  403  1  0.29678800  0.51557000  0.72165800  1
  H  404  1  0.39295700  0.69740100  0.80690100  1
  H  408  1  0.32923500  0.56445500  0.79286800  1
  H  409  1  0.35952200  0.55073000  0.77903800  1
  H  410  1  0.28262400  0.50935600  0.77899700  1
  H  412  1  0.32072400  0.63430100  0.75389600  1
  H  413  1  0.32720500  0.65664200  0.78994700  1
  H  414  1  0.32990200  0.69186500  0.74762800  1
  H  421  1  0.65794600  0.00155500  0.77499200  1
  H  422  1  0.68591100  0.06115800  0.75326500  1
  H  429  1  0.59172300  0.96962300  0.81813000  1
  H  430  1  0.55955500  0.90905000  0.83625600  1
  H  431  1  0.65570000  0.91934300  0.87304100  1
  H  432  1  0.69816600  0.10534300  0.84356500  1
  H  436  1  0.71130900  0.01237700  0.86427100  1
  H  437  1  0.71411600  0.99317100  0.82855600  1
  H  438  1  0.71454800  0.96777900  0.89003100  1
  H  440  1  0.65375200  0.01766500  0.88577100  1
  H  441  1  0.69227000  0.06114000  0.88914000  1
  H  442  1  0.64004600  0.05836500  0.90791200  1
  H  449  1  0.34538700  0.34564200  0.44148500  1
  H  450  1  0.37673700  0.31751300  0.41967500  1
  H  457  1  0.37426400  0.40687300  0.48572000  1
  H  458  1  0.34465700  0.43792400  0.50352600  1
  H  459  1  0.25890400  0.34057200  0.53858200  1
  H  460  1  0.39965700  0.29547300  0.51021800  1
  H  464  1  0.29668800  0.28540900  0.52908800  1
  H  465  1  0.27593900  0.28409300  0.49305200  1
  H  466  1  0.24813400  0.28121200  0.55416800  1
  H  468  1  0.35739300  0.34056400  0.55278900  1
  H  469  1  0.36011000  0.30065500  0.55489700  1
  H  470  1  0.40966000  0.35040000  0.57675800  1
  H  477  1  0.99341800  0.65776200  0.10837700  1
  H  478  1  0.93382300  0.62615800  0.08663400  1
  H  485  1  0.02523400  0.62334800  0.15150400  1
  H  486  1  0.08582400  0.65172400  0.16957900  1
  H  487  1  0.07562600  0.73763600  0.20638400  1
  H  488  1  0.88959300  0.59418200  0.17691900  1
  H  492  1  0.98259800  0.70028400  0.19764700  1
  H  493  1  0.00180200  0.72227400  0.16192400  1
  H  494  1  0.02723300  0.74811900  0.22338300  1
  H  496  1  0.97726100  0.63740600  0.21915200  1
  H  497  1  0.93379900  0.63248000  0.22251100  1
  H  498  1  0.93652600  0.58301100  0.24129200  1
  H  505  1  0.33430000  0.99586300  0.27497200  1
  H  506  1  0.30632900  0.93626000  0.25324700  1
  H  513  1  0.40052300  0.02778400  0.31813900  1
  H  514  1  0.43269200  0.08835800  0.33626500  1
  H  515  1  0.33653300  0.07808600  0.37299500  1
  H  516  1  0.29406300  0.89207700  0.34355100  1
  H  520  1  0.28092200  0.98505400  0.36423000  1
  H  521  1  0.27812600  0.00425400  0.32850900  1
  H  522  1  0.27767900  0.02965600  0.38997600  1
  H  524  1  0.33846300  0.97975500  0.38575400  1
  H  525  1  0.29995400  0.93627500  0.38911500  1
  H  526  1  0.35217700  0.93906600  0.40790800  1
  H  533  1  0.64679300  0.65173700  0.94149100  1
  H  534  1  0.61543100  0.67986300  0.91969200  1
  H  541  1  0.61794000  0.59053800  0.98574600  1
  H  542  1  0.64754300  0.55947800  0.00354500  1
  H  543  1  0.73333800  0.65683700  0.03855200  1
  H  544  1  0.59259000  0.70196300  0.01024000  1
  H  548  1  0.69557100  0.71201700  0.02906500  1
  H  549  1  0.71629300  0.71331000  0.99302100  1
  H  550  1  0.74413600  0.71621100  0.05412100  1
  H  552  1  0.63487000  0.65687900  0.05279900  1
  H  553  1  0.63217600  0.69680000  0.05490400  1
  H  554  1  0.58262500  0.64707500  0.07678800  1
  H  561  1  0.99880000  0.33962300  0.60837900  1
  H  562  1  0.05839200  0.37122100  0.58662900  1
  H  569  1  0.96698600  0.37404100  0.65149900  1
  H  570  1  0.90639700  0.34566400  0.66957900  1
  H  571  1  0.91660500  0.25977000  0.70640500  1
  H  572  1  0.10263100  0.40322200  0.67691100  1
  H  576  1  0.00963100  0.29712300  0.69766100  1
  H  577  1  0.99042900  0.27512100  0.66194200  1
  H  578  1  0.96500100  0.24929200  0.72340600  1
  H  580  1  0.01496700  0.35999700  0.71915000  1
  H  581  1  0.05843700  0.36493900  0.72250600  1
  H  582  1  0.05569400  0.41440000  0.74128200  1
  C  1  1  0.75516400  0.29355200  0.83006500  1
  C  2  1  0.72352000  0.27011500  0.81309100  1
  C  3  1  0.72496300  0.25038500  0.78721600  1
  C  4  1  0.75825700  0.25486800  0.77566200  1
  C  5  1  0.78907800  0.27576000  0.79490100  1
  C  6  1  0.78777600  0.29501600  0.82119800  1
  C  7  1  0.75929400  0.23547300  0.74565400  1
  C  8  1  0.74267900  0.19631800  0.75738400  1
  C  9  1  0.76214200  0.18632000  0.77836000  1
  C  10  1  0.74690900  0.15124800  0.79120700  1
  C  11  1  0.71122300  0.12429200  0.78358300  1
  C  12  1  0.69101800  0.13387500  0.76357200  1
  C  13  1  0.70614500  0.16922200  0.75148900  1
  C  14  1  0.73876500  0.23965100  0.71785600  1
  C  15  1  0.79737100  0.25132700  0.73162700  1
  C  16  1  0.81153000  0.22991100  0.71954800  1
  C  17  1  0.84622300  0.24551000  0.70584700  1
  C  18  1  0.86900200  0.28356000  0.70331100  1
  C  19  1  0.85428900  0.30496300  0.71402500  1
  C  20  1  0.81922600  0.28925900  0.72680300  1
  C  21  1  0.72866700  0.26669200  0.71609500  1
  C  22  1  0.70772700  0.26810900  0.69123600  1
  C  23  1  0.69722500  0.24374900  0.66565000  1
  C  24  1  0.71026300  0.21903600  0.66566000  1
  C  25  1  0.73074700  0.21738300  0.69084000  1
  C  42  1  0.53182600  0.23959400  0.49675400  1
  C  43  1  0.54023400  0.27121100  0.47965100  1
  C  44  1  0.51912300  0.26980600  0.45374700  1
  C  45  1  0.49017200  0.23655300  0.44227000  1
  C  46  1  0.47999700  0.20580300  0.46167700  1
  C  47  1  0.50050500  0.20707100  0.48800300  1
  C  48  1  0.46983600  0.23551300  0.41220000  1
  C  49  1  0.44781300  0.25281000  0.42363900  1
  C  50  1  0.41811400  0.23391900  0.44448700  1
  C  51  1  0.39909700  0.25003800  0.45734300  1
  C  52  1  0.40899600  0.28613300  0.44998400  1
  C  53  1  0.43906800  0.30573800  0.43010600  1
  C  54  1  0.45839700  0.28969500  0.41795900  1
  C  55  1  0.49450600  0.25568900  0.38429800  1
  C  56  1  0.44740600  0.19734700  0.39839100  1
  C  57  1  0.41182700  0.18321200  0.38633800  1
  C  58  1  0.39269400  0.14851000  0.37262900  1
  C  59  1  0.40793000  0.12570000  0.37004400  1
  C  60  1  0.44401300  0.14034700  0.38082200  1
  C  61  1  0.46339500  0.17539800  0.39361800  1
  C  62  1  0.53166300  0.26587600  0.38261500  1
  C  63  1  0.55402900  0.28690400  0.35780300  1
  C  64  1  0.54014500  0.29736900  0.33221000  1
  C  65  1  0.50237400  0.28418600  0.33212100  1
  C  66  1  0.48022700  0.26363400  0.35725700  1
  C  83  1  0.70146300  0.46289500  0.16352200  1
  C  84  1  0.72482100  0.45459600  0.14652300  1
  C  85  1  0.74466900  0.47581400  0.12070700  1
  C  86  1  0.74025200  0.50467300  0.10917900  1
  C  87  1  0.71952300  0.51474000  0.12849700  1
  C  88  1  0.70022100  0.49419000  0.15477200  1
  C  89  1  0.75951700  0.52504300  0.07911600  1
  C  90  1  0.79869400  0.54774200  0.09071000  1
  C  91  1  0.80869600  0.57726200  0.11161500  1
  C  92  1  0.84375800  0.59710800  0.12447900  1
  C  93  1  0.87069900  0.58833300  0.11693100  1
  C  94  1  0.86112000  0.55849400  0.09699000  1
  C  95  1  0.82577400  0.53825300  0.08491500  1
  C  96  1  0.75537900  0.50034100  0.05132900  1
  C  97  1  0.74333400  0.54697100  0.06511700  1
  C  98  1  0.76437400  0.58253800  0.05291900  1
  C  99  1  0.74834600  0.60121200  0.03915400  1
  C  100  1  0.71023000  0.58549100  0.03666500  1
  C  101  1  0.68923200  0.54944100  0.04764900  1
  C  102  1  0.70534700  0.53050100  0.06044500  1
  C  103  1  0.72833600  0.46320400  0.04956600  1
  C  104  1  0.72684400  0.44088000  0.02465100  1
  C  105  1  0.75114100  0.45476900  0.99902800  1
  C  106  1  0.77585600  0.49251800  0.99904900  1
  C  107  1  0.77757500  0.51462500  0.02427600  1
  C  124  1  0.23706500  0.70388200  0.33007000  1
  C  125  1  0.26870500  0.72731200  0.31308900  1
  C  126  1  0.26727000  0.74707500  0.28723600  1
  C  127  1  0.23396600  0.74254700  0.27565900  1
  C  128  1  0.20314900  0.72166600  0.29490600  1
  C  129  1  0.20445800  0.70243300  0.32121600  1
  C  130  1  0.23293100  0.76193800  0.24565000  1
  C  131  1  0.24955200  0.80110400  0.25735400  1
  C  132  1  0.23009700  0.81110000  0.27834300  1
  C  133  1  0.24533200  0.84617000  0.29119100  1
  C  134  1  0.28101600  0.87313000  0.28356600  1
  C  135  1  0.30123300  0.86353200  0.26358200  1
  C  136  1  0.28609500  0.82819000  0.25148200  1
  C  137  1  0.25346800  0.75775700  0.21786100  1
  C  138  1  0.19485100  0.74608100  0.23163200  1
  C  139  1  0.18070100  0.76749200  0.21952000  1
  C  140  1  0.14600900  0.75189100  0.20581700  1
  C  141  1  0.12322600  0.71384000  0.20329400  1
  C  142  1  0.13793900  0.69244000  0.21401900  1
  C  143  1  0.17300900  0.70815100  0.22678500  1
  C  144  1  0.26355800  0.73071000  0.21610300  1
  C  145  1  0.28452200  0.72930700  0.19125700  1
  C  146  1  0.29499400  0.75363600  0.16565300  1
  C  147  1  0.28194100  0.77833800  0.16564800  1
  C  148  1  0.26146900  0.78000500  0.19083300  1
  C  165  1  0.46039100  0.75782500  0.99674400  1
  C  166  1  0.45200200  0.72620200  0.97965700  1
  C  167  1  0.47310600  0.72761300  0.95374500  1
  C  168  1  0.50204600  0.76086700  0.94225900  1
  C  169  1  0.51219700  0.79162800  0.96164100  1
  C  170  1  0.49168100  0.79036000  0.98796400  1
  C  171  1  0.52238000  0.76188900  0.91219300  1
  C  172  1  0.54439200  0.74458100  0.92363600  1
  C  173  1  0.57407800  0.76347900  0.94449700  1
  C  174  1  0.59308900  0.74736200  0.95737000  1
  C  175  1  0.58320500  0.71127000  0.95001200  1
  C  176  1  0.55314100  0.69166100  0.93012600  1
  C  177  1  0.53381600  0.70769800  0.91795900  1
  C  178  1  0.49770300  0.74170100  0.88429900  1
  C  179  1  0.54479600  0.80004900  0.89836200  1
  C  180  1  0.58040500  0.81420700  0.88636900  1
  C  181  1  0.59954500  0.84891200  0.87267100  1
  C  182  1  0.58430200  0.87171500  0.87005900  1
  C  183  1  0.54820700  0.85705900  0.88081000  1
  C  184  1  0.52880800  0.82199400  0.89357500  1
  C  185  1  0.46054200  0.73150100  0.88262000  1
  C  186  1  0.43817300  0.71044800  0.85781700  1
  C  187  1  0.45206800  0.70002000  0.83220900  1
  C  188  1  0.48984200  0.71322200  0.83211300  1
  C  189  1  0.51198500  0.73376500  0.85725500  1
  C  206  1  0.29076900  0.53452300  0.66350300  1
  C  207  1  0.26739200  0.54280800  0.64651800  1
  C  208  1  0.24755300  0.52159400  0.62069500  1
  C  209  1  0.25196100  0.49272900  0.60917200  1
  C  210  1  0.27272700  0.48268800  0.62846400  1
  C  211  1  0.29205000  0.50325500  0.65472400  1
  C  212  1  0.23270100  0.47236700  0.57910400  1
  C  213  1  0.19352000  0.44967300  0.59069600  1
  C  214  1  0.18353400  0.42016300  0.61161000  1
  C  215  1  0.14847600  0.40031500  0.62448300  1
  C  216  1  0.12152200  0.40906800  0.61692100  1
  C  217  1  0.13109100  0.43890600  0.59698000  1
  C  218  1  0.16643500  0.45915200  0.58490100  1
  C  219  1  0.23684000  0.49707900  0.55132400  1
  C  220  1  0.24889200  0.45045400  0.56508900  1
  C  221  1  0.22784800  0.41485600  0.55295300  1
  C  222  1  0.24387500  0.39618500  0.53918200  1
  C  223  1  0.28199300  0.41191400  0.53667400  1
  C  224  1  0.30299100  0.44796900  0.54764400  1
  C  225  1  0.28687800  0.46692000  0.56042200  1
  C  226  1  0.26388500  0.53421600  0.54956100  1
  C  227  1  0.26537600  0.55653900  0.52464800  1
  C  228  1  0.24108400  0.54264700  0.49901800  1
  C  229  1  0.21637200  0.50489800  0.49903900  1
  C  230  1  0.21465100  0.48279100  0.52426600  1
  C  247  1  0.75103200  0.43147800  0.97452400  1
  C  248  1  0.71863200  0.40061300  0.96439800  1
  C  249  1  0.71818200  0.37589500  0.94192300  1
  C  250  1  0.75147300  0.38281500  0.92811800  1
  C  251  1  0.78381100  0.41411000  0.93732400  1
  C  252  1  0.78363200  0.43758400  0.96035400  1
  C  255  1  0.75355100  0.36022700  0.90443300  1
  C  256  1  0.73922500  0.36023200  0.87453800  1
  C  257  1  0.73925300  0.33789500  0.85036700  1
  C  258  1  0.75431500  0.31536800  0.85505800  1
  C  259  1  0.76917500  0.31582400  0.88480600  1
  C  260  1  0.76861100  0.33741900  0.90988000  1
  C  265  1  0.68248900  0.34334300  0.93476100  1
  C  266  1  0.78334700  0.33597700  0.94135900  1
  C  275  1  0.67396900  0.24380800  0.64118700  1
  C  276  1  0.67548800  0.27619400  0.63104000  1
  C  277  1  0.65120600  0.27661800  0.60856700  1
  C  278  1  0.62481900  0.24331100  0.59479500  1
  C  279  1  0.62379100  0.21098600  0.60402200  1
  C  280  1  0.64747600  0.21119400  0.62703600  1
  C  283  1  0.60014000  0.24120400  0.57111100  1
  C  284  1  0.61445300  0.25548500  0.54120200  1
  C  285  1  0.59208100  0.25545900  0.51704200  1
  C  286  1  0.55449000  0.24040500  0.52173900  1
  C  287  1  0.54010500  0.22558400  0.55150200  1
  C  288  1  0.56228100  0.22617300  0.57657500  1
  C  293  1  0.65434600  0.31230600  0.60137300  1
  C  294  1  0.54612300  0.21148200  0.60806800  1
  C  303  1  0.56344900  0.32072500  0.30781500  1
  C  304  1  0.59434900  0.31927800  0.29766800  1
  C  305  1  0.61902800  0.34360500  0.27521400  1
  C  306  1  0.61203300  0.36995100  0.26146500  1
  C  307  1  0.58073100  0.37094700  0.27072900  1
  C  308  1  0.55728900  0.34722900  0.29373900  1
  C  311  1  0.63456800  0.39462700  0.23777600  1
  C  312  1  0.63454500  0.38030000  0.20787500  1
  C  313  1  0.65694200  0.40265700  0.18373100  1
  C  314  1  0.67954500  0.44022700  0.18846600  1
  C  315  1  0.67907800  0.45462700  0.21821000  1
  C  316  1  0.65741700  0.43247600  0.24325700  1
  C  321  1  0.65159200  0.34050700  0.26799600  1
  C  322  1  0.65885000  0.44864600  0.27473800  1
  C  331  1  0.24118700  0.56594000  0.47452000  1
  C  332  1  0.27358800  0.59680300  0.46439400  1
  C  333  1  0.27403900  0.62152200  0.44191800  1
  C  334  1  0.24074700  0.61460500  0.42811400  1
  C  335  1  0.20841100  0.58330300  0.43731500  1
  C  336  1  0.20859000  0.55982100  0.46033600  1
  C  339  1  0.23866800  0.63719200  0.40442900  1
  C  340  1  0.25299700  0.63718900  0.37453500  1
  C  341  1  0.25299600  0.65955000  0.35037500  1
  C  342  1  0.23791300  0.68206200  0.35506000  1
  C  343  1  0.22304700  0.68159700  0.38480700  1
  C  344  1  0.22361600  0.66000500  0.40988200  1
  C  349  1  0.30973300  0.65407600  0.43475700  1
  C  350  1  0.20888600  0.66145000  0.44136300  1
  C  359  1  0.31824300  0.75357300  0.14118800  1
  C  360  1  0.31674400  0.72118900  0.13105600  1
  C  361  1  0.34102900  0.72076500  0.10858600  1
  C  362  1  0.36739500  0.75407000  0.09479800  1
  C  363  1  0.36841400  0.78639400  0.10401500  1
  C  364  1  0.34473700  0.78618600  0.12703600  1
  C  367  1  0.39207500  0.75617700  0.07111300  1
  C  368  1  0.37775700  0.74187800  0.04121000  1
  C  369  1  0.40013600  0.74194400  0.01703700  1
  C  370  1  0.43772800  0.75700700  0.02173000  1
  C  371  1  0.45211500  0.77183200  0.05149100  1
  C  372  1  0.42994200  0.77124100  0.07656600  1
  C  377  1  0.33790500  0.68508200  0.10140800  1
  C  378  1  0.44610400  0.78595200  0.10805400  1
  C  387  1  0.42876700  0.67666800  0.80780900  1
  C  388  1  0.39786700  0.67811300  0.79766700  1
  C  389  1  0.37318800  0.65378900  0.77521000  1
  C  390  1  0.38018900  0.62744900  0.76145600  1
  C  391  1  0.41150300  0.62646700  0.77070500  1
  C  392  1  0.43494900  0.65019000  0.79371200  1
  C  395  1  0.35765900  0.60277800  0.73776200  1
  C  396  1  0.35767600  0.61711100  0.70786500  1
  C  397  1  0.33525700  0.59476200  0.68372800  1
  C  398  1  0.31268000  0.55718700  0.68844900  1
  C  399  1  0.31316300  0.54277800  0.71818800  1
  C  400  1  0.33481300  0.56492600  0.74324000  1
  C  405  1  0.34062000  0.65688000  0.76800000  1
  C  406  1  0.33333333  0.54869933  0.77471700  1
  C  415  1  0.69526800  0.08882100  0.79660500  1
  C  416  1  0.69007900  0.08328200  0.82928400  1
  C  417  1  0.67247800  0.04809800  0.84266400  1
  C  418  1  0.66108600  0.01747200  0.82263000  1
  C  419  1  0.66628500  0.02310900  0.78990800  1
  C  420  1  0.68271500  0.05815900  0.77706600  1
  C  423  1  0.64358800  0.98099900  0.83391400  1
  C  424  1  0.60582200  0.95939500  0.82951700  1
  C  425  1  0.58673700  0.92362000  0.84067900  1
  C  426  1  0.60426800  0.90792100  0.85725100  1
  C  427  1  0.64232000  0.92977400  0.86100500  1
  C  428  1  0.66247800  0.96574100  0.84938700  1
  C  433  1  0.66622100  0.04546400  0.87720400  1
  C  434  1  0.70288400  0.98676400  0.85221700  1
  C  443  1  0.39031300  0.30299500  0.46304800  1
  C  444  1  0.38764500  0.30568000  0.49584900  1
  C  445  1  0.37043800  0.32357400  0.50937900  1
  C  446  1  0.35356100  0.33757400  0.48929200  1
  C  447  1  0.35675100  0.33532700  0.45645400  1
  C  448  1  0.37523800  0.31879700  0.44355500  1
  C  451  1  0.33401100  0.35447800  0.50065000  1
  C  452  1  0.34973200  0.39227000  0.49669300  1
  C  453  1  0.33231500  0.41070500  0.50768700  1
  C  454  1  0.29881300  0.39252300  0.52380200  1
  C  455  1  0.28297500  0.35444800  0.52700400  1
  C  456  1  0.29941500  0.33489400  0.51534000  1
  C  461  1  0.37217400  0.32753500  0.54417900  1
  C  462  1  0.27998200  0.29438500  0.51702100  1
  C  471  1  0.90615000  0.60784000  0.12996900  1
  C  472  1  0.91166100  0.60815700  0.16264800  1
  C  473  1  0.94683900  0.62572000  0.17604000  1
  C  474  1  0.97746400  0.64494900  0.15600700  1
  C  475  1  0.97185300  0.64454500  0.12328600  1
  C  476  1  0.93681400  0.62594900  0.11043600  1
  C  479  1  0.01392400  0.66388300  0.16729400  1
  C  480  1  0.03548800  0.64767900  0.16288700  1
  C  481  1  0.07127000  0.66435100  0.17401700  1
  C  482  1  0.08699700  0.69759300  0.19056100  1
  C  483  1  0.06517500  0.71382100  0.19435200  1
  C  484  1  0.02920400  0.69803700  0.18275300  1
  C  489  1  0.94946000  0.62208900  0.21058000  1
  C  490  1  0.00821000  0.71745100  0.18558500  1
  C  499  1  0.29697900  0.90859900  0.29658700  1
  C  500  1  0.30217500  0.91413900  0.32926400  1
  C  501  1  0.31976300  0.94932300  0.34264600  1
  C  502  1  0.33115300  0.97994800  0.32261100  1
  C  503  1  0.32596200  0.97431000  0.28988800  1
  C  504  1  0.30953800  0.93926000  0.27704700  1
  C  507  1  0.34865300  0.01641900  0.33389300  1
  C  508  1  0.38642100  0.03801800  0.32951000  1
  C  509  1  0.40550700  0.07379100  0.34067900  1
  C  510  1  0.38796700  0.08949700  0.35722400  1
  C  511  1  0.34991400  0.06765400  0.36096300  1
  C  512  1  0.32975900  0.03168400  0.34935000  1
  C  517  1  0.32600600  0.95195700  0.37718600  1
  C  518  1  0.28935100  0.01066200  0.35217200  1
  C  527  1  0.60190700  0.69442300  0.96306900  1
  C  528  1  0.60461500  0.69177200  0.99586700  1
  C  529  1  0.62181400  0.67386600  0.00939100  1
  C  530  1  0.63866400  0.65984200  0.98930000  1
  C  531  1  0.63545500  0.66207600  0.95646400  1
  C  532  1  0.61697600  0.67861800  0.94357100  1
  C  535  1  0.65821400  0.64293300  0.00065000  1
  C  536  1  0.64248000  0.60514100  0.99670800  1
  C  537  1  0.65989600  0.58670100  0.00769400  1
  C  538  1  0.69340800  0.60488200  0.02379500  1
  C  539  1  0.70925400  0.64295700  0.02699000  1
  C  540  1  0.69281900  0.66251700  0.01532600  1
  C  545  1  0.62009400  0.66991400  0.04419400  1
  C  546  1  0.71226200  0.70302700  0.01699100  1
  C  555  1  0.08607100  0.38955100  0.62995900  1
  C  556  1  0.08056000  0.38925700  0.66263800  1
  C  557  1  0.04538600  0.37168300  0.67603500  1
  C  558  1  0.01475700  0.35244200  0.65600700  1
  C  559  1  0.02036600  0.35284400  0.62328300  1
  C  560  1  0.05540400  0.37144700  0.61042800  1
  C  563  1  0.97829800  0.33350900  0.66729400  1
  C  564  1  0.95673200  0.34971100  0.66288700  1
  C  565  1  0.92095400  0.33304500  0.67402300  1
  C  566  1  0.90522800  0.29980100  0.69057000  1
  C  567  1  0.92705300  0.28357700  0.69436100  1
  C  568  1  0.96302300  0.29935900  0.68276200  1
  C  573  1  0.04276600  0.37532000  0.71057500  1
  C  574  1  0.98401900  0.27995000  0.68560100  1
  O  267  1  0.79399700  0.30923800  0.94555400  1
  O  271  1  0.66041000  0.35439900  0.91827100  1
  O  295  1  0.50874100  0.20084800  0.61227800  1
  O  299  1  0.68749000  0.33437600  0.58489200  1
  O  323  1  0.68558800  0.48603300  0.27894500  1
  O  327  1  0.64052600  0.30735600  0.25152900  1
  O  351  1  0.19823400  0.68818700  0.44555900  1
  O  355  1  0.33181100  0.64301800  0.41826600  1
  O  379  1  0.48349200  0.79660800  0.11225700  1
  O  383  1  0.30475800  0.66299000  0.08493600  1
  O  407  1  0.30665500  0.51136100  0.77891800  1
  O  411  1  0.35167600  0.69003200  0.75154000  1
  O  435  1  0.71984500  0.96911400  0.86744300  1
  O  439  1  0.64295100  0.05953700  0.88497500  1
  O  463  1  0.24490200  0.27680100  0.53142100  1
  O  467  1  0.40919000  0.34896100  0.55371800  1
  O  491  1  0.02588900  0.75207100  0.20079600  1
  O  495  1  0.93536200  0.58474700  0.21835500  1
  O  519  1  0.27238900  0.02831900  0.36738600  1
  O  523  1  0.34928200  0.93789600  0.38496900  1
  O  547  1  0.74735300  0.72061100  0.03137200  1
  O  551  1  0.58308400  0.64850700  0.05374600  1
  O  575  1  0.96634200  0.24533500  0.70081900  1
  O  579  1  0.05685500  0.41266100  0.71834600  1
