# generated using pymatgen
data_KNiH35C52(NO3)4
_symmetry_space_group_name_H-M   'P 1'
_cell_length_a   12.65663000
_cell_length_b   14.59359000
_cell_length_c   17.87138677
_cell_angle_alpha   93.81404372
_cell_angle_beta   109.49634541
_cell_angle_gamma   94.31803000
_symmetry_Int_Tables_number   1
_chemical_formula_structural   KNiH35C52(NO3)4
_chemical_formula_sum   'K2 Ni2 H70 C104 N8 O24'
_cell_volume   3088.06391660
_cell_formula_units_Z   2
loop_
 _symmetry_equiv_pos_site_id
 _symmetry_equiv_pos_as_xyz
  1  'x, y, z'
loop_
 _atom_site_type_symbol
 _atom_site_label
 _atom_site_symmetry_multiplicity
 _atom_site_fract_x
 _atom_site_fract_y
 _atom_site_fract_z
 _atom_site_occupancy
  K  K0  1  0.65183000  0.50811000  0.08647000  1
  K  K1  1  0.34818000  0.49188000  0.91354000  1
  Ni  Ni2  1  0.30788000  0.02339000  0.51679000  1
  Ni  Ni3  1  0.69213000  0.97661000  0.48322000  1
  H  H4  1  0.31249000  0.37961000  0.56054000  1
  H  H5  1  0.51242000  0.34225000  0.65932000  1
  H  H6  1  0.73435000  0.04565000  0.68128000  1
  H  H7  1  0.66871000  0.86246000  0.64310000  1
  H  H8  1  0.26540000  0.66931000  0.53513000  1
  H  H9  1  0.06507000  0.70555000  0.43286000  1
  H  H10  1  0.92161000  0.99882000  0.28931000  1
  H  H11  1  0.99243000  0.18212000  0.31892000  1
  H  H12  1  0.68486000  0.28856000  0.60694000  1
  H  H13  1  0.85420000  0.38198000  0.70428000  1
  H  H14  1  0.81062000  0.23224000  0.89296000  1
  H  H15  1  0.64501000  0.13894000  0.79626000  1
  H  H16  1  0.98559000  0.28631000  0.94425000  1
  H  H17  1  0.93081000  0.38979000  0.96742000  1
  H  H18  1  0.22995000  0.44521000  0.05962000  1
  H  H19  1  0.54016000  0.80687000  0.72815000  1
  H  H20  1  0.61037000  0.66823000  0.79100000  1
  H  H21  1  0.49932000  0.51335000  0.56013000  1
  H  H22  1  0.43502000  0.65578000  0.49634000  1
  H  H23  1  0.72801000  0.55529000  0.80618000  1
  H  H24  1  0.69083000  0.43445000  0.79645000  1
  H  H25  1  0.04523000  0.76290000  0.28132000  1
  H  H26  1  0.87140000  0.67593000  0.18501000  1
  H  H27  1  0.67449000  0.81279000  0.30650000  1
  H  H28  1  0.84742000  0.89775000  0.40119000  1
  H  H29  1  0.56569000  0.80038000  0.17487000  1
  H  H30  1  0.52916000  0.69974000  0.21548000  1
  H  H31  1  0.32705000  0.68951000  0.02580000  1
  H  H32  1  0.27424000  0.37981000  0.41297000  1
  H  H33  1  0.18160000  0.52208000  0.37802000  1
  H  H34  1  0.88101000  0.39521000  0.40819000  1
  H  H35  1  0.97487000  0.25637000  0.44551000  1
  H  H36  1  0.86641000  0.63797000  0.37661000  1
  H  H37  1  0.86388000  0.54061000  0.43029000  1
  H  H38  1  0.61068000  0.50583000  0.26333000  1
  H  H39  1  0.68751000  0.62039000  0.43946000  1
  H  H40  1  0.48758000  0.65775000  0.34068000  1
  H  H41  1  0.26565000  0.95435000  0.31872000  1
  H  H42  1  0.33130000  0.13754000  0.35691000  1
  H  H43  1  0.73461000  0.33069000  0.46488000  1
  H  H44  1  0.93494000  0.29445000  0.56715000  1
  H  H45  1  0.07839000  0.00117000  0.71069000  1
  H  H46  1  0.00757000  0.81788000  0.68108000  1
  H  H47  1  0.31513000  0.71144000  0.39306000  1
  H  H48  1  0.14581000  0.61802000  0.29573000  1
  H  H49  1  0.18937000  0.76776000  0.10704000  1
  H  H50  1  0.35499000  0.86106000  0.20374000  1
  H  H51  1  0.01441000  0.71369000  0.05575000  1
  H  H52  1  0.06920000  0.61021000  0.03259000  1
  H  H53  1  0.77005000  0.55479000  0.94038000  1
  H  H54  1  0.45985000  0.19313000  0.27186000  1
  H  H55  1  0.38963000  0.33177000  0.20900000  1
  H  H56  1  0.50067000  0.48664000  0.43987000  1
  H  H57  1  0.56497000  0.34422000  0.50366000  1
  H  H58  1  0.27199000  0.44471000  0.19382000  1
  H  H59  1  0.30918000  0.56555000  0.20356000  1
  H  H60  1  0.95477000  0.23709000  0.71868000  1
  H  H61  1  0.12860000  0.32407000  0.81499000  1
  H  H62  1  0.32551000  0.18721000  0.69350000  1
  H  H63  1  0.15258000  0.10225000  0.59881000  1
  H  H64  1  0.43431000  0.19962000  0.82513000  1
  H  H65  1  0.47085000  0.30025000  0.78453000  1
  H  H66  1  0.67295000  0.31049000  0.97420000  1
  H  H67  1  0.72577000  0.62018000  0.58704000  1
  H  H68  1  0.81840000  0.47792000  0.62198000  1
  H  H69  1  0.11899000  0.60479000  0.59181000  1
  H  H70  1  0.02513000  0.74363000  0.55449000  1
  H  H71  1  0.13360000  0.36203000  0.62340000  1
  H  H72  1  0.13612000  0.45938000  0.56971000  1
  H  H73  1  0.38933000  0.49417000  0.73668000  1
  C  C74  1  0.29026000  0.22871000  0.51942000  1
  C  C75  1  0.34646000  0.31368000  0.56543000  1
  C  C76  1  0.44770000  0.29433000  0.61641000  1
  C  C77  1  0.45383000  0.19719000  0.60176000  1
  C  C78  1  0.54897000  0.15295000  0.63812000  1
  C  C79  1  0.55027000  0.05830000  0.62361000  1
  C  C80  1  0.65004000  0.01145000  0.65244000  1
  C  C81  1  0.61695000  0.91929000  0.63326000  1
  C  C82  1  0.49675000  0.90965000  0.59348000  1
  C  C83  1  0.43025000  0.82515000  0.57476000  1
  C  C84  1  0.31516000  0.81908000  0.53142000  1
  C  C85  1  0.24131000  0.73448000  0.51269000  1
  C  C86  1  0.13977000  0.75312000  0.46165000  1
  C  C87  1  0.14996000  0.84965000  0.45101000  1
  C  C88  1  0.06406000  0.89325000  0.40002000  1
  C  C89  1  0.07553000  0.98791000  0.39436000  1
  C  C90  1  0.99489000  0.03382000  0.33585000  1
  C  C91  1  0.03043000  0.12581000  0.35080000  1
  C  C92  1  0.13223000  0.13668000  0.41918000  1
  C  C93  1  0.18702000  0.22229000  0.45725000  1
  C  C94  1  0.65116000  0.20805000  0.69499000  1
  C  C95  1  0.71086000  0.27764000  0.66978000  1
  C  C96  1  0.80502000  0.33007000  0.72338000  1
  C  C97  1  0.84167000  0.31463000  0.80433000  1
  C  C98  1  0.78435000  0.24527000  0.83068000  1
  C  C99  1  0.69012000  0.19250000  0.77570000  1
  C  C100  1  0.98081000  0.35972000  0.93381000  1
  C  C101  1  0.10050000  0.40726000  0.96437000  1
  C  C102  1  0.48021000  0.74162000  0.60802000  1
  C  C103  1  0.53266000  0.74304000  0.69086000  1
  C  C104  1  0.57236000  0.66442000  0.72658000  1
  C  C105  1  0.55857000  0.58152000  0.67872000  1
  C  C106  1  0.50839000  0.57874000  0.59575000  1
  C  C107  1  0.47096000  0.65810000  0.56093000  1
  C  C108  1  0.65630000  0.50152000  0.78983000  1
  C  C109  1  0.59108000  0.51145000  0.84784000  1
  C  C110  1  0.95897000  0.83781000  0.34704000  1
  C  C111  1  0.96378000  0.77364000  0.28637000  1
  C  C112  1  0.86664000  0.72561000  0.23170000  1
  C  C113  1  0.76176000  0.74218000  0.23702000  1
  C  C114  1  0.75458000  0.80276000  0.29879000  1
  C  C115  1  0.85341000  0.85048000  0.35327000  1
  C  C116  1  0.56211000  0.72435000  0.16960000  1
  C  C117  1  0.48003000  0.68778000  0.08809000  1
  C  C118  1  0.13214000  0.30721000  0.43308000  1
  C  C119  1  0.18872000  0.38364000  0.41320000  1
  C  C120  1  0.13665000  0.46358000  0.39288000  1
  C  C121  1  0.02525000  0.46917000  0.39083000  1
  C  C122  1  0.96722000  0.39349000  0.40943000  1
  C  C123  1  0.02076000  0.31402000  0.43023000  1
  C  C124  1  0.87256000  0.56307000  0.37490000  1
  C  C125  1  0.77524000  0.51826000  0.30227000  1
  C  C126  1  0.70975000  0.77129000  0.48059000  1
  C  C127  1  0.65354000  0.68632000  0.43457000  1
  C  C128  1  0.55231000  0.70567000  0.38360000  1
  C  C129  1  0.54618000  0.80281000  0.39825000  1
  C  C130  1  0.45103000  0.84705000  0.36188000  1
  C  C131  1  0.44973000  0.94170000  0.37639000  1
  C  C132  1  0.34997000  0.98855000  0.34757000  1
  C  C133  1  0.38305000  0.08071000  0.36674000  1
  C  C134  1  0.50326000  0.09035000  0.40653000  1
  C  C135  1  0.56976000  0.17484000  0.42525000  1
  C  C136  1  0.68484000  0.18092000  0.46858000  1
  C  C137  1  0.75869000  0.26552000  0.48731000  1
  C  C138  1  0.86024000  0.24688000  0.53836000  1
  C  C139  1  0.85005000  0.15034000  0.54900000  1
  C  C140  1  0.93595000  0.10675000  0.59999000  1
  C  C141  1  0.92447000  0.01208000  0.60564000  1
  C  C142  1  0.00511000  0.96618000  0.66415000  1
  C  C143  1  0.96957000  0.87419000  0.64920000  1
  C  C144  1  0.86777000  0.86332000  0.58082000  1
  C  C145  1  0.81298000  0.77771000  0.54275000  1
  C  C146  1  0.34884000  0.79195000  0.30501000  1
  C  C147  1  0.28914000  0.72236000  0.33022000  1
  C  C148  1  0.19498000  0.66992000  0.27662000  1
  C  C149  1  0.15833000  0.68537000  0.19567000  1
  C  C150  1  0.21566000  0.75473000  0.16933000  1
  C  C151  1  0.30988000  0.80750000  0.22431000  1
  C  C152  1  0.01919000  0.64028000  0.06619000  1
  C  C153  1  0.89951000  0.59273000  0.03564000  1
  C  C154  1  0.51978000  0.25838000  0.39198000  1
  C  C155  1  0.46734000  0.25695000  0.30914000  1
  C  C156  1  0.42764000  0.33558000  0.27342000  1
  C  C157  1  0.44143000  0.41848000  0.32128000  1
  C  C158  1  0.49161000  0.42126000  0.40425000  1
  C  C159  1  0.52904000  0.34190000  0.43907000  1
  C  C160  1  0.34371000  0.49848000  0.21018000  1
  C  C161  1  0.40893000  0.48854000  0.15217000  1
  C  C162  1  0.04103000  0.16218000  0.65296000  1
  C  C163  1  0.03623000  0.22636000  0.71364000  1
  C  C164  1  0.13336000  0.27439000  0.76830000  1
  C  C165  1  0.23824000  0.25782000  0.76298000  1
  C  C166  1  0.24543000  0.19723000  0.70122000  1
  C  C167  1  0.14659000  0.14952000  0.64673000  1
  C  C168  1  0.43789000  0.27565000  0.83040000  1
  C  C169  1  0.51998000  0.31222000  0.91192000  1
  C  C170  1  0.86786000  0.69279000  0.56692000  1
  C  C171  1  0.81128000  0.61636000  0.58680000  1
  C  C172  1  0.86336000  0.53642000  0.60713000  1
  C  C173  1  0.97475000  0.53083000  0.60917000  1
  C  C174  1  0.03278000  0.60651000  0.59057000  1
  C  C175  1  0.97925000  0.68598000  0.56978000  1
  C  C176  1  0.12745000  0.43693000  0.62511000  1
  C  C177  1  0.22477000  0.48174000  0.69774000  1
  N  N178  1  0.35471000  0.15594000  0.54404000  1
  N  N179  1  0.45659000  0.99577000  0.58373000  1
  N  N180  1  0.25733000  0.89093000  0.49577000  1
  N  N181  1  0.16263000  0.05104000  0.44391000  1
  N  N182  1  0.64529000  0.84406000  0.45596000  1
  N  N183  1  0.54342000  0.00423000  0.41628000  1
  N  N184  1  0.74267000  0.10907000  0.50423000  1
  N  N185  1  0.83738000  0.94896000  0.55610000  1
  O  O186  1  0.93516000  0.37111000  0.85123000  1
  O  O187  1  0.15019000  0.43105000  0.91913000  1
  O  O188  1  0.14353000  0.41746000  0.04326000  1
  O  O189  1  0.59088000  0.49909000  0.70733000  1
  O  O190  1  0.48475000  0.50457000  0.82280000  1
  O  O191  1  0.65232000  0.52300000  0.92187000  1
  O  O192  1  0.66900000  0.69424000  0.17759000  1
  O  O193  1  0.37795000  0.71810000  0.07762000  1
  O  O194  1  0.49883000  0.63814000  0.03720000  1
  O  O195  1  0.98128000  0.55110000  0.37056000  1
  O  O196  1  0.67749000  0.52311000  0.31499000  1
  O  O197  1  0.78603000  0.48595000  0.24042000  1
  O  O198  1  0.06484000  0.62889000  0.14877000  1
  O  O199  1  0.84981000  0.56894000  0.08087000  1
  O  O200  1  0.85647000  0.58254000  0.95674000  1
  O  O201  1  0.40913000  0.50091000  0.29268000  1
  O  O202  1  0.51526000  0.49543000  0.17721000  1
  O  O203  1  0.34768000  0.47700000  0.07813000  1
  O  O204  1  0.33100000  0.30575000  0.82242000  1
  O  O205  1  0.62206000  0.28190000  0.92239000  1
  O  O206  1  0.50117000  0.36186000  0.96280000  1
  O  O207  1  0.01872000  0.44890000  0.62944000  1
  O  O208  1  0.32251000  0.47689000  0.68501000  1
  O  O209  1  0.21398000  0.51404000  0.75959000  1
