# generated using pymatgen
data_GdH4C8NO7
_symmetry_space_group_name_H-M   'P 1'
_cell_length_a   9.95740000
_cell_length_b   17.83978000
_cell_length_c   20.50323000
_cell_angle_alpha   89.98741000
_cell_angle_beta   90.02368000
_cell_angle_gamma   89.60291000
_symmetry_Int_Tables_number   1
_chemical_formula_structural   GdH4C8NO7
_chemical_formula_sum   'Gd8 H32 C64 N8 O56'
_cell_volume   3642.06131911
_cell_formula_units_Z   8
loop_
 _symmetry_equiv_pos_site_id
 _symmetry_equiv_pos_as_xyz
  1  'x, y, z'
loop_
 _atom_site_type_symbol
 _atom_site_label
 _atom_site_symmetry_multiplicity
 _atom_site_fract_x
 _atom_site_fract_y
 _atom_site_fract_z
 _atom_site_occupancy
  Gd  Gd0  1  0.17783000  0.49448000  0.24180000  1
  Gd  Gd1  1  0.25047000  0.99795000  0.49468000  1
  Gd  Gd2  1  0.32206000  0.50552000  0.74178000  1
  Gd  Gd3  1  0.24833000  0.00188000  0.99383000  1
  Gd  Gd4  1  0.82217000  0.50553000  0.75820000  1
  Gd  Gd5  1  0.74953000  0.00206000  0.50532000  1
  Gd  Gd6  1  0.67794000  0.49448000  0.25822000  1
  Gd  Gd7  1  0.75167000  0.99812000  0.00617000  1
  H  H8  1  0.15993000  0.68256000  0.32964000  1
  H  H9  1  0.18714000  0.80168000  0.39298000  1
  H  H10  1  0.75759000  0.82835000  0.40097000  1
  H  H11  1  0.73047000  0.70809000  0.33902000  1
  H  H12  1  0.64828000  0.30138000  0.31991000  1
  H  H13  1  0.23752000  0.32105000  0.38332000  1
  H  H14  1  0.26775000  0.20712000  0.45329000  1
  H  H15  1  0.67881000  0.18829000  0.39031000  1
  H  H16  1  0.34009000  0.31750000  0.82997000  1
  H  H17  1  0.31277000  0.19793000  0.89257000  1
  H  H18  1  0.74236000  0.17117000  0.90069000  1
  H  H19  1  0.76962000  0.29181000  0.83933000  1
  H  H20  1  0.85197000  0.69847000  0.81982000  1
  H  H21  1  0.26261000  0.67895000  0.88357000  1
  H  H22  1  0.23176000  0.79260000  0.95381000  1
  H  H23  1  0.82109000  0.81144000  0.89050000  1
  H  H24  1  0.84007000  0.31745000  0.67036000  1
  H  H25  1  0.81286000  0.19833000  0.60702000  1
  H  H26  1  0.24241000  0.17166000  0.59903000  1
  H  H27  1  0.26953000  0.29192000  0.66099000  1
  H  H28  1  0.35172000  0.69863000  0.68009000  1
  H  H29  1  0.76248000  0.67896000  0.61668000  1
  H  H30  1  0.73225000  0.79289000  0.54671000  1
  H  H31  1  0.32119000  0.81172000  0.60969000  1
  H  H32  1  0.65991000  0.68251000  0.17003000  1
  H  H33  1  0.68723000  0.80208000  0.10743000  1
  H  H34  1  0.25764000  0.82883000  0.09931000  1
  H  H35  1  0.23038000  0.70820000  0.16067000  1
  H  H36  1  0.14802000  0.30154000  0.18018000  1
  H  H37  1  0.73739000  0.32106000  0.11643000  1
  H  H38  1  0.76824000  0.20740000  0.04619000  1
  H  H39  1  0.17891000  0.18856000  0.10950000  1
  C  C40  1  0.92824000  0.61634000  0.29525000  1
  C  C41  1  0.94351000  0.68845000  0.33094000  1
  C  C42  1  0.07279000  0.71450000  0.34587000  1
  C  C43  1  0.08804000  0.78061000  0.38085000  1
  C  C44  1  0.97423000  0.82165000  0.40057000  1
  C  C45  1  0.84484000  0.79610000  0.38516000  1
  C  C46  1  0.82963000  0.72947000  0.35063000  1
  C  C47  1  0.99290000  0.89253000  0.43767000  1
  C  C48  1  0.42335000  0.38398000  0.30376000  1
  C  C49  1  0.56577000  0.28046000  0.34923000  1
  C  C50  1  0.33347000  0.29166000  0.38518000  1
  C  C51  1  0.49240000  0.12186000  0.46584000  1
  C  C52  1  0.35044000  0.22851000  0.42431000  1
  C  C53  1  0.44087000  0.31760000  0.34709000  1
  C  C54  1  0.58287000  0.21763000  0.38854000  1
  C  C55  1  0.47504000  0.19102000  0.42594000  1
  C  C56  1  0.57167000  0.38361000  0.79533000  1
  C  C57  1  0.55651000  0.31147000  0.83111000  1
  C  C58  1  0.42724000  0.28535000  0.84595000  1
  C  C59  1  0.41195000  0.21898000  0.88061000  1
  C  C60  1  0.52569000  0.17774000  0.90021000  1
  C  C61  1  0.65506000  0.20347000  0.88496000  1
  C  C62  1  0.67038000  0.27032000  0.85071000  1
  C  C63  1  0.50742000  0.10685000  0.93743000  1
  C  C64  1  0.07680000  0.61601000  0.80375000  1
  C  C65  1  0.93434000  0.71938000  0.84927000  1
  C  C66  1  0.16657000  0.70821000  0.88538000  1
  C  C67  1  0.00740000  0.87780000  0.96610000  1
  C  C68  1  0.14940000  0.77126000  0.92457000  1
  C  C69  1  0.05932000  0.68234000  0.84712000  1
  C  C70  1  0.91706000  0.78213000  0.88863000  1
  C  C71  1  0.02483000  0.80874000  0.92611000  1
  C  C72  1  0.07175000  0.38367000  0.70475000  1
  C  C73  1  0.05649000  0.31156000  0.66906000  1
  C  C74  1  0.92721000  0.28550000  0.65413000  1
  C  C75  1  0.91196000  0.21939000  0.61915000  1
  C  C76  1  0.02577000  0.17836000  0.59943000  1
  C  C77  1  0.15516000  0.20390000  0.61484000  1
  C  C78  1  0.17037000  0.27053000  0.64937000  1
  C  C79  1  0.00710000  0.10747000  0.56233000  1
  C  C80  1  0.57665000  0.61603000  0.69624000  1
  C  C81  1  0.43423000  0.71955000  0.65077000  1
  C  C82  1  0.66653000  0.70835000  0.61482000  1
  C  C83  1  0.50760000  0.87814000  0.53416000  1
  C  C84  1  0.64956000  0.77149000  0.57569000  1
  C  C85  1  0.55913000  0.68241000  0.65291000  1
  C  C86  1  0.41713000  0.78237000  0.61146000  1
  C  C87  1  0.52496000  0.80899000  0.57406000  1
  C  C88  1  0.42833000  0.61640000  0.20467000  1
  C  C89  1  0.44349000  0.68853000  0.16889000  1
  C  C90  1  0.57276000  0.71466000  0.15405000  1
  C  C91  1  0.58805000  0.78103000  0.11939000  1
  C  C92  1  0.47431000  0.82226000  0.09979000  1
  C  C93  1  0.34493000  0.79654000  0.11504000  1
  C  C94  1  0.32962000  0.72969000  0.14929000  1
  C  C95  1  0.49258000  0.89315000  0.06257000  1
  C  C96  1  0.92320000  0.38399000  0.19625000  1
  C  C97  1  0.06566000  0.28062000  0.15073000  1
  C  C98  1  0.83342000  0.29179000  0.11462000  1
  C  C99  1  0.99260000  0.12221000  0.03390000  1
  C  C100  1  0.85060000  0.22875000  0.07543000  1
  C  C101  1  0.94068000  0.31767000  0.15288000  1
  C  C102  1  0.08294000  0.21787000  0.11137000  1
  C  C103  1  0.97517000  0.19127000  0.07389000  1
  N  N104  1  0.19393000  0.47805000  0.10501000  1
  N  N105  1  0.26008000  0.02856000  0.36005000  1
  N  N106  1  0.30610000  0.52192000  0.60499000  1
  N  N107  1  0.23180000  0.97048000  0.85922000  1
  N  N108  1  0.80607000  0.52196000  0.89499000  1
  N  N109  1  0.73991000  0.97144000  0.63995000  1
  N  N110  1  0.69390000  0.47809000  0.39502000  1
  N  N111  1  0.76820000  0.02952000  0.14078000  1
  O  O112  1  0.03310000  0.57507000  0.28883000  1
  O  O113  1  0.10677000  0.52242000  0.13303000  1
  O  O114  1  0.27427000  0.44302000  0.14540000  1
  O  O115  1  0.52041000  0.40219000  0.26640000  1
  O  O116  1  0.31173000  0.42016000  0.30509000  1
  O  O117  1  0.81352000  0.59833000  0.27289000  1
  O  O118  1  0.10655000  0.90469000  0.46392000  1
  O  O119  1  0.17279000  0.06052000  0.39863000  1
  O  O120  1  0.34113000  0.98113000  0.38883000  1
  O  O121  1  0.39389000  0.09841000  0.49989000  1
  O  O122  1  0.60612000  0.08789000  0.46389000  1
  O  O123  1  0.89407000  0.93875000  0.44153000  1
  O  O124  1  0.20007000  0.46975000  0.04610000  1
  O  O125  1  0.26626000  0.04189000  0.30184000  1
  O  O126  1  0.46684000  0.42492000  0.78891000  1
  O  O127  1  0.39337000  0.47760000  0.63301000  1
  O  O128  1  0.22563000  0.55690000  0.64534000  1
  O  O129  1  0.97968000  0.59779000  0.76640000  1
  O  O130  1  0.18841000  0.57984000  0.80506000  1
  O  O131  1  0.68637000  0.40158000  0.77294000  1
  O  O132  1  0.39375000  0.09467000  0.96376000  1
  O  O133  1  0.32251000  0.93985000  0.89675000  1
  O  O134  1  0.14743000  0.01512000  0.88915000  1
  O  O135  1  0.10586000  0.90138000  0.00016000  1
  O  O136  1  0.89358000  0.91165000  0.96410000  1
  O  O137  1  0.60664000  0.06100000  0.94167000  1
  O  O138  1  0.29995000  0.53024000  0.54608000  1
  O  O139  1  0.22597000  0.95827000  0.80084000  1
  O  O140  1  0.96689000  0.42494000  0.71118000  1
  O  O141  1  0.89323000  0.47759000  0.86697000  1
  O  O142  1  0.72573000  0.55698000  0.85460000  1
  O  O143  1  0.47959000  0.59782000  0.73360000  1
  O  O144  1  0.68827000  0.57985000  0.69491000  1
  O  O145  1  0.18648000  0.40167000  0.72711000  1
  O  O146  1  0.89345000  0.09532000  0.53608000  1
  O  O147  1  0.82721000  0.93948000  0.60137000  1
  O  O148  1  0.65887000  0.01887000  0.61117000  1
  O  O149  1  0.60611000  0.90159000  0.50011000  1
  O  O150  1  0.39388000  0.91211000  0.53611000  1
  O  O151  1  0.10593000  0.06126000  0.55847000  1
  O  O152  1  0.79993000  0.53025000  0.95390000  1
  O  O153  1  0.73374000  0.95812000  0.69816000  1
  O  O154  1  0.53316000  0.57509000  0.21110000  1
  O  O155  1  0.60663000  0.52241000  0.36699000  1
  O  O156  1  0.77437000  0.44311000  0.35466000  1
  O  O157  1  0.02032000  0.40222000  0.23360000  1
  O  O158  1  0.81159000  0.42017000  0.19494000  1
  O  O159  1  0.31363000  0.59843000  0.22706000  1
  O  O160  1  0.60625000  0.90534000  0.03624000  1
  O  O161  1  0.67749000  0.06015000  0.10325000  1
  O  O162  1  0.85257000  0.98489000  0.11085000  1
  O  O163  1  0.89414000  0.09863000  0.99984000  1
  O  O164  1  0.10642000  0.08836000  0.03590000  1
  O  O165  1  0.39336000  0.93900000  0.05833000  1
  O  O166  1  0.70004000  0.46977000  0.45392000  1
  O  O167  1  0.77403000  0.04174000  0.19916000  1
