# generated using pymatgen
data_H26C29N2
_symmetry_space_group_name_H-M   'P 1'
_cell_length_a   10.00433333
_cell_length_b   44.97260000
_cell_length_c   44.97260000
_cell_angle_alpha   120.00000000
_cell_angle_beta   90.00000000
_cell_angle_gamma   90.00000000
_symmetry_Int_Tables_number   1
_chemical_formula_structural   H26C29N2
_chemical_formula_sum   'H78 C87 N6'
_cell_volume   17523.25486334
_cell_formula_units_Z   3
loop_
 _symmetry_equiv_pos_site_id
 _symmetry_equiv_pos_as_xyz
  1  'x, y, z'
loop_
 _atom_site_type_symbol
 _atom_site_label
 _atom_site_symmetry_multiplicity
 _atom_site_fract_x
 _atom_site_fract_y
 _atom_site_fract_z
 _atom_site_occupancy
  C  1  1  0.97260300  0.86794500  0.43746000  1
  C  2  1  0.03230200  0.84893700  0.45119300  1
  C  3  1  0.05818200  0.81365200  0.43004300  1
  C  4  1  0.02494500  0.79683600  0.39477400  1
  C  5  1  0.96713200  0.81599700  0.38098000  1
  C  6  1  0.94029300  0.85119500  0.40225100  1
  C  7  1  0.04474200  0.76192700  0.37390900  1
  C  8  1  0.97019400  0.73857100  0.37671200  1
  C  9  1  0.98142900  0.70330700  0.35513500  1
  C  10  1  0.98030600  0.68838200  0.31899400  1
  C  11  1  0.98118500  0.65236800  0.29713500  1
  C  12  1  0.98017100  0.63114900  0.31205500  1
  C  13  1  0.98120100  0.64530400  0.34806800  1
  C  14  1  0.98036600  0.68144400  0.36928700  1
  C  15  1  0.96994100  0.62373700  0.36176600  1
  C  16  1  0.04455800  0.62652100  0.38790700  1
  C  17  1  0.02482100  0.60565100  0.40194600  1
  C  18  1  0.96693200  0.61943200  0.43488900  1
  C  19  1  0.05807600  0.57038400  0.38348600  1
  C  20  1  0.03231700  0.54923000  0.39762300  1
  C  21  1  0.97256500  0.56295400  0.43036000  1
  C  22  1  0.94023400  0.59816000  0.44882300  1
  C  23  1  0.96992400  0.63867400  0.26187100  1
  C  24  1  0.04447400  0.61251700  0.23851000  1
  C  25  1  0.02473100  0.59848300  0.20360200  1
  C  26  1  0.05799100  0.61694400  0.18679800  1
  C  27  1  0.96682100  0.56554200  0.18443900  1
  C  28  1  0.94010700  0.55161300  0.14923200  1
  C  29  1  0.97244000  0.57007800  0.13249300  1
  C  30  1  0.03218700  0.60281600  0.15151000  1
  C  58  1  0.03021800  0.13241900  0.56392400  1
  C  59  1  0.97231900  0.15153000  0.55007500  1
  C  60  1  0.94928800  0.18697600  0.57104000  1
  C  61  1  0.98356300  0.20386300  0.60624400  1
  C  62  1  0.03999500  0.18464000  0.62013500  1
  C  63  1  0.06401900  0.14927000  0.59904400  1
  C  64  1  0.96492200  0.23883000  0.62701800  1
  C  65  1  0.03935000  0.26201100  0.62388900  1
  C  66  1  0.02852900  0.29731600  0.64528800  1
  C  67  1  0.02960900  0.31247100  0.68145300  1
  C  68  1  0.02861000  0.34851400  0.70312600  1
  C  69  1  0.02959400  0.36952600  0.68797100  1
  C  70  1  0.02858400  0.35515500  0.65193000  1
  C  71  1  0.02954300  0.31898700  0.63091600  1
  C  72  1  0.03941900  0.37654600  0.63801400  1
  C  73  1  0.96494700  0.37343000  0.61171700  1
  C  74  1  0.98360000  0.39419900  0.59752000  1
  C  75  1  0.04002500  0.38030400  0.56440500  1
  C  76  1  0.94934000  0.42940300  0.61583400  1
  C  77  1  0.97236300  0.45036400  0.60134800  1
  C  78  1  0.03025400  0.43651000  0.56838600  1
  C  79  1  0.06405400  0.40139000  0.55012200  1
  C  80  1  0.03946000  0.36242600  0.73843100  1
  C  81  1  0.96501800  0.38873000  0.76161500  1
  C  82  1  0.98369400  0.40292200  0.79658100  1
  C  83  1  0.94939600  0.38460900  0.81347200  1
  C  84  1  0.04022400  0.43602300  0.81579700  1
  C  85  1  0.06418400  0.45031100  0.85117000  1
  C  86  1  0.03036200  0.43205000  0.86802500  1
  C  87  1  0.97245400  0.39909000  0.84891500  1
  C  115  1  0.01992400  0.52274000  0.03615600  1
  C  116  1  0.88867600  0.51166400  0.02397800  1
  C  117  1  0.85994400  0.49079500  0.98853300  1
  C  118  1  0.96645600  0.48014300  0.96418100  1
  C  119  1  0.09764400  0.49146300  0.97655600  1
  C  121  1  0.12380400  0.51221800  0.01177200  1
  C  124  1  0.71847400  0.48063500  0.97783900  1
  C  128  1  0.05436700  0.54443100  0.07325200  1
  C  131  1  0.94001700  0.45810200  0.92648800  1
  C  134  1  0.01996700  0.51395300  0.47770000  1
  C  135  1  0.88871000  0.51286000  0.48877700  1
  C  136  1  0.85995300  0.49828400  0.50964500  1
  C  137  1  0.96644600  0.48457800  0.52029500  1
  C  138  1  0.09764000  0.48563100  0.50897900  1
  C  140  1  0.12382800  0.50008700  0.48822000  1
  C  143  1  0.71847500  0.49775600  0.51980100  1
  C  147  1  0.05443300  0.52935600  0.45600900  1
  C  150  1  0.93997800  0.46893000  0.54233900  1
  C  153  1  0.01994800  0.96428800  0.48646700  1
  C  154  1  0.88869100  0.97645700  0.48755400  1
  C  155  1  0.85993200  0.01190100  0.50213700  1
  C  156  1  0.96641800  0.03626000  0.51584600  1
  C  157  1  0.09761800  0.02389100  0.51479200  1
  C  159  1  0.12380800  0.98867700  0.50033700  1
  C  162  1  0.71845400  0.02258500  0.50266400  1
  C  166  1  0.05442800  0.92719300  0.47106000  1
  C  169  1  0.93994700  0.07395200  0.53150000  1
  H  31  1  0.05476200  0.86060900  0.47677600  1
  H  32  1  0.09965000  0.80028600  0.44066300  1
  H  33  1  0.89621700  0.86455600  0.39197300  1
  H  34  1  0.94109800  0.80435700  0.35557300  1
  H  35  1  0.97543300  0.69200300  0.39543200  1
  H  36  1  0.97540800  0.70396600  0.30843300  1
  H  37  1  0.97518700  0.60500300  0.29647200  1
  H  38  1  0.09950400  0.64092600  0.20016800  1
  H  39  1  0.94099700  0.64484400  0.44867500  1
  H  40  1  0.89613800  0.60843200  0.47245900  1
  H  41  1  0.05469800  0.52364500  0.38370000  1
  H  42  1  0.09956000  0.55977100  0.35950100  1
  H  43  1  0.05464300  0.61673300  0.13984400  1
  H  44  1  0.89603600  0.52797300  0.13586500  1
  H  45  1  0.94089200  0.55175500  0.19606300  1
  H  46  1  0.11209800  0.64516600  0.39896500  1
  H  47  1  0.90177600  0.60511300  0.35133500  1
  H  48  1  0.11206800  0.75435100  0.35522100  1
  H  49  1  0.90215500  0.74676200  0.39536300  1
  H  50  1  0.11193900  0.60144500  0.24609400  1
  H  51  1  0.90182500  0.64912100  0.25368300  1
  H  53  1  0.88024900  0.52245600  0.42807000  1
  H  55  1  0.88022500  0.90615000  0.47794700  1
  H  57  1  0.88016500  0.57236800  0.09428000  1
  H  88  1  0.94859000  0.13977000  0.52456400  1
  H  89  1  0.90849700  0.20036300  0.56036200  1
  H  90  1  0.10649600  0.13582000  0.60942600  1
  H  91  1  0.06645800  0.19631000  0.64551400  1
  H  92  1  0.03437100  0.30826300  0.60475000  1
  H  93  1  0.03440600  0.29703100  0.69218000  1
  H  94  1  0.03446100  0.39569100  0.70340900  1
  H  95  1  0.90852700  0.36055200  0.80008900  1
  H  96  1  0.06647700  0.35492200  0.55069500  1
  H  97  1  0.10652100  0.39100700  0.52629000  1
  H  98  1  0.94863400  0.47587800  0.61509800  1
  H  99  1  0.90853200  0.44008400  0.63989800  1
  H  100  1  0.94864400  0.38534800  0.86068200  1
  H  101  1  0.10664500  0.47414500  0.86462100  1
  H  102  1  0.06658900  0.44974400  0.80413000  1
  H  103  1  0.89790500  0.35465400  0.60070900  1
  H  104  1  0.10692500  0.39533100  0.64843400  1
  H  105  1  0.89792300  0.24659600  0.64580100  1
  H  106  1  0.10682600  0.25364700  0.60509800  1
  H  107  1  0.89798600  0.39974000  0.75385100  1
  H  108  1  0.10696000  0.35200200  0.74679100  1
  H  110  1  0.11690100  0.47717600  0.56968700  1
  H  112  1  0.11686100  0.09305900  0.52325500  1
  H  114  1  0.11694600  0.43075000  0.90739800  1
  H  120  1  0.81208500  0.51879400  0.04124800  1
  H  122  1  0.17682400  0.48492700  0.96010900  1
  H  123  1  0.22023600  0.51970200  0.01955600  1
  H  125  1  0.64913500  0.49119300  0.99949700  1
  H  126  1  0.70905400  0.45274200  0.96461500  1
  H  127  1  0.68684200  0.48979500  0.96059900  1
  H  129  1  0.10749500  0.56726700  0.07680600  1
  H  130  1  0.12329400  0.52953000  0.07961800  1
  H  132  1  0.88743600  0.43496400  0.92221900  1
  H  133  1  0.87337200  0.47259100  0.91908300  1
  H  139  1  0.81212900  0.52300100  0.48164300  1
  H  141  1  0.17680900  0.47571800  0.51551700  1
  H  142  1  0.22026100  0.50038600  0.48074200  1
  H  144  1  0.64915500  0.50885700  0.50924200  1
  H  145  1  0.70904900  0.51242300  0.54769400  1
  H  146  1  0.68682300  0.47135700  0.51064000  1
  H  148  1  0.10755900  0.51007300  0.43317200  1
  H  149  1  0.12337300  0.55062100  0.47090900  1
  H  151  1  0.88741200  0.48780100  0.56547600  1
  H  152  1  0.87330700  0.44704100  0.52785000  1
  H  158  1  0.81211900  0.95918200  0.47741500  1
  H  160  1  0.17678000  0.04034300  0.52471200  1
  H  161  1  0.22024200  0.98089900  0.50003800  1
  H  163  1  0.64913400  0.00092500  0.49156100  1
  H  164  1  0.70902400  0.03581500  0.48800200  1
  H  165  1  0.68679800  0.03982100  0.52906300  1
  H  167  1  0.10754100  0.92364100  0.49034400  1
  H  168  1  0.12338300  0.92083500  0.44980000  1
  H  170  1  0.88737000  0.07822200  0.51263100  1
  H  171  1  0.87328200  0.08134900  0.55338800  1
  N  52  1  0.93940400  0.54249500  0.44501000  1
  N  54  1  0.93940800  0.90305400  0.45791300  1
  N  56  1  0.93931700  0.55542800  0.09738200  1
  N  109  1  0.05864200  0.45670200  0.55313400  1
  N  111  1  0.05861000  0.09697700  0.54372900  1
  N  113  1  0.05870500  0.44730200  0.90347100  1
