# generated using pymatgen
data_MgH4(C2O)4
_symmetry_space_group_name_H-M   'P 1'
_cell_length_a   9.94100000
_cell_length_b   13.62700000
_cell_length_c   17.68600000
_cell_angle_alpha   92.73200000
_cell_angle_beta   90.00000000
_cell_angle_gamma   90.00000000
_symmetry_Int_Tables_number   1
_chemical_formula_structural   MgH4(C2O)4
_chemical_formula_sum   'Mg8 H32 C64 O32'
_cell_volume   2393.12869853
_cell_formula_units_Z   8
loop_
 _symmetry_equiv_pos_site_id
 _symmetry_equiv_pos_as_xyz
  1  'x, y, z'
loop_
 _atom_site_type_symbol
 _atom_site_label
 _atom_site_symmetry_multiplicity
 _atom_site_fract_x
 _atom_site_fract_y
 _atom_site_fract_z
 _atom_site_occupancy
  Mg  Mg1  1  0.06872000  0.89584000  0.96419000  1.0
  Mg  Mg2  1  0.92959000  0.65760000  0.97650000  1.0
  Mg  Mg3  1  0.56872000  0.10416000  0.53581000  1.0
  Mg  Mg4  1  0.42959000  0.34240000  0.52350000  1.0
  Mg  Mg5  1  0.93128000  0.10416000  0.03581000  1.0
  Mg  Mg6  1  0.07041000  0.34240000  0.02350000  1.0
  Mg  Mg7  1  0.43128000  0.89584000  0.46419000  1.0
  Mg  Mg8  1  0.57041000  0.65760000  0.47650000  1.0
  H  H1  1  0.80770000  0.98050000  0.78870000  1.0
  H  H2  1  0.69770000  0.00240000  0.67410000  1.0
  H  H3  1  0.62580000  0.70920000  0.65170000  1.0
  H  H4  1  0.72050000  0.68920000  0.77110000  1.0
  H  H5  1  0.28270000  0.81240000  0.75580000  1.0
  H  H6  1  0.37740000  0.73900000  0.64600000  1.0
  H  H7  1  0.28890000  0.47110000  0.72390000  1.0
  H  H8  1  0.19810000  0.54400000  0.83400000  1.0
  H  H9  1  0.30770000  0.01950000  0.71130000  1.0
  H  H10  1  0.19770000  0.99760000  0.82590000  1.0
  H  H11  1  0.12580000  0.29080000  0.84830000  1.0
  H  H12  1  0.22050000  0.31080000  0.72890000  1.0
  H  H13  1  0.78270000  0.18760000  0.74420000  1.0
  H  H14  1  0.87740000  0.26100000  0.85400000  1.0
  H  H15  1  0.78890000  0.52890000  0.77610000  1.0
  H  H16  1  0.69810000  0.45600000  0.66600000  1.0
  H  H17  1  0.19230000  0.01950000  0.21130000  1.0
  H  H18  1  0.30230000  0.99760000  0.32590000  1.0
  H  H19  1  0.37420000  0.29080000  0.34830000  1.0
  H  H20  1  0.27950000  0.31080000  0.22890000  1.0
  H  H21  1  0.71730000  0.18760000  0.24420000  1.0
  H  H22  1  0.62260000  0.26100000  0.35400000  1.0
  H  H23  1  0.71110000  0.52890000  0.27610000  1.0
  H  H24  1  0.80190000  0.45600000  0.16600000  1.0
  H  H25  1  0.69230000  0.98050000  0.28870000  1.0
  H  H26  1  0.80230000  0.00240000  0.17410000  1.0
  H  H27  1  0.87420000  0.70920000  0.15170000  1.0
  H  H28  1  0.77950000  0.68920000  0.27110000  1.0
  H  H29  1  0.21730000  0.81240000  0.25580000  1.0
  H  H30  1  0.12260000  0.73900000  0.14600000  1.0
  H  H31  1  0.21110000  0.47110000  0.22390000  1.0
  H  H32  1  0.30190000  0.54400000  0.33400000  1.0
  C  C1  1  0.84570000  0.81860000  0.86520000  1.0
  C  C2  1  0.77490000  0.83280000  0.79000000  1.0
  C  C3  1  0.76860000  0.92590000  0.76140000  1.0
  C  C4  1  0.70500000  0.93850000  0.69300000  1.0
  C  C5  1  0.65180000  0.85810000  0.65160000  1.0
  C  C6  1  0.66020000  0.76450000  0.68030000  1.0
  C  C7  1  0.71870000  0.75220000  0.75030000  1.0
  C  C8  1  0.58540000  0.87230000  0.57770000  1.0
  C  C9  1  0.17010000  0.73490000  0.87580000  1.0
  C  C10  1  0.23220000  0.68600000  0.80530000  1.0
  C  C11  1  0.28500000  0.74280000  0.74930000  1.0
  C  C12  1  0.34090000  0.69960000  0.68390000  1.0
  C  C13  1  0.34270000  0.59660000  0.67470000  1.0
  C  C14  1  0.28840000  0.54060000  0.73070000  1.0
  C  C15  1  0.23390000  0.58350000  0.79590000  1.0
  C  C16  1  0.40270000  0.54830000  0.60310000  1.0
  C  C17  1  0.34570000  0.18140000  0.63480000  1.0
  C  C18  1  0.27490000  0.16720000  0.71000000  1.0
  C  C19  1  0.26860000  0.07410000  0.73860000  1.0
  C  C20  1  0.20500000  0.06150000  0.80700000  1.0
  C  C21  1  0.15180000  0.14190000  0.84840000  1.0
  C  C22  1  0.16020000  0.23550000  0.81970000  1.0
  C  C23  1  0.21870000  0.24780000  0.74970000  1.0
  C  C24  1  0.08540000  0.12770000  0.92230000  1.0
  C  C25  1  0.67010000  0.26510000  0.62420000  1.0
  C  C26  1  0.73220000  0.31400000  0.69470000  1.0
  C  C27  1  0.78500000  0.25720000  0.75070000  1.0
  C  C28  1  0.84090000  0.30040000  0.81610000  1.0
  C  C29  1  0.84270000  0.40340000  0.82530000  1.0
  C  C30  1  0.78840000  0.45940000  0.76930000  1.0
  C  C31  1  0.73390000  0.41650000  0.70410000  1.0
  C  C32  1  0.90270000  0.45170000  0.89690000  1.0
  C  C33  1  0.15430000  0.18140000  0.13480000  1.0
  C  C34  1  0.22510000  0.16720000  0.21000000  1.0
  C  C35  1  0.23140000  0.07410000  0.23860000  1.0
  C  C36  1  0.29500000  0.06150000  0.30700000  1.0
  C  C37  1  0.34820000  0.14190000  0.34840000  1.0
  C  C38  1  0.33980000  0.23550000  0.31970000  1.0
  C  C39  1  0.28130000  0.24780000  0.24970000  1.0
  C  C40  1  0.41460000  0.12770000  0.42230000  1.0
  C  C41  1  0.82990000  0.26510000  0.12420000  1.0
  C  C42  1  0.76780000  0.31400000  0.19470000  1.0
  C  C43  1  0.71500000  0.25720000  0.25070000  1.0
  C  C44  1  0.65910000  0.30040000  0.31610000  1.0
  C  C45  1  0.65730000  0.40340000  0.32530000  1.0
  C  C46  1  0.71160000  0.45940000  0.26930000  1.0
  C  C47  1  0.76610000  0.41650000  0.20410000  1.0
  C  C48  1  0.59730000  0.45170000  0.39690000  1.0
  C  C49  1  0.65430000  0.81860000  0.36520000  1.0
  C  C50  1  0.72510000  0.83280000  0.29000000  1.0
  C  C51  1  0.73140000  0.92590000  0.26140000  1.0
  C  C52  1  0.79500000  0.93850000  0.19300000  1.0
  C  C53  1  0.84820000  0.85810000  0.15160000  1.0
  C  C54  1  0.83980000  0.76450000  0.18030000  1.0
  C  C55  1  0.78130000  0.75220000  0.25030000  1.0
  C  C56  1  0.91460000  0.87230000  0.07770000  1.0
  C  C57  1  0.32990000  0.73490000  0.37580000  1.0
  C  C58  1  0.26780000  0.68600000  0.30530000  1.0
  C  C59  1  0.21500000  0.74280000  0.24930000  1.0
  C  C60  1  0.15910000  0.69960000  0.18390000  1.0
  C  C61  1  0.15730000  0.59660000  0.17470000  1.0
  C  C62  1  0.21160000  0.54060000  0.23070000  1.0
  C  C63  1  0.26610000  0.58350000  0.29590000  1.0
  C  C64  1  0.09730000  0.54830000  0.10310000  1.0
  O  O1  1  0.91810000  0.88840000  0.88900000  1.0
  O  O2  1  0.82620000  0.73960000  0.89720000  1.0
  O  O3  1  0.58020000  0.95830000  0.55300000  1.0
  O  O4  1  0.53180000  0.80160000  0.53970000  1.0
  O  O5  1  0.18930000  0.82630000  0.88740000  1.0
  O  O6  1  0.10360000  0.68330000  0.91920000  1.0
  O  O7  1  0.37620000  0.46020000  0.59030000  1.0
  O  O8  1  0.47790000  0.60060000  0.56410000  1.0
  O  O9  1  0.41810000  0.11160000  0.61100000  1.0
  O  O10  1  0.32620000  0.26040000  0.60280000  1.0
  O  O11  1  0.08020000  0.04170000  0.94700000  1.0
  O  O12  1  0.03180000  0.19840000  0.96030000  1.0
  O  O13  1  0.68930000  0.17370000  0.61260000  1.0
  O  O14  1  0.60360000  0.31670000  0.58080000  1.0
  O  O15  1  0.87620000  0.53980000  0.90970000  1.0
  O  O16  1  0.97790000  0.39940000  0.93590000  1.0
  O  O17  1  0.08190000  0.11160000  0.11100000  1.0
  O  O18  1  0.17380000  0.26040000  0.10280000  1.0
  O  O19  1  0.41980000  0.04170000  0.44700000  1.0
  O  O20  1  0.46820000  0.19840000  0.46030000  1.0
  O  O21  1  0.81070000  0.17370000  0.11260000  1.0
  O  O22  1  0.89640000  0.31670000  0.08080000  1.0
  O  O23  1  0.62380000  0.53980000  0.40970000  1.0
  O  O24  1  0.52210000  0.39940000  0.43590000  1.0
  O  O25  1  0.58190000  0.88840000  0.38900000  1.0
  O  O26  1  0.67380000  0.73960000  0.39720000  1.0
  O  O27  1  0.91980000  0.95830000  0.05300000  1.0
  O  O28  1  0.96820000  0.80160000  0.03970000  1.0
  O  O29  1  0.31070000  0.82630000  0.38740000  1.0
  O  O30  1  0.39640000  0.68330000  0.41920000  1.0
  O  O31  1  0.12380000  0.46020000  0.09030000  1.0
  O  O32  1  0.02210000  0.60060000  0.06410000  1.0
