# generated using pymatgen
data_GdCu3H24C36I3(NO2)3
_symmetry_space_group_name_H-M   'P 1'
_cell_length_a   9.73330000
_cell_length_b   20.71590000
_cell_length_c   23.51364077
_cell_angle_alpha   105.41993975
_cell_angle_beta   101.94492446
_cell_angle_gamma   90.00000000
_symmetry_Int_Tables_number   1
_chemical_formula_structural   GdCu3H24C36I3(NO2)3
_chemical_formula_sum   'Gd4 Cu12 H96 C144 I12 N12 O24'
_cell_volume   4463.90013342
_cell_formula_units_Z   4
loop_
 _symmetry_equiv_pos_site_id
 _symmetry_equiv_pos_as_xyz
  1  'x, y, z'
loop_
 _atom_site_type_symbol
 _atom_site_label
 _atom_site_symmetry_multiplicity
 _atom_site_fract_x
 _atom_site_fract_y
 _atom_site_fract_z
 _atom_site_occupancy
  C  C1  1  0.75207000  0.52930000  0.65834000  1.0
  C  C2  1  0.86640000  0.54890000  0.70680000  1.0
  C  C3  1  0.99970000  0.54880000  0.69700000  1.0
  C  C4  1  0.01421000  0.53080000  0.63702000  1.0
  C  C5  1  0.89531000  0.51200000  0.59202000  1.0
  C  C6  1  0.12543000  0.56610000  0.74726000  1.0
  C  C7  1  0.11818000  0.55820000  0.80356000  1.0
  C  C8  1  0.23141000  0.57630000  0.85302000  1.0
  C  C9  1  0.35801000  0.60160000  0.84542000  1.0
  C  C10  1  0.36698000  0.60880000  0.78896000  1.0
  C  C11  1  0.25209000  0.59150000  0.74098000  1.0
  C  C12  1  0.22093000  0.56120000  0.91126000  1.0
  C  C13  1  0.98225000  0.36260000  0.63290000  1.0
  C  C14  1  0.09728000  0.37760000  0.67976000  1.0
  C  C15  1  0.23119000  0.37540000  0.67038000  1.0
  C  C16  1  0.24325000  0.35620000  0.61050000  1.0
  C  C17  1  0.12483000  0.34230000  0.56526000  1.0
  C  C18  1  0.35967000  0.39570000  0.72074000  1.0
  C  C19  1  0.35122000  0.40960000  0.78104000  1.0
  C  C20  1  0.46597000  0.43070000  0.82694000  1.0
  C  C21  1  0.59741000  0.43740000  0.81382000  1.0
  C  C22  1  0.60847000  0.42280000  0.75494000  1.0
  C  C23  1  0.49235000  0.40180000  0.70830000  1.0
  C  C24  1  0.45326000  0.44730000  0.89152000  1.0
  C  C25  1  0.84618000  0.79660000  0.30996000  1.0
  C  C26  1  0.91026000  0.77020000  0.26252000  1.0
  C  C27  1  0.05390000  0.76590000  0.27300000  1.0
  C  C28  1  0.12606000  0.78800000  0.33292000  1.0
  C  C29  1  0.05436000  0.81430000  0.37772000  1.0
  C  C30  1  0.12572000  0.73770000  0.22344000  1.0
  C  C31  1  0.05922000  0.68850000  0.17244000  1.0
  C  C32  1  0.12484000  0.66150000  0.12568000  1.0
  C  C33  1  0.26025000  0.68440000  0.12910000  1.0
  C  C34  1  0.32800000  0.73400000  0.17880000  1.0
  C  C35  1  0.26352000  0.75990000  0.22644000  1.0
  C  C36  1  0.05062000  0.60590000  0.07344000  1.0
  C  C73  1  0.09373000  0.97070000  0.34166000  1.0
  C  C74  1  0.15960000  0.95110000  0.29320000  1.0
  C  C75  1  0.30270000  0.95120000  0.30300000  1.0
  C  C76  1  0.37719000  0.96920000  0.36298000  1.0
  C  C77  1  0.30329000  0.98800000  0.40798000  1.0
  C  C78  1  0.37817000  0.93390000  0.25274000  1.0
  C  C79  1  0.31462000  0.94180000  0.19644000  1.0
  C  C80  1  0.37839000  0.92370000  0.14698000  1.0
  C  C81  1  0.51259000  0.89840000  0.15458000  1.0
  C  C82  1  0.57802000  0.89120000  0.21104000  1.0
  C  C83  1  0.51111000  0.90850000  0.25902000  1.0
  C  C84  1  0.30967000  0.93880000  0.08874000  1.0
  C  C85  1  0.34935000  0.13740000  0.36710000  1.0
  C  C86  1  0.41752000  0.12240000  0.32024000  1.0
  C  C87  1  0.56081000  0.12460000  0.32962000  1.0
  C  C88  1  0.63275000  0.14380000  0.38950000  1.0
  C  C89  1  0.55957000  0.15770000  0.43474000  1.0
  C  C90  1  0.63893000  0.10430000  0.27926000  1.0
  C  C91  1  0.57018000  0.09040000  0.21896000  1.0
  C  C92  1  0.63903000  0.06930000  0.17306000  1.0
  C  C93  1  0.78359000  0.06260000  0.18618000  1.0
  C  C94  1  0.85353000  0.07720000  0.24506000  1.0
  C  C95  1  0.78405000  0.09820000  0.29170000  1.0
  C  C96  1  0.56174000  0.05270000  0.10848000  1.0
  C  C97  1  0.53622000  0.70340000  0.69004000  1.0
  C  C98  1  0.64774000  0.72980000  0.73748000  1.0
  C  C99  1  0.78090000  0.73410000  0.72700000  1.0
  C  C100  1  0.79314000  0.71200000  0.66708000  1.0
  C  C101  1  0.67664000  0.68570000  0.62228000  1.0
  C  C102  1  0.90228000  0.76230000  0.77656000  1.0
  C  C103  1  0.88678000  0.81150000  0.82756000  1.0
  C  C104  1  0.99916000  0.83850000  0.87432000  1.0
  C  C105  1  0.13115000  0.81560000  0.87090000  1.0
  C  C106  1  0.14920000  0.76600000  0.82120000  1.0
  C  C107  1  0.03708000  0.74010000  0.77356000  1.0
  C  C108  1  0.97718000  0.89410000  0.92656000  1.0
  C  C145  1  0.24793000  0.47070000  0.34166000  1.0
  C  C146  1  0.13360000  0.45110000  0.29320000  1.0
  C  C147  1  0.00030000  0.45120000  0.30300000  1.0
  C  C148  1  0.98579000  0.46920000  0.36298000  1.0
  C  C149  1  0.10469000  0.48800000  0.40798000  1.0
  C  C150  1  0.87457000  0.43390000  0.25274000  1.0
  C  C151  1  0.88182000  0.44180000  0.19644000  1.0
  C  C152  1  0.76859000  0.42370000  0.14698000  1.0
  C  C153  1  0.64199000  0.39840000  0.15458000  1.0
  C  C154  1  0.63302000  0.39120000  0.21104000  1.0
  C  C155  1  0.74791000  0.40850000  0.25902000  1.0
  C  C156  1  0.77907000  0.43880000  0.08874000  1.0
  C  C157  1  0.01775000  0.63740000  0.36710000  1.0
  C  C158  1  0.90272000  0.62240000  0.32024000  1.0
  C  C159  1  0.76881000  0.62460000  0.32962000  1.0
  C  C160  1  0.75675000  0.64380000  0.38950000  1.0
  C  C161  1  0.87517000  0.65770000  0.43474000  1.0
  C  C162  1  0.64033000  0.60430000  0.27926000  1.0
  C  C163  1  0.64878000  0.59040000  0.21896000  1.0
  C  C164  1  0.53403000  0.56930000  0.17306000  1.0
  C  C165  1  0.40259000  0.56260000  0.18618000  1.0
  C  C166  1  0.39153000  0.57720000  0.24506000  1.0
  C  C167  1  0.50765000  0.59820000  0.29170000  1.0
  C  C168  1  0.54674000  0.55270000  0.10848000  1.0
  C  C169  1  0.15382000  0.20340000  0.69004000  1.0
  C  C170  1  0.08974000  0.22980000  0.73748000  1.0
  C  C171  1  0.94610000  0.23410000  0.72700000  1.0
  C  C172  1  0.87394000  0.21200000  0.66708000  1.0
  C  C173  1  0.94564000  0.18570000  0.62228000  1.0
  C  C174  1  0.87428000  0.26230000  0.77656000  1.0
  C  C175  1  0.94078000  0.31150000  0.82756000  1.0
  C  C176  1  0.87516000  0.33850000  0.87432000  1.0
  C  C177  1  0.73975000  0.31560000  0.87090000  1.0
  C  C178  1  0.67200000  0.26600000  0.82120000  1.0
  C  C179  1  0.73648000  0.24010000  0.77356000  1.0
  C  C180  1  0.94938000  0.39410000  0.92656000  1.0
  C  C217  1  0.90627000  0.02930000  0.65834000  1.0
  C  C218  1  0.84040000  0.04890000  0.70680000  1.0
  C  C219  1  0.69730000  0.04880000  0.69700000  1.0
  C  C220  1  0.62281000  0.03080000  0.63702000  1.0
  C  C221  1  0.69671000  0.01200000  0.59202000  1.0
  C  C222  1  0.62183000  0.06610000  0.74726000  1.0
  C  C223  1  0.68538000  0.05820000  0.80356000  1.0
  C  C224  1  0.62161000  0.07630000  0.85302000  1.0
  C  C225  1  0.48741000  0.10160000  0.84542000  1.0
  C  C226  1  0.42198000  0.10880000  0.78896000  1.0
  C  C227  1  0.48889000  0.09150000  0.74098000  1.0
  C  C228  1  0.69033000  0.06120000  0.91126000  1.0
  C  C229  1  0.65065000  0.86260000  0.63290000  1.0
  C  C230  1  0.58248000  0.87760000  0.67976000  1.0
  C  C231  1  0.43919000  0.87540000  0.67038000  1.0
  C  C232  1  0.36725000  0.85620000  0.61050000  1.0
  C  C233  1  0.44043000  0.84230000  0.56526000  1.0
  C  C234  1  0.36107000  0.89570000  0.72074000  1.0
  C  C235  1  0.42982000  0.90960000  0.78104000  1.0
  C  C236  1  0.36097000  0.93070000  0.82694000  1.0
  C  C237  1  0.21641000  0.93740000  0.81382000  1.0
  C  C238  1  0.14647000  0.92280000  0.75494000  1.0
  C  C239  1  0.21595000  0.90180000  0.70830000  1.0
  C  C240  1  0.43826000  0.94730000  0.89152000  1.0
  C  C241  1  0.46378000  0.29660000  0.30996000  1.0
  C  C242  1  0.35226000  0.27020000  0.26252000  1.0
  C  C243  1  0.21910000  0.26590000  0.27300000  1.0
  C  C244  1  0.20686000  0.28800000  0.33292000  1.0
  C  C245  1  0.32336000  0.31430000  0.37772000  1.0
  C  C246  1  0.09772000  0.23770000  0.22344000  1.0
  C  C247  1  0.11322000  0.18850000  0.17244000  1.0
  C  C248  1  0.00084000  0.16150000  0.12568000  1.0
  C  C249  1  0.86885000  0.18440000  0.12910000  1.0
  C  C250  1  0.85080000  0.23400000  0.17880000  1.0
  C  C251  1  0.96292000  0.25990000  0.22644000  1.0
  C  C252  1  0.02282000  0.10590000  0.07344000  1.0
  Cu  Cu1  1  0.62304000  0.36270000  0.43260000  1.0
  Cu  Cu2  1  0.59751000  0.46705000  0.53268000  1.0
  Cu  Cu3  1  0.82967000  0.33148000  0.50600000  1.0
  Cu  Cu7  1  0.19044000  0.13730000  0.56740000  1.0
  Cu  Cu8  1  0.06483000  0.03295000  0.46732000  1.0
  Cu  Cu9  1  0.32367000  0.16852000  0.49400000  1.0
  Cu  Cu13  1  0.37696000  0.63730000  0.56740000  1.0
  Cu  Cu14  1  0.40249000  0.53295000  0.46732000  1.0
  Cu  Cu15  1  0.17033000  0.66852000  0.49400000  1.0
  Cu  Cu19  1  0.80956000  0.86270000  0.43260000  1.0
  Cu  Cu20  1  0.93517000  0.96705000  0.53268000  1.0
  Cu  Cu21  1  0.67633000  0.83148000  0.50600000  1.0
  Gd  Gd1  1  0.24824000  0.48342000  0.99322000  1.0
  Gd  Gd3  1  0.25502000  0.01658000  0.00678000  1.0
  Gd  Gd5  1  0.75176000  0.51658000  0.00678000  1.0
  Gd  Gd7  1  0.74498000  0.98342000  0.99322000  1.0
  H  H1  1  0.66271667  0.52910000  0.66663333  1.0
  H  H2  1  0.85190000  0.56220000  0.74600000  1.0
  H  H3  1  0.10250000  0.53150000  0.62780000  1.0
  H  H4  1  0.90740000  0.49930000  0.55240000  1.0
  H  H5  1  0.03510000  0.54030000  0.80840000  1.0
  H  H6  1  0.43520000  0.61340000  0.87760000  1.0
  H  H7  1  0.45070000  0.62540000  0.78360000  1.0
  H  H8  1  0.25980000  0.59690000  0.70380000  1.0
  H  H9  1  0.89310000  0.36460000  0.64160000  1.0
  H  H10  1  0.08390000  0.38970000  0.71920000  1.0
  H  H11  1  0.33170000  0.35280000  0.60120000  1.0
  H  H12  1  0.13610000  0.33030000  0.52560000  1.0
  H  H13  1  0.26430000  0.40440000  0.79040000  1.0
  H  H14  1  0.67660000  0.45160000  0.84480000  1.0
  H  H15  1  0.69620000  0.42700000  0.74600000  1.0
  H  H16  1  0.50250000  0.39180000  0.66840000  1.0
  H  H17  1  0.74910000  0.79930000  0.30120000  1.0
  H  H18  1  0.85640000  0.75520000  0.22340000  1.0
  H  H19  1  0.22300000  0.78480000  0.34280000  1.0
  H  H20  1  0.10580000  0.83000000  0.41720000  1.0
  H  H21  1  0.96750000  0.67340000  0.16980000  1.0
  H  H22  1  0.30580000  0.66640000  0.09780000  1.0
  H  H23  1  0.41800000  0.75030000  0.18020000  1.0
  H  H24  1  0.31160000  0.79200000  0.26040000  1.0
  H  H49  1  0.99608333  0.97090000  0.33336667  1.0
  H  H50  1  0.10590000  0.93780000  0.25400000  1.0
  H  H51  1  0.47470000  0.96850000  0.37220000  1.0
  H  H52  1  0.35500000  0.00070000  0.44760000  1.0
  H  H53  1  0.22670000  0.95970000  0.19160000  1.0
  H  H54  1  0.55760000  0.88660000  0.12240000  1.0
  H  H55  1  0.66710000  0.87460000  0.21640000  1.0
  H  H56  1  0.55600000  0.90310000  0.29620000  1.0
  H  H57  1  0.25150000  0.13540000  0.35840000  1.0
  H  H58  1  0.36470000  0.11030000  0.28080000  1.0
  H  H59  1  0.73050000  0.14720000  0.39880000  1.0
  H  H60  1  0.61050000  0.16970000  0.47440000  1.0
  H  H61  1  0.47390000  0.09560000  0.20960000  1.0
  H  H62  1  0.83180000  0.04840000  0.15520000  1.0
  H  H63  1  0.95020000  0.07300000  0.25400000  1.0
  H  H64  1  0.83410000  0.10820000  0.33160000  1.0
  H  H65  1  0.44790000  0.70070000  0.69880000  1.0
  H  H66  1  0.63300000  0.74480000  0.77660000  1.0
  H  H67  1  0.88020000  0.71520000  0.65720000  1.0
  H  H68  1  0.68860000  0.67000000  0.58280000  1.0
  H  H69  1  0.79770000  0.82660000  0.83020000  1.0
  H  H70  1  0.20800000  0.83360000  0.90220000  1.0
  H  H71  1  0.23780000  0.74970000  0.81980000  1.0
  H  H72  1  0.05120000  0.70800000  0.73960000  1.0
  H  H97  1  0.33728333  0.47090000  0.33336667  1.0
  H  H98  1  0.14810000  0.43780000  0.25400000  1.0
  H  H99  1  0.89750000  0.46850000  0.37220000  1.0
  H  H100  1  0.09260000  0.50070000  0.44760000  1.0
  H  H101  1  0.96490000  0.45970000  0.19160000  1.0
  H  H102  1  0.56480000  0.38660000  0.12240000  1.0
  H  H103  1  0.54930000  0.37460000  0.21640000  1.0
  H  H104  1  0.74020000  0.40310000  0.29620000  1.0
  H  H105  1  0.10690000  0.63540000  0.35840000  1.0
  H  H106  1  0.91610000  0.61030000  0.28080000  1.0
  H  H107  1  0.66830000  0.64720000  0.39880000  1.0
  H  H108  1  0.86390000  0.66970000  0.47440000  1.0
  H  H109  1  0.73570000  0.59560000  0.20960000  1.0
  H  H110  1  0.32340000  0.54840000  0.15520000  1.0
  H  H111  1  0.30380000  0.57300000  0.25400000  1.0
  H  H112  1  0.49750000  0.60820000  0.33160000  1.0
  H  H113  1  0.25090000  0.20070000  0.69880000  1.0
  H  H114  1  0.14360000  0.24480000  0.77660000  1.0
  H  H115  1  0.77700000  0.21520000  0.65720000  1.0
  H  H116  1  0.89420000  0.17000000  0.58280000  1.0
  H  H117  1  0.03250000  0.32660000  0.83020000  1.0
  H  H118  1  0.69420000  0.33360000  0.90220000  1.0
  H  H119  1  0.58200000  0.24970000  0.81980000  1.0
  H  H120  1  0.68840000  0.20800000  0.73960000  1.0
  H  H145  1  0.00391667  0.02910000  0.66663333  1.0
  H  H146  1  0.89410000  0.06220000  0.74600000  1.0
  H  H147  1  0.52530000  0.03150000  0.62780000  1.0
  H  H148  1  0.64500000  0.99930000  0.55240000  1.0
  H  H149  1  0.77330000  0.04030000  0.80840000  1.0
  H  H150  1  0.44240000  0.11340000  0.87760000  1.0
  H  H151  1  0.33290000  0.12540000  0.78360000  1.0
  H  H152  1  0.44400000  0.09690000  0.70380000  1.0
  H  H153  1  0.74850000  0.86460000  0.64160000  1.0
  H  H154  1  0.63530000  0.88970000  0.71920000  1.0
  H  H155  1  0.26950000  0.85280000  0.60120000  1.0
  H  H156  1  0.38950000  0.83030000  0.52560000  1.0
  H  H157  1  0.52610000  0.90440000  0.79040000  1.0
  H  H158  1  0.16820000  0.95160000  0.84480000  1.0
  H  H159  1  0.04980000  0.92700000  0.74600000  1.0
  H  H160  1  0.16590000  0.89180000  0.66840000  1.0
  H  H161  1  0.55210000  0.29930000  0.30120000  1.0
  H  H162  1  0.36700000  0.25520000  0.22340000  1.0
  H  H163  1  0.11980000  0.28480000  0.34280000  1.0
  H  H164  1  0.31140000  0.33000000  0.41720000  1.0
  H  H165  1  0.20230000  0.17340000  0.16980000  1.0
  H  H166  1  0.79200000  0.16640000  0.09780000  1.0
  H  H167  1  0.76220000  0.25030000  0.18020000  1.0
  H  H168  1  0.94880000  0.29200000  0.26040000  1.0
  I  I1  1  0.63802000  0.49133000  0.43316000  1.0
  I  I2  1  0.58948000  0.33751000  0.53536000  1.0
  I  I3  1  0.85318000  0.31126000  0.39792000  1.0
  I  I7  1  0.20486000  0.00867000  0.56684000  1.0
  I  I8  1  0.05412000  0.16249000  0.46464000  1.0
  I  I9  1  0.45526000  0.18874000  0.60208000  1.0
  I  I13  1  0.36198000  0.50867000  0.56684000  1.0
  I  I14  1  0.41052000  0.66249000  0.46464000  1.0
  I  I15  1  0.14682000  0.68874000  0.60208000  1.0
  I  I19  1  0.79514000  0.99133000  0.43316000  1.0
  I  I20  1  0.94588000  0.83751000  0.53536000  1.0
  I  I21  1  0.54474000  0.81126000  0.39792000  1.0
  N  N1  1  0.76314000  0.51050000  0.60028000  1.0
  N  N2  1  0.99316000  0.34480000  0.57472000  1.0
  N  N3  1  0.91358000  0.81860000  0.36756000  1.0
  N  N7  1  0.16286000  0.98950000  0.39972000  1.0
  N  N8  1  0.41844000  0.15520000  0.42528000  1.0
  N  N9  1  0.54602000  0.68140000  0.63244000  1.0
  N  N13  1  0.23686000  0.48950000  0.39972000  1.0
  N  N14  1  0.00684000  0.65520000  0.42528000  1.0
  N  N15  1  0.08642000  0.18140000  0.63244000  1.0
  N  N19  1  0.83714000  0.01050000  0.60028000  1.0
  N  N20  1  0.58156000  0.84480000  0.57472000  1.0
  N  N21  1  0.45398000  0.31860000  0.36756000  1.0
  O  O1  1  0.11154000  0.52980000  0.91288000  1.0
  O  O2  1  0.32394000  0.57730000  0.95648000  1.0
  O  O3  1  0.33430000  0.43680000  0.90220000  1.0
  O  O4  1  0.55840000  0.47220000  0.93300000  1.0
  O  O5  1  0.12109000  0.56510000  0.04298000  1.0
  O  O6  1  0.91901000  0.60280000  0.06322000  1.0
  O  O13  1  0.19866000  0.97020000  0.08712000  1.0
  O  O14  1  0.36746000  0.92270000  0.04352000  1.0
  O  O15  1  0.43210000  0.06320000  0.09780000  1.0
  O  O16  1  0.62540000  0.02780000  0.06700000  1.0
  O  O17  1  0.07811000  0.93490000  0.95702000  1.0
  O  O18  1  0.85579000  0.89720000  0.93678000  1.0
  O  O25  1  0.88846000  0.47020000  0.08712000  1.0
  O  O26  1  0.67606000  0.42270000  0.04352000  1.0
  O  O27  1  0.66570000  0.56320000  0.09780000  1.0
  O  O28  1  0.44160000  0.52780000  0.06700000  1.0
  O  O29  1  0.87891000  0.43490000  0.95702000  1.0
  O  O30  1  0.08099000  0.39720000  0.93678000  1.0
  O  O37  1  0.80134000  0.02980000  0.91288000  1.0
  O  O38  1  0.63254000  0.07730000  0.95648000  1.0
  O  O39  1  0.56790000  0.93680000  0.90220000  1.0
  O  O40  1  0.37460000  0.97220000  0.93300000  1.0
  O  O41  1  0.92189000  0.06510000  0.04298000  1.0
  O  O42  1  0.14421000  0.10280000  0.06322000  1.0
