# generated using pymatgen
data_Zn3H4(C5O4)4
_symmetry_space_group_name_H-M   'P 1'
_cell_length_a   16.48261000
_cell_length_b   16.48466000
_cell_length_c   17.89272865
_cell_angle_alpha   109.59559245
_cell_angle_beta   109.61279000
_cell_angle_gamma   105.71076000
_symmetry_Int_Tables_number   1
_chemical_formula_structural   Zn3H4(C5O4)4
_chemical_formula_sum   'Zn12 H16 C80 O64'
_cell_volume   3891.02215119
_cell_formula_units_Z   4
loop_
 _symmetry_equiv_pos_site_id
 _symmetry_equiv_pos_as_xyz
  1  'x, y, z'
loop_
 _atom_site_type_symbol
 _atom_site_label
 _atom_site_symmetry_multiplicity
 _atom_site_fract_x
 _atom_site_fract_y
 _atom_site_fract_z
 _atom_site_occupancy
  Zn  Zn0  1  0.94350000  0.29072000  0.90097000  1
  Zn  Zn1  1  0.03437000  0.66477000  0.87164000  1
  Zn  Zn2  1  0.28772000  0.78999000  0.00406000  1
  Zn  Zn3  1  0.38949000  0.04238000  0.09917000  1
  Zn  Zn4  1  0.79450000  0.16393000  0.12844000  1
  Zn  Zn5  1  0.78617000  0.28544000  0.99642000  1
  Zn  Zn6  1  0.29236000  0.13950000  0.59918000  1
  Zn  Zn7  1  0.41392000  0.54456000  0.62845000  1
  Zn  Zn8  1  0.53543000  0.53623000  0.49641000  1
  Zn  Zn9  1  0.54070000  0.69358000  0.40099000  1
  Zn  Zn10  1  0.91475000  0.78436000  0.37163000  1
  Zn  Zn11  1  0.04008000  0.03821000  0.50407000  1
  H  H12  1  0.18459000  0.46973000  0.15029000  1
  H  H13  1  0.10902000  0.25539000  0.75918000  1
  H  H14  1  0.25588000  0.57032000  0.77375000  1
  H  H15  1  0.13988000  0.41183000  0.39306000  1
  H  H16  1  0.31920000  0.03363000  0.84925000  1
  H  H17  1  0.49522000  0.34966000  0.24027000  1
  H  H18  1  0.79604000  0.48165000  0.22611000  1
  H  H19  1  0.01865000  0.74595000  0.60731000  1
  H  H20  1  0.28366000  0.06917000  0.34923000  1
  H  H21  1  0.59967000  0.24520000  0.74010000  1
  H  H22  1  0.73155000  0.54600000  0.72601000  1
  H  H23  1  0.99590000  0.76867000  0.10736000  1
  H  H24  1  0.71971000  0.93461000  0.65029000  1
  H  H25  1  0.50532000  0.85906000  0.25910000  1
  H  H26  1  0.82037000  0.00592000  0.27376000  1
  H  H27  1  0.66172000  0.89002000  0.89308000  1
  C  C28  1  0.35201000  0.54373000  0.29912000  1
  C  C29  1  0.00029000  0.36800000  0.09678000  1
  C  C30  1  0.17469000  0.45782000  0.20354000  1
  C  C31  1  0.08279000  0.40812000  0.18825000  1
  C  C32  1  0.06944000  0.39137000  0.25707000  1
  C  C33  1  0.97141000  0.33546000  0.24128000  1
  C  C34  1  0.14050000  0.40436000  0.82152000  1
  C  C35  1  0.09548000  0.39128000  0.87921000  1
  C  C36  1  0.22452000  0.42134000  0.71127000  1
  C  C37  1  0.14202000  0.32412000  0.76253000  1
  C  C38  1  0.22332000  0.50165000  0.77063000  1
  C  C39  1  0.18268000  0.49454000  0.82633000  1
  C  C40  1  0.26819000  0.43638000  0.65304000  1
  C  C41  1  0.14947000  0.42490000  0.34011000  1
  C  C42  1  0.25453000  0.49114000  0.28622000  1
  C  C43  1  0.24149000  0.47112000  0.35373000  1
  C  C44  1  0.18041000  0.58353000  0.88368000  1
  C  C45  1  0.18083000  0.33082000  0.70535000  1
  C  C46  1  0.17575000  0.24054000  0.64158000  1
  C  C47  1  0.32690000  0.49580000  0.43742000  1
  C  C48  1  0.24382000  0.05219000  0.70094000  1
  C  C49  1  0.27153000  0.90357000  0.90349000  1
  C  C50  1  0.25419000  0.97034000  0.79617000  1
  C  C51  1  0.22017000  0.89392000  0.81177000  1
  C  C52  1  0.13467000  0.81169000  0.74326000  1
  C  C53  1  0.09488000  0.72967000  0.75938000  1
  C  C54  1  0.58232000  0.31851000  0.17829000  1
  C  C55  1  0.51215000  0.21573000  0.12096000  1
  C  C56  1  0.70911000  0.51275000  0.28816000  1
  C  C57  1  0.56055000  0.37894000  0.23672000  1
  C  C58  1  0.73046000  0.45234000  0.22924000  1
  C  C59  1  0.66782000  0.35603000  0.17372000  1
  C  C60  1  0.78187000  0.61472000  0.34609000  1
  C  C61  1  0.08492000  0.80828000  0.65999000  1
  C  C62  1  0.20447000  0.96727000  0.71347000  1
  C  C63  1  0.11730000  0.88640000  0.64592000  1
  C  C64  1  0.69986000  0.29717000  0.11630000  1
  C  C65  1  0.62446000  0.47477000  0.29385000  1
  C  C66  1  0.59858000  0.53320000  0.35827000  1
  C  C67  1  0.05786000  0.88798000  0.56218000  1
  C  C68  1  0.30218000  0.99381000  0.20093000  1
  C  C69  1  0.15359000  0.02155000  0.40349000  1
  C  C70  1  0.22035000  0.00417000  0.29617000  1
  C  C71  1  0.14393000  0.97016000  0.31178000  1
  C  C72  1  0.06166000  0.88467000  0.24328000  1
  C  C73  1  0.97962000  0.84488000  0.25937000  1
  C  C74  1  0.56849000  0.33232000  0.67819000  1
  C  C75  1  0.46568000  0.26216000  0.62090000  1
  C  C76  1  0.76275000  0.45910000  0.78809000  1
  C  C77  1  0.62895000  0.31056000  0.73661000  1
  C  C78  1  0.70229000  0.48042000  0.72915000  1
  C  C79  1  0.60597000  0.41782000  0.67364000  1
  C  C80  1  0.86471000  0.53190000  0.84599000  1
  C  C81  1  0.05823000  0.83494000  0.16003000  1
  C  C82  1  0.21725000  0.95446000  0.21347000  1
  C  C83  1  0.13634000  0.86730000  0.14594000  1
  C  C84  1  0.54713000  0.44992000  0.61628000  1
  C  C85  1  0.72479000  0.37449000  0.79383000  1
  C  C86  1  0.78317000  0.34859000  0.85828000  1
  C  C87  1  0.13791000  0.80786000  0.06225000  1
  C  C88  1  0.79378000  0.10197000  0.79906000  1
  C  C89  1  0.61799000  0.75036000  0.59680000  1
  C  C90  1  0.70775000  0.92471000  0.70351000  1
  C  C91  1  0.65801000  0.83283000  0.68824000  1
  C  C92  1  0.64126000  0.81953000  0.75708000  1
  C  C93  1  0.58546000  0.72155000  0.74139000  1
  C  C94  1  0.65433000  0.89049000  0.32146000  1
  C  C95  1  0.64128000  0.84547000  0.37917000  1
  C  C96  1  0.67130000  0.97448000  0.21120000  1
  C  C97  1  0.57408000  0.89204000  0.26249000  1
  C  C98  1  0.75165000  0.97332000  0.27057000  1
  C  C99  1  0.74453000  0.93269000  0.32628000  1
  C  C100  1  0.68632000  0.01817000  0.15299000  1
  C  C101  1  0.67477000  0.89954000  0.84009000  1
  C  C102  1  0.74109000  0.00453000  0.78617000  1
  C  C103  1  0.72105000  0.99152000  0.85368000  1
  C  C104  1  0.83355000  0.93048000  0.38369000  1
  C  C105  1  0.58076000  0.93079000  0.20527000  1
  C  C106  1  0.49044000  0.92571000  0.14148000  1
  C  C107  1  0.74574000  0.07693000  0.93730000  1
  O  O108  1  0.09817000  0.57794000  0.87093000  1
  O  O109  1  0.26032000  0.65637000  0.93449000  1
  O  O110  1  0.22393000  0.37875000  0.57116000  1
  O  O111  1  0.34636000  0.51313000  0.69343000  1
  O  O112  1  0.93248000  0.24494000  0.18836000  1
  O  O113  1  0.93598000  0.38039000  0.28076000  1
  O  O114  1  0.91883000  0.35556000  0.09271000  1
  O  O115  1  0.02037000  0.35008000  0.03235000  1
  O  O116  1  0.40414000  0.62905000  0.36521000  1
  O  O117  1  0.02149000  0.31115000  0.84169000  1
  O  O118  1  0.25277000  0.24320000  0.64048000  1
  O  O119  1  0.09429000  0.16941000  0.59803000  1
  O  O120  1  0.32082000  0.52019000  0.50974000  1
  O  O121  1  0.39688000  0.48694000  0.42590000  1
  O  O122  1  0.13403000  0.45508000  0.95854000  1
  O  O123  1  0.37471000  0.50006000  0.24383000  1
  O  O124  1  0.70825000  0.22811000  0.12913000  1
  O  O125  1  0.72115000  0.32669000  0.06535000  1
  O  O126  1  0.80587000  0.65292000  0.42791000  1
  O  O127  1  0.81817000  0.65221000  0.30547000  1
  O  O128  1  0.05652000  0.74289000  0.81167000  1
  O  O129  1  0.10138000  0.65537000  0.72002000  1
  O  O130  1  0.26220000  0.82638000  0.90818000  1
  O  O131  1  0.31893000  0.98821000  0.96754000  1
  O  O132  1  0.26303000  0.03846000  0.63476000  1
  O  O133  1  0.46871000  0.17955000  0.15814000  1
  O  O134  1  0.60119000  0.61082000  0.35885000  1
  O  O135  1  0.57310000  0.49575000  0.40302000  1
  O  O136  1  0.01025000  0.80982000  0.48970000  1
  O  O137  1  0.05955000  0.96916000  0.57380000  1
  O  O138  1  0.49818000  0.17486000  0.04216000  1
  O  O139  1  0.25559000  0.13002000  0.75650000  1
  O  O140  1  0.47807000  0.45830000  0.62912000  1
  O  O141  1  0.57669000  0.47127000  0.56538000  1
  O  O142  1  0.90293000  0.55584000  0.92780000  1
  O  O143  1  0.90214000  0.56831000  0.80539000  1
  O  O144  1  0.99286000  0.80650000  0.31166000  1
  O  O145  1  0.90528000  0.85132000  0.21998000  1
  O  O146  1  0.07637000  0.01218000  0.40816000  1
  O  O147  1  0.23824000  0.06902000  0.46754000  1
  O  O148  1  0.28842000  0.01301000  0.13474000  1
  O  O149  1  0.42958000  0.21871000  0.65811000  1
  O  O150  1  0.86077000  0.35111000  0.85879000  1
  O  O151  1  0.74577000  0.32320000  0.90309000  1
  O  O152  1  0.05979000  0.76026000  0.98971000  1
  O  O153  1  0.21916000  0.80956000  0.07404000  1
  O  O154  1  0.42469000  0.24824000  0.54212000  1
  O  O155  1  0.38005000  0.00560000  0.25650000  1
  O  O156  1  0.82799000  0.84826000  0.37092000  1
  O  O157  1  0.90634000  0.01042000  0.43455000  1
  O  O158  1  0.62866000  0.97393000  0.07111000  1
  O  O159  1  0.76308000  0.09633000  0.19342000  1
  O  O160  1  0.49491000  0.68251000  0.68846000  1
  O  O161  1  0.63057000  0.68632000  0.78101000  1
  O  O162  1  0.60550000  0.66890000  0.59272000  1
  O  O163  1  0.60022000  0.77051000  0.53240000  1
  O  O164  1  0.87920000  0.15404000  0.86500000  1
  O  O165  1  0.56119000  0.77146000  0.34165000  1
  O  O166  1  0.49319000  0.00279000  0.14049000  1
  O  O167  1  0.41929000  0.84430000  0.09789000  1
  O  O168  1  0.76994000  0.07087000  0.00964000  1
  O  O169  1  0.73711000  0.14693000  0.92566000  1
  O  O170  1  0.70509000  0.88410000  0.45852000  1
  O  O171  1  0.75006000  0.12473000  0.74381000  1
