# generated using pymatgen
data_H5C10(N2O)2
_symmetry_space_group_name_H-M   'P 1'
_cell_length_a   9.82940000
_cell_length_b   23.09402500
_cell_length_c   23.09400000
_cell_angle_alpha   119.99989257
_cell_angle_beta   90.00000000
_cell_angle_gamma   90.00000000
_symmetry_Int_Tables_number   1
_chemical_formula_structural   H5C10(N2O)2
_chemical_formula_sum   'H30 C60 N24 O12'
_cell_volume   4540.01098462
_cell_formula_units_Z   6
loop_
 _symmetry_equiv_pos_site_id
 _symmetry_equiv_pos_as_xyz
  1  'x, y, z'
loop_
 _atom_site_type_symbol
 _atom_site_label
 _atom_site_symmetry_multiplicity
 _atom_site_fract_x
 _atom_site_fract_y
 _atom_site_fract_z
 _atom_site_occupancy
  C  1  1  0.96059600  0.93902800  0.47451000  1
  C  2  1  0.96062950  0.89998550  0.40298150  1
  C  3  1  0.00426150  0.83245150  0.36622550  1
  C  4  1  0.04278400  0.80044050  0.40298650  1
  C  5  1  0.00886600  0.83126700  0.47227100  1
  C  6  1  0.96962900  0.89950900  0.50623100  1
  C  12  1  0.93245550  0.67531500  0.17337000  1
  C  14  1  0.08947600  0.75974500  0.24952400  1
  C  15  1  0.98435200  0.79509950  0.29573850  1
  C  17  1  0.82466200  0.71559300  0.21507700  1
  C  22  1  0.97592900  0.78944400  0.49948300  1
  C  24  1  0.07409600  0.71142650  0.52928850  1
  C  25  1  0.96460550  0.66618950  0.49981850  1
  C  27  1  0.86252800  0.74570700  0.47294100  1
  C  187  1  0.95514800  0.45694600  0.95916000  1
  C  188  1  0.00189200  0.45164950  0.84984750  1
  C  189  1  0.96892250  0.48761750  0.91879050  1
  C  190  1  0.93979500  0.49484250  0.03136150  1
  C  191  1  0.92982700  0.46347250  0.07111650  1
  C  192  1  0.90972600  0.49826850  0.14129750  1
  C  193  1  0.90968200  0.56982450  0.17653050  1
  C  194  1  0.92453000  0.60421900  0.13976500  1
  C  195  1  0.94161700  0.56634550  0.06934950  1
  C  201  1  0.95867600  0.45344550  0.50936550  1
  C  202  1  0.96668400  0.48542850  0.58063750  1
  C  203  1  0.00318900  0.45129600  0.61510500  1
  C  205  1  0.95278800  0.48974850  0.47323750  1
  C  206  1  0.96392250  0.56105650  0.50498550  1
  C  207  1  0.98206300  0.59566100  0.46920000  1
  C  208  1  0.00190750  0.55726750  0.39866950  1
  C  209  1  0.97037250  0.48782050  0.36392950  1
  C  210  1  0.94196200  0.45663550  0.40194950  1
  C  215  1  0.93730200  0.45531650  0.29476250  1
  C  217  1  0.02936150  0.44042200  0.19084100  1
  C  218  1  0.90615700  0.46185050  0.17595950  1
  C  220  1  0.80911600  0.46883350  0.27574250  1
  C  225  1  0.97266200  0.47895650  0.68434050  1
  C  227  1  0.07972500  0.51140950  0.79089250  1
  C  228  1  0.97755900  0.47932100  0.80788400  1
  C  230  1  0.86629700  0.44980950  0.70284450  1
  C  466  1  0.94938400  0.38535200  0.92120400  1
  C  467  1  0.98870200  0.34687150  0.85316350  1
  C  468  1  0.02840900  0.38185550  0.81968450  1
  C  474  1  0.03861350  0.38224000  0.57683400  1
  C  475  1  0.00448600  0.34560400  0.50762700  1
  C  476  1  0.96155800  0.38196950  0.47648350  1
  C  482  1  0.95464000  0.27777850  0.81445050  1
  C  485  1  0.82795800  0.25964350  0.78021750  1
  C  492  1  0.08885500  0.22913900  0.46231200  1
  C  493  1  0.98292900  0.27539800  0.47486300  1
  C  495  1  0.82633100  0.19591100  0.47782500  1
  C  685  1  0.04501200  0.17181200  0.72749400  1
  C  691  1  0.94613500  0.01133450  0.51098150  1
  C  692  1  0.94437500  0.04984550  0.47808250  1
  C  693  1  0.93169900  0.12032700  0.51144500  1
  C  694  1  0.92762700  0.15692200  0.58286600  1
  C  695  1  0.92822300  0.12136750  0.61885650  1
  C  696  1  0.94180000  0.05060450  0.58245350  1
  C  699  1  0.92328900  0.15665000  0.69008400  1
  C  701  1  0.93547300  0.15382500  0.47389000  1
  H  8  1  0.94669400  0.91986550  0.55564950  1
  H  9  1  0.13703000  0.71740850  0.32838250  1
  H  10  1  0.15933550  0.72856200  0.40278400  1
  H  11  1  0.93200300  0.92101300  0.37522600  1
  H  18  1  0.18906500  0.77097250  0.26331050  1
  H  28  1  0.16035900  0.69709300  0.54347200  1
  H  197  1  0.95526900  0.59326950  0.04584750  1
  H  198  1  0.90009600  0.58463300  0.27206700  1
  H  199  1  0.92544350  0.65256400  0.27071000  1
  H  200  1  0.95103550  0.53742500  0.93858300  1
  H  204  1  0.94396100  0.53494600  0.60937000  1
  H  212  1  0.09528050  0.63126600  0.39060000  1
  H  213  1  0.08943700  0.56165500  0.32052900  1
  H  214  1  0.95850600  0.58982700  0.55570100  1
  H  221  1  0.11682600  0.43731900  0.16548500  1
  H  231  1  0.16711100  0.52763000  0.81839500  1
  H  464  1  0.94887500  0.25163100  0.66373000  1
  H  465  1  0.94380050  0.25071850  0.59377650  1
  H  469  1  0.91697100  0.35878800  0.94291200  1
  H  471  1  0.14234200  0.37675050  0.74425950  1
  H  472  1  0.13079500  0.30569050  0.74216350  1
  H  473  1  0.93633500  0.41281350  0.04911250  1
  H  478  1  0.91684400  0.40734650  0.37509050  1
  H  479  1  0.14002300  0.30853950  0.58401750  1
  H  480  1  0.14713500  0.38120100  0.65083400  1
  H  481  1  0.94070000  0.35390100  0.42680100  1
  H  496  1  0.18821400  0.24249600  0.46292900  1
  H  697  1  0.95436300  0.02688850  0.42749550  1
  H  698  1  0.94592200  0.02771250  0.61035650  1
  H  700  1  0.13166100  0.14494800  0.70641700  1
  N  7  1  0.10802800  0.74022250  0.37424650  1
  N  13  1  0.06017150  0.70010700  0.19415000  1
  N  16  1  0.85632250  0.77091300  0.27494500  1
  N  19  1  0.68948000  0.69231200  0.20013400  1
  N  23  1  0.07796650  0.76816200  0.52458600  1
  N  26  1  0.86624200  0.68628850  0.47215450  1
  N  29  1  0.75508000  0.75905850  0.44074250  1
  N  196  1  0.90823750  0.60524150  0.24509550  1
  N  211  1  0.05691800  0.58706000  0.36584200  1
  N  216  1  0.04099350  0.44242900  0.25060500  1
  N  219  1  0.80221200  0.47412550  0.21955950  1
  N  222  1  0.69717650  0.48885000  0.31982200  1
  N  226  1  0.07651250  0.50653800  0.72939200  1
  N  229  1  0.87781000  0.44919250  0.76133650  1
  N  463  1  0.93540000  0.22538600  0.61626500  1
  N  470  1  0.09578200  0.35047050  0.76007550  1
  N  477  1  0.10443100  0.35332150  0.60796550  1
  N  483  1  0.05685900  0.23221500  0.78466400  1
  N  484  1  0.82141600  0.20229000  0.71951400  1
  N  486  1  0.71815400  0.30506300  0.80132600  1
  N  489  1  0.75846800  0.41522350  0.65851750  1
  N  491  1  0.06207200  0.17395800  0.46726600  1
  N  494  1  0.85624600  0.25546800  0.48148200  1
  N  497  1  0.69282200  0.18128300  0.48892800  1
  O  20  1  0.64065800  0.68257350  0.24480250  1
  O  21  1  0.61674550  0.73494750  0.19637450  1
  O  30  1  0.74670200  0.71386500  0.38059900  1
  O  31  1  0.64412200  0.76080600  0.46849500  1
  O  223  1  0.66491700  0.54833600  0.33860000  1
  O  224  1  0.59647400  0.45234600  0.29074000  1
  O  232  1  0.64663400  0.44035650  0.68572450  1
  O  487  1  0.69353500  0.32267500  0.75894800  1
  O  488  1  0.61306300  0.27789700  0.80774100  1
  O  490  1  0.75786200  0.35503900  0.64366200  1
  O  498  1  0.64888200  0.22534500  0.54483200  1
  O  499  1  0.61470800  0.17886300  0.44481100  1
