# generated using pymatgen
data_V4H30C53O21
_symmetry_space_group_name_H-M   'P 1'
_cell_length_a   6.95960000
_cell_length_b   13.58552000
_cell_length_c   20.24678000
_cell_angle_alpha   103.03527000
_cell_angle_beta   90.64669000
_cell_angle_gamma   90.05554000
_symmetry_Int_Tables_number   1
_chemical_formula_structural   V4H30C53O21
_chemical_formula_sum   'V4 H30 C53 O21'
_cell_volume   1864.86820249
_cell_formula_units_Z   1
loop_
 _symmetry_equiv_pos_site_id
 _symmetry_equiv_pos_as_xyz
  1  'x, y, z'
loop_
 _atom_site_type_symbol
 _atom_site_label
 _atom_site_symmetry_multiplicity
 _atom_site_fract_x
 _atom_site_fract_y
 _atom_site_fract_z
 _atom_site_occupancy
  V  V0  1  0.06466000  0.51189000  0.50231000  1
  V  V1  1  0.56403000  0.48811000  0.49769000  1
  V  V2  1  0.64818000  0.98811000  0.99769000  1
  V  V3  1  0.14880000  0.01195000  0.00230000  1
  H  H4  1  0.89045000  0.16067000  0.51731000  1
  H  H5  1  0.91789000  0.98563000  0.69366000  1
  H  H6  1  0.91449000  0.03230000  0.58480000  1
  H  H7  1  0.82421000  0.39313000  0.69603000  1
  H  H8  1  0.82559000  0.33568000  0.98554000  1
  H  H9  1  0.81386000  0.43238000  0.80092000  1
  H  H10  1  0.79968000  0.46979000  0.92249000  1
  H  H11  1  0.90185000  0.02911000  0.81561000  1
  H  H12  1  0.14298000  0.14205000  0.21751000  1
  H  H13  1  0.12701000  0.25298000  0.33132000  1
  H  H14  1  0.46781000  0.24851000  0.31493000  1
  H  H15  1  0.42313000  0.23753000  0.16060000  1
  H  H16  1  0.48630000  0.13774000  0.20577000  1
  H  H17  1  0.07661000  0.75318000  0.67406000  1
  H  H18  1  0.07941000  0.86234000  0.78833000  1
  H  H19  1  0.79451000  0.72790000  0.83102000  1
  H  H20  1  0.74752000  0.84025000  0.79361000  1
  H  H21  1  0.79101000  0.61996000  0.71959000  1
  H  H22  1  0.74461000  0.73219000  0.68201000  1
  H  H23  1  0.24606000  0.83484000  0.48058000  1
  H  H24  1  0.21104000  0.00750000  0.30325000  1
  H  H25  1  0.20839000  0.96134000  0.41234000  1
  H  H26  1  0.43913000  0.61690000  0.30870000  1
  H  H27  1  0.45604000  0.66980000  0.01893000  1
  H  H28  1  0.51049000  0.58654000  0.20700000  1
  H  H29  1  0.53326000  0.54501000  0.08561000  1
  H  H30  1  0.25255000  0.96472000  0.18202000  1
  H  H31  1  0.20438000  0.35646000  0.19866000  1
  H  H32  1  0.43947000  0.41450000  0.19214000  1
  H  H33  1  0.24863000  0.48392000  0.24037000  1
  C  C34  1  0.34872000  0.61781000  0.61504000  1
  C  C35  1  0.34528000  0.63919000  0.43624000  1
  C  C36  1  0.83982000  0.38211000  0.38497000  1
  C  C37  1  0.84399000  0.36160000  0.56415000  1
  C  C38  1  0.89472000  0.11064000  0.61054000  1
  C  C39  1  0.85487000  0.28458000  0.60397000  1
  C  C40  1  0.83330000  0.31624000  0.93070000  1
  C  C41  1  0.81835000  0.39222000  0.89515000  1
  C  C42  1  0.82666000  0.36922000  0.82460000  1
  C  C43  1  0.85047000  0.26830000  0.78745000  1
  C  C44  1  0.86640000  0.19076000  0.82436000  1
  C  C45  1  0.85891000  0.24172000  0.71509000  1
  C  C46  1  0.88415000  0.13869000  0.68154000  1
  C  C47  1  0.89903000  0.06429000  0.71891000  1
  C  C48  1  0.88997000  0.08971000  0.78911000  1
  C  C49  1  0.84366000  0.31372000  0.67459000  1
  C  C50  1  0.88083000  0.18332000  0.57202000  1
  C  C51  1  0.85757000  0.21590000  0.89607000  1
  C  C52  1  0.70874000  0.24776000  0.20388000  1
  C  C53  1  0.86677000  0.18507000  0.18368000  1
  C  C54  1  0.01978000  0.19046000  0.23042000  1
  C  C55  1  0.01037000  0.25410000  0.29575000  1
  C  C56  1  0.84816000  0.31482000  0.31622000  1
  C  C57  1  0.70016000  0.31238000  0.26823000  1
  C  C58  1  0.49152000  0.29004000  0.27424000  1
  C  C59  1  0.50251000  0.21845000  0.20371000  1
  C  C60  1  0.50125000  0.67958000  0.73037000  1
  C  C61  1  0.35252000  0.68400000  0.68415000  1
  C  C62  1  0.19593000  0.74789000  0.70770000  1
  C  C63  1  0.19682000  0.81042000  0.77348000  1
  C  C64  1  0.35461000  0.81125000  0.81761000  1
  C  C65  1  0.50281000  0.74213000  0.79526000  1
  C  C66  1  0.71375000  0.76015000  0.79322000  1
  C  C67  1  0.71183000  0.69184000  0.72261000  1
  C  C68  1  0.26011000  0.88676000  0.38829000  1
  C  C69  1  0.34839000  0.71838000  0.39771000  1
  C  C70  1  0.43308000  0.68883000  0.07318000  1
  C  C71  1  0.47842000  0.61825000  0.11082000  1
  C  C72  1  0.46133000  0.64263000  0.18101000  1
  C  C73  1  0.38948000  0.73753000  0.21543000  1
  C  C74  1  0.34527000  0.81025000  0.17655000  1
  C  C75  1  0.36252000  0.76296000  0.28714000  1
  C  C76  1  0.29578000  0.86113000  0.31841000  1
  C  C77  1  0.26059000  0.93230000  0.27960000  1
  C  C78  1  0.28421000  0.90730000  0.20981000  1
  C  C79  1  0.39220000  0.69315000  0.32872000  1
  C  C80  1  0.28278000  0.81523000  0.42736000  1
  C  C81  1  0.36943000  0.78517000  0.10525000  1
  C  C82  1  0.36834000  0.86263000  0.06517000  1
  C  C83  1  0.36392000  0.88256000  0.88482000  1
  C  C84  1  0.86873000  0.13837000  0.93582000  1
  C  C85  1  0.87313000  0.11597000  0.11563000  1
  C  C86  1  0.31692000  0.40860000  0.22575000  1
  O  O87  1  0.50677000  0.59970000  0.44955000  1
  O  O88  1  0.17998000  0.59574000  0.58796000  1
  O  O89  1  0.00458000  0.40030000  0.55045000  1
  O  O90  1  0.17738000  0.61170000  0.45238000  1
  O  O91  1  0.00197000  0.41637000  0.41390000  1
  O  O92  1  0.50939000  0.58363000  0.58610000  1
  O  O93  1  0.33753000  0.43589000  0.48753000  1
  O  O94  1  0.67195000  0.40426000  0.41204000  1
  O  O95  1  0.67454000  0.38830000  0.54762000  1
  O  O96  1  0.84103000  0.56411000  0.51247000  1
  O  O97  1  0.20345000  0.91632000  0.91391000  1
  O  O98  1  0.53552000  0.88830000  0.04762000  1
  O  O99  1  0.71086000  0.08365000  0.08610000  1
  O  O100  1  0.53286000  0.90425000  0.91204000  1
  O  O101  1  0.70819000  0.09971000  0.94955000  1
  O  O102  1  0.20612000  0.90026000  0.05046000  1
  O  O103  1  0.37528000  0.06408000  0.01247000  1
  O  O104  1  0.03822000  0.11174000  0.95237000  1
  O  O105  1  0.04088000  0.09579000  0.08794000  1
  O  O106  1  0.87182000  0.93592000  0.98753000  1
  O  O107  1  0.37815000  0.37971000  0.28523000  1
