# generated using pymatgen
data_Co2H18C24N4O9
_symmetry_space_group_name_H-M   'P 1'
_cell_length_a   11.50574000
_cell_length_b   13.69521000
_cell_length_c   26.63119000
_cell_angle_alpha   89.99008000
_cell_angle_beta   89.99279000
_cell_angle_gamma   89.96327000
_symmetry_Int_Tables_number   1
_chemical_formula_structural   Co2H18C24N4O9
_chemical_formula_sum   'Co8 H72 C96 N16 O36'
_cell_volume   4196.36953838
_cell_formula_units_Z   4
loop_
 _symmetry_equiv_pos_site_id
 _symmetry_equiv_pos_as_xyz
  1  'x, y, z'
loop_
 _atom_site_type_symbol
 _atom_site_label
 _atom_site_symmetry_multiplicity
 _atom_site_fract_x
 _atom_site_fract_y
 _atom_site_fract_z
 _atom_site_occupancy
  Co  Co0  1  0.57419000  0.44335000  0.13662000  1
  Co  Co1  1  0.31636000  0.56024000  0.07977000  1
  Co  Co2  1  0.92528000  0.55755000  0.63734000  1
  Co  Co3  1  0.18270000  0.43937000  0.57911000  1
  Co  Co4  1  0.42777000  0.94262000  0.36319000  1
  Co  Co5  1  0.68152000  0.06105000  0.42021000  1
  Co  Co6  1  0.07340000  0.05818000  0.86330000  1
  Co  Co7  1  0.82025000  0.93894000  0.92037000  1
  H  H8  1  0.32252000  0.41000000  0.13846000  1
  H  H9  1  0.40142000  0.36355000  0.09204000  1
  H  H10  1  0.75478000  0.61126000  0.14802000  1
  H  H11  1  0.97221000  0.62697000  0.14532000  1
  H  H12  1  0.99883000  0.31660000  0.16744000  1
  H  H13  1  0.78024000  0.30690000  0.16510000  1
  H  H14  1  0.88059000  0.08417000  0.01058000  1
  H  H15  1  0.78750000  0.21662000  0.06290000  1
  H  H16  1  0.45842000  0.13479000  0.99995000  1
  H  H17  1  0.56200000  0.00419000  0.95048000  1
  H  H18  1  0.36287000  0.81571000  0.17595000  1
  H  H19  1  0.36159000  0.93453000  0.24921000  1
  H  H20  1  0.53563000  0.73384000  0.34008000  1
  H  H21  1  0.54804000  0.61146000  0.26910000  1
  H  H22  1  0.75690000  0.67888000  0.06630000  1
  H  H23  1  0.85195000  0.81588000  0.01765000  1
  H  H24  1  0.62252000  0.78121000  0.89935000  1
  H  H25  1  0.51465000  0.64781000  0.94517000  1
  H  H26  1  0.17939000  0.58907000  0.63854000  1
  H  H27  1  0.09928000  0.63712000  0.59298000  1
  H  H28  1  0.74469000  0.38850000  0.64815000  1
  H  H29  1  0.52699000  0.37316000  0.64537000  1
  H  H30  1  0.50079000  0.68329000  0.66740000  1
  H  H31  1  0.71939000  0.69286000  0.66519000  1
  H  H32  1  0.61912000  0.91689000  0.51026000  1
  H  H33  1  0.71274000  0.78410000  0.56250000  1
  H  H34  1  0.04144000  0.86624000  0.49959000  1
  H  H35  1  0.93787000  0.99682000  0.45020000  1
  H  H36  1  0.13759000  0.18343000  0.67647000  1
  H  H37  1  0.13847000  0.06396000  0.74944000  1
  H  H38  1  0.96418000  0.26476000  0.84054000  1
  H  H39  1  0.95297000  0.38694000  0.76950000  1
  H  H40  1  0.74176000  0.32026000  0.56600000  1
  H  H41  1  0.64711000  0.18212000  0.51740000  1
  H  H42  1  0.87663000  0.21742000  0.39918000  1
  H  H43  1  0.98401000  0.35148000  0.44514000  1
  H  H44  1  0.68183000  0.90803000  0.36214000  1
  H  H45  1  0.60192000  0.86125000  0.40816000  1
  H  H46  1  0.24389000  0.11117000  0.35153000  1
  H  H47  1  0.02551000  0.12748000  0.35449000  1
  H  H48  1  0.99983000  0.81665000  0.33233000  1
  H  H49  1  0.21876000  0.80750000  0.33444000  1
  H  H50  1  0.11835000  0.58320000  0.49034000  1
  H  H51  1  0.21301000  0.71437000  0.43796000  1
  H  H52  1  0.54032000  0.63251000  0.50084000  1
  H  H53  1  0.43790000  0.50233000  0.55067000  1
  H  H54  1  0.63663000  0.31837000  0.32231000  1
  H  H55  1  0.63958000  0.43734000  0.24914000  1
  H  H56  1  0.46479000  0.23684000  0.15806000  1
  H  H57  1  0.45252000  0.11514000  0.22921000  1
  H  H58  1  0.24319000  0.18091000  0.43508000  1
  H  H59  1  0.14576000  0.31810000  0.48297000  1
  H  H60  1  0.37533000  0.28446000  0.60191000  1
  H  H61  1  0.48312000  0.15068000  0.55611000  1
  H  H62  1  0.81678000  0.09140000  0.86123000  1
  H  H63  1  0.89697000  0.13933000  0.90701000  1
  H  H64  1  0.25624000  0.88877000  0.85142000  1
  H  H65  1  0.47458000  0.87280000  0.85457000  1
  H  H66  1  0.50030000  0.18328000  0.83250000  1
  H  H67  1  0.28134000  0.19264000  0.83426000  1
  H  H68  1  0.38183000  0.41729000  0.99023000  1
  H  H69  1  0.28752000  0.28555000  0.93798000  1
  H  H70  1  0.95979000  0.36824000  0.00123000  1
  H  H71  1  0.06340000  0.49842000  0.05061000  1
  H  H72  1  0.86368000  0.68301000  0.82262000  1
  H  H73  1  0.86126000  0.56370000  0.74972000  1
  H  H74  1  0.03529000  0.76402000  0.65836000  1
  H  H75  1  0.04769000  0.88580000  0.72955000  1
  H  H76  1  0.25850000  0.81803000  0.93496000  1
  H  H77  1  0.35396000  0.68046000  0.98323000  1
  H  H78  1  0.12468000  0.71508000  0.10167000  1
  H  H79  1  0.01704000  0.84898000  0.05589000  1
  C  C80  1  0.81166000  0.54759000  0.15151000  1
  C  C81  1  0.93242000  0.55582000  0.15106000  1
  C  C82  1  0.00209000  0.47280000  0.15551000  1
  C  C83  1  0.94739000  0.38287000  0.16292000  1
  C  C84  1  0.82630000  0.37650000  0.16191000  1
  C  C85  1  0.13382000  0.47707000  0.14869000  1
  C  C86  1  0.78610000  0.09642000  0.00926000  1
  C  C87  1  0.73587000  0.16973000  0.03835000  1
  C  C88  1  0.61569000  0.18595000  0.03532000  1
  C  C89  1  0.55295000  0.12467000  0.00349000  1
  C  C90  1  0.60973000  0.05268000  0.97586000  1
  C  C91  1  0.55744000  0.26758000  0.06508000  1
  C  C92  1  0.46071000  0.63146000  0.17425000  1
  C  C93  1  0.45700000  0.70507000  0.21676000  1
  C  C94  1  0.40372000  0.79680000  0.21185000  1
  C  C95  1  0.40174000  0.86182000  0.25231000  1
  C  C96  1  0.49902000  0.75102000  0.30279000  1
  C  C97  1  0.50620000  0.68288000  0.26366000  1
  C  C98  1  0.55984000  0.58282000  0.04253000  1
  C  C99  1  0.62707000  0.65315000  0.00983000  1
  C  C100  1  0.72449000  0.70063000  0.02947000  1
  C  C101  1  0.77664000  0.77604000  0.00264000  1
  C  C102  1  0.64920000  0.75762000  0.93705000  1
  C  C103  1  0.59035000  0.68298000  0.96217000  1
  C  C104  1  0.68799000  0.45220000  0.65181000  1
  C  C105  1  0.56735000  0.44400000  0.65121000  1
  C  C106  1  0.49752000  0.52672000  0.65629000  1
  C  C107  1  0.55189000  0.61697000  0.66299000  1
  C  C108  1  0.67293000  0.62337000  0.66220000  1
  C  C109  1  0.36609000  0.52305000  0.64790000  1
  C  C110  1  0.71351000  0.90422000  0.50857000  1
  C  C111  1  0.76418000  0.83156000  0.53813000  1
  C  C112  1  0.88427000  0.81477000  0.53495000  1
  C  C113  1  0.94708000  0.87648000  0.50339000  1
  C  C114  1  0.89048000  0.94766000  0.47525000  1
  C  C115  1  0.94171000  0.73259000  0.56517000  1
  C  C116  1  0.03714000  0.36822000  0.67361000  1
  C  C117  1  0.04508000  0.29463000  0.71719000  1
  C  C118  1  0.09684000  0.20249000  0.71230000  1
  C  C119  1  0.09859000  0.13677000  0.75253000  1
  C  C120  1  0.00091000  0.24788000  0.80323000  1
  C  C121  1  0.99466000  0.31602000  0.76402000  1
  C  C122  1  0.93756000  0.41872000  0.54194000  1
  C  C123  1  0.87173000  0.34547000  0.50968000  1
  C  C124  1  0.77387000  0.29807000  0.52918000  1
  C  C125  1  0.72206000  0.22243000  0.50219000  1
  C  C126  1  0.84984000  0.24157000  0.43678000  1
  C  C127  1  0.90834000  0.31612000  0.46203000  1
  C  C128  1  0.18745000  0.04710000  0.34804000  1
  C  C129  1  0.06589000  0.05631000  0.34838000  1
  C  C130  1  0.99652000  0.97296000  0.34399000  1
  C  C131  1  0.05149000  0.88309000  0.33646000  1
  C  C132  1  0.17305000  0.87741000  0.33771000  1
  C  C133  1  0.86528000  0.97716000  0.35155000  1
  C  C134  1  0.21266000  0.59570000  0.49128000  1
  C  C135  1  0.26454000  0.66820000  0.46252000  1
  C  C136  1  0.38417000  0.68393000  0.46521000  1
  C  C137  1  0.44631000  0.62317000  0.49728000  1
  C  C138  1  0.39105000  0.55109000  0.52517000  1
  C  C139  1  0.44158000  0.76602000  0.43530000  1
  C  C140  1  0.53851000  0.13304000  0.32554000  1
  C  C141  1  0.54237000  0.20748000  0.28203000  1
  C  C142  1  0.59656000  0.29871000  0.28643000  1
  C  C143  1  0.59884000  0.36485000  0.24643000  1
  C  C144  1  0.50060000  0.25323000  0.19544000  1
  C  C145  1  0.49490000  0.18569000  0.23485000  1
  C  C146  1  0.43781000  0.08135000  0.45881000  1
  C  C147  1  0.37244000  0.15532000  0.49123000  1
  C  C148  1  0.27452000  0.20209000  0.47192000  1
  C  C149  1  0.22188000  0.27874000  0.49752000  1
  C  C150  1  0.35037000  0.26049000  0.56405000  1
  C  C151  1  0.40737000  0.18485000  0.53896000  1
  C  C152  1  0.31292000  0.95268000  0.84804000  1
  C  C153  1  0.43422000  0.94383000  0.84810000  1
  C  C154  1  0.50370000  0.02683000  0.84374000  1
  C  C155  1  0.44882000  0.11688000  0.83627000  1
  C  C156  1  0.32750000  0.12304000  0.83769000  1
  C  C157  1  0.63566000  0.02158000  0.85129000  1
  C  C158  1  0.28742000  0.40477000  0.99156000  1
  C  C159  1  0.23593000  0.33273000  0.96229000  1
  C  C160  1  0.11595000  0.31650000  0.96557000  1
  C  C161  1  0.05389000  0.37836000  0.99732000  1
  C  C162  1  0.11011000  0.44933000  0.02532000  1
  C  C163  1  0.05835000  0.23472000  0.93555000  1
  C  C164  1  0.96202000  0.86795000  0.82545000  1
  C  C165  1  0.95728000  0.79380000  0.78201000  1
  C  C166  1  0.90427000  0.70234000  0.78690000  1
  C  C167  1  0.90145000  0.63640000  0.74688000  1
  C  C168  1  0.99925000  0.74760000  0.69576000  1
  C  C169  1  0.00599000  0.81512000  0.73508000  1
  C  C170  1  0.06403000  0.91792000  0.95882000  1
  C  C171  1  0.12862000  0.84405000  0.99102000  1
  C  C172  1  0.22593000  0.79614000  0.97161000  1
  C  C173  1  0.27973000  0.72144000  0.99807000  1
  C  C174  1  0.15097000  0.74033000  0.06427000  1
  C  C175  1  0.09232000  0.81399000  0.03855000  1
  N  N176  1  0.76170000  0.45845000  0.15575000  1
  N  N177  1  0.72617000  0.03792000  0.97782000  1
  N  N178  1  0.74143000  0.80580000  0.95673000  1
  N  N179  1  0.44869000  0.84013000  0.29775000  1
  N  N180  1  0.73723000  0.54146000  0.65580000  1
  N  N181  1  0.77424000  0.96266000  0.47738000  1
  N  N182  1  0.75729000  0.19364000  0.45608000  1
  N  N183  1  0.05203000  0.15937000  0.79791000  1
  N  N184  1  0.23850000  0.95856000  0.34356000  1
  N  N185  1  0.27427000  0.53837000  0.52261000  1
  N  N186  1  0.25756000  0.30695000  0.54364000  1
  N  N187  1  0.55306000  0.34147000  0.20090000  1
  N  N188  1  0.26231000  0.04147000  0.84342000  1
  N  N189  1  0.22644000  0.46328000  0.02266000  1
  N  N190  1  0.24186000  0.69145000  0.04360000  1
  N  N191  1  0.94836000  0.65920000  0.70161000  1
  O  O192  1  0.38939000  0.42363000  0.11409000  1
  O  O193  1  0.52761000  0.55806000  0.18136000  1
  O  O194  1  0.39918000  0.65030000  0.13562000  1
  O  O195  1  0.61557000  0.54006000  0.07659000  1
  O  O196  1  0.45365000  0.56919000  0.02993000  1
  O  O197  1  0.17089000  0.55299000  0.12433000  1
  O  O198  1  0.19400000  0.40535000  0.16375000  1
  O  O199  1  0.44715000  0.27371000  0.06115000  1
  O  O200  1  0.62182000  0.32101000  0.09195000  1
  O  O201  1  0.11058000  0.57671000  0.61481000  1
  O  O202  1  0.97076000  0.43997000  0.68115000  1
  O  O203  1  0.10221000  0.35047000  0.63629000  1
  O  O204  1  0.88178000  0.46019000  0.57585000  1
  O  O205  1  0.04440000  0.43041000  0.53002000  1
  O  O206  1  0.33082000  0.44640000  0.62419000  1
  O  O207  1  0.30525000  0.59322000  0.66408000  1
  O  O208  1  0.05185000  0.72688000  0.56146000  1
  O  O209  1  0.87731000  0.67969000  0.59171000  1
  O  O210  1  0.61368000  0.92070000  0.38587000  1
  O  O211  1  0.47209000  0.06009000  0.31824000  1
  O  O212  1  0.59934000  0.15440000  0.36350000  1
  O  O213  1  0.38303000  0.04296000  0.42384000  1
  O  O214  1  0.54367000  0.06700000  0.47139000  1
  O  O215  1  0.82830000  0.05439000  0.37492000  1
  O  O216  1  0.80554000  0.90631000  0.33578000  1
  O  O217  1  0.55162000  0.77217000  0.43933000  1
  O  O218  1  0.37751000  0.81972000  0.40802000  1
  O  O219  1  0.88657000  0.07993000  0.88482000  1
  O  O220  1  0.02762000  0.94056000  0.81877000  1
  O  O221  1  0.89906000  0.84830000  0.86325000  1
  O  O222  1  0.11753000  0.95645000  0.92348000  1
  O  O223  1  0.95694000  0.93220000  0.97027000  1
  O  O224  1  0.67198000  0.94524000  0.87447000  1
  O  O225  1  0.69408000  0.09388000  0.83586000  1
  O  O226  1  0.94859000  0.22759000  0.94018000  1
  O  O227  1  0.12244000  0.18105000  0.90832000  1
