# generated using pymatgen
data_Zn5H60C75(N3O2)6
_symmetry_space_group_name_H-M   'P 1'
_cell_length_a   18.94971000
_cell_length_b   20.97276000
_cell_length_c   23.73534605
_cell_angle_alpha   113.65315035
_cell_angle_beta   112.06820706
_cell_angle_gamma   93.87966000
_symmetry_Int_Tables_number   1
_chemical_formula_structural   Zn5H60C75(N3O2)6
_chemical_formula_sum   'Zn10 H120 C150 N36 O24'
_cell_volume   7738.03691139
_cell_formula_units_Z   2
loop_
 _symmetry_equiv_pos_site_id
 _symmetry_equiv_pos_as_xyz
  1  'x, y, z'
loop_
 _atom_site_type_symbol
 _atom_site_label
 _atom_site_symmetry_multiplicity
 _atom_site_fract_x
 _atom_site_fract_y
 _atom_site_fract_z
 _atom_site_occupancy
  Zn  Zn0  1  0.19921000  0.83311000  0.41729000  1
  Zn  Zn1  1  0.31560000  0.79879000  0.32560000  1
  Zn  Zn2  1  0.25225000  0.02239000  0.53353000  1
  Zn  Zn3  1  0.99700000  0.77822000  0.30165000  1
  Zn  Zn4  1  0.23425000  0.73843000  0.51964000  1
  Zn  Zn5  1  0.80080000  0.16691000  0.58272000  1
  Zn  Zn6  1  0.68439000  0.20121000  0.67440000  1
  Zn  Zn7  1  0.74775000  0.97762000  0.46647000  1
  Zn  Zn8  1  0.00301000  0.22179000  0.69836000  1
  Zn  Zn9  1  0.76575000  0.26157000  0.48036000  1
  H  H10  1  0.43877000  0.69251000  0.34991000  1
  H  H11  1  0.51266000  0.62318000  0.40610000  1
  H  H12  1  0.38244000  0.65129000  0.52636000  1
  H  H13  1  0.48171000  0.58622000  0.53914000  1
  H  H14  1  0.49163000  0.53625000  0.46302000  1
  H  H15  1  0.56259000  0.61769000  0.52805000  1
  H  H16  1  0.21725000  0.72784000  0.14657000  1
  H  H17  1  0.09918000  0.67965000  0.03449000  1
  H  H18  1  0.94286000  0.71058000  0.13114000  1
  H  H19  1  0.07264000  0.62454000  0.49474000  1
  H  H20  1  0.92929000  0.56284000  0.44139000  1
  H  H21  1  0.87046000  0.65592000  0.30228000  1
  H  H22  1  0.79599000  0.53658000  0.36461000  1
  H  H23  1  0.76877000  0.60630000  0.34304000  1
  H  H24  1  0.78211000  0.52971000  0.28422000  1
  H  H25  1  0.10601000  0.11148000  0.52429000  1
  H  H26  1  0.86101000  0.01835000  0.37645000  1
  H  H27  1  0.88542000  0.89841000  0.32325000  1
  H  H28  1  0.01305000  0.18444000  0.52700000  1
  H  H29  1  0.93906000  0.16311000  0.44433000  1
  H  H30  1  0.91529000  0.13615000  0.49786000  1
  H  H31  1  0.28844000  0.83243000  0.69334000  1
  H  H32  1  0.32308000  0.94241000  0.80276000  1
  H  H33  1  0.30422000  0.07894000  0.70417000  1
  H  H34  1  0.77468000  0.57492000  0.09212000  1
  H  H35  1  0.64008000  0.54163000  0.99866000  1
  H  H36  1  0.63377000  0.76450000  0.08297000  1
  H  H37  1  0.76963000  0.79641000  0.17700000  1
  H  H38  1  0.53610000  0.53966000  0.90644000  1
  H  H39  1  0.50892000  0.53754000  0.97022000  1
  H  H40  1  0.22870000  0.23547000  0.71816000  1
  H  H41  1  0.28428000  0.36523000  0.80133000  1
  H  H42  1  0.45090000  0.37825000  0.72053000  1
  H  H43  1  0.39544000  0.24655000  0.63809000  1
  H  H44  1  0.42847000  0.65049000  0.21272000  1
  H  H45  1  0.44591000  0.57549000  0.10870000  1
  H  H46  1  0.35166000  0.71287000  0.02052000  1
  H  H47  1  0.34052000  0.78966000  0.12683000  1
  H  H48  1  0.32941000  0.60722000  0.91943000  1
  H  H49  1  0.42434000  0.66975000  0.97129000  1
  H  H50  1  0.31297000  0.48754000  0.82683000  1
  H  H51  1  0.37580000  0.46395000  0.88923000  1
  H  H52  1  0.45090000  0.56807000  0.81814000  1
  H  H53  1  0.46521000  0.65572000  0.88407000  1
  H  H54  1  0.18297000  0.64188000  0.64370000  1
  H  H55  1  0.21278000  0.60172000  0.73468000  1
  H  H56  1  0.45969000  0.65355000  0.78495000  1
  H  H57  1  0.42885000  0.69440000  0.69543000  1
  H  H58  1  0.40199000  0.13099000  0.54382000  1
  H  H59  1  0.50661000  0.16281000  0.51239000  1
  H  H60  1  0.45597000  0.94206000  0.36147000  1
  H  H61  1  0.56253000  0.03325000  0.38300000  1
  H  H62  1  0.53465000  0.11536000  0.39594000  1
  H  H63  1  0.60641000  0.10899000  0.46550000  1
  H  H64  1  0.35270000  0.06818000  0.87047000  1
  H  H65  1  0.38465000  0.12489000  0.84089000  1
  H  H66  1  0.28488000  0.10483000  0.82548000  1
  H  H67  1  0.88868000  0.65897000  0.00946000  1
  H  H68  1  0.94725000  0.69583000  0.98088000  1
  H  H69  1  0.94439000  0.60768000  0.97185000  1
  H  H70  1  0.56123000  0.30749000  0.65009000  1
  H  H71  1  0.48733000  0.37683000  0.59390000  1
  H  H72  1  0.61756000  0.34872000  0.47364000  1
  H  H73  1  0.51829000  0.41379000  0.46087000  1
  H  H74  1  0.50837000  0.46375000  0.53698000  1
  H  H75  1  0.43741000  0.38231000  0.47195000  1
  H  H76  1  0.78275000  0.27216000  0.85343000  1
  H  H77  1  0.90083000  0.32036000  0.96552000  1
  H  H78  1  0.05714000  0.28942000  0.86886000  1
  H  H79  1  0.92736000  0.37546000  0.50526000  1
  H  H80  1  0.07071000  0.43717000  0.55861000  1
  H  H81  1  0.12955000  0.34409000  0.69773000  1
  H  H82  1  0.20401000  0.46342000  0.63539000  1
  H  H83  1  0.23123000  0.39370000  0.65696000  1
  H  H84  1  0.21789000  0.47029000  0.71578000  1
  H  H85  1  0.89399000  0.88852000  0.47571000  1
  H  H86  1  0.13899000  0.98165000  0.62355000  1
  H  H87  1  0.11459000  0.10160000  0.67676000  1
  H  H88  1  0.98695000  0.81556000  0.47300000  1
  H  H89  1  0.06094000  0.83689000  0.55567000  1
  H  H90  1  0.08472000  0.86387000  0.50215000  1
  H  H91  1  0.71156000  0.16757000  0.30666000  1
  H  H92  1  0.67692000  0.05760000  0.19724000  1
  H  H93  1  0.69578000  0.92107000  0.29583000  1
  H  H94  1  0.22531000  0.42509000  0.90788000  1
  H  H95  1  0.35993000  0.45839000  0.00135000  1
  H  H96  1  0.36624000  0.23551000  0.91704000  1
  H  H97  1  0.23037000  0.20359000  0.82300000  1
  H  H98  1  0.46390000  0.46034000  0.09356000  1
  H  H99  1  0.49108000  0.46246000  0.02978000  1
  H  H100  1  0.77130000  0.76454000  0.28184000  1
  H  H101  1  0.71572000  0.63478000  0.19867000  1
  H  H102  1  0.54910000  0.62175000  0.27947000  1
  H  H103  1  0.60456000  0.75346000  0.36191000  1
  H  H104  1  0.57154000  0.34952000  0.78729000  1
  H  H105  1  0.55409000  0.42451000  0.89130000  1
  H  H106  1  0.64835000  0.28715000  0.97949000  1
  H  H107  1  0.65947000  0.21034000  0.87317000  1
  H  H108  1  0.67060000  0.39279000  0.08058000  1
  H  H109  1  0.57566000  0.33026000  0.02871000  1
  H  H110  1  0.68704000  0.51247000  0.17318000  1
  H  H111  1  0.62420000  0.53605000  0.11077000  1
  H  H112  1  0.54910000  0.43194000  0.18186000  1
  H  H113  1  0.53479000  0.34429000  0.11593000  1
  H  H114  1  0.81703000  0.35813000  0.35630000  1
  H  H115  1  0.78722000  0.39828000  0.26532000  1
  H  H116  1  0.54031000  0.34646000  0.21505000  1
  H  H117  1  0.57115000  0.30561000  0.30457000  1
  H  H118  1  0.59801000  0.86901000  0.45618000  1
  H  H119  1  0.49338000  0.83719000  0.48761000  1
  H  H120  1  0.54403000  0.05795000  0.63853000  1
  H  H121  1  0.43746000  0.96676000  0.61700000  1
  H  H122  1  0.46536000  0.88465000  0.60407000  1
  H  H123  1  0.39359000  0.89101000  0.53450000  1
  H  H124  1  0.64730000  0.93182000  0.12953000  1
  H  H125  1  0.61536000  0.87513000  0.15912000  1
  H  H126  1  0.71513000  0.89519000  0.17453000  1
  H  H127  1  0.11132000  0.34105000  0.99055000  1
  H  H128  1  0.05276000  0.30418000  0.01913000  1
  H  H129  1  0.05561000  0.39233000  0.02816000  1
  C  C130  1  0.35261000  0.69681000  0.45550000  1
  C  C131  1  0.36926000  0.70955000  0.40702000  1
  C  C132  1  0.42721000  0.68282000  0.38771000  1
  C  C133  1  0.46705000  0.64449000  0.41917000  1
  C  C134  1  0.45166000  0.63200000  0.46892000  1
  C  C135  1  0.39400000  0.65799000  0.48728000  1
  C  C136  1  0.49927000  0.59092000  0.50160000  1
  C  C137  1  0.06863000  0.74093000  0.19748000  1
  C  C138  1  0.14577000  0.74536000  0.20243000  1
  C  C139  1  0.15829000  0.72335000  0.14330000  1
  C  C140  1  0.09191000  0.69714000  0.08134000  1
  C  C141  1  0.01369000  0.69194000  0.07567000  1
  C  C142  1  0.00169000  0.71421000  0.13411000  1
  C  C143  1  0.99343000  0.68346000  0.37396000  1
  C  C144  1  0.05066000  0.67460000  0.42746000  1
  C  C145  1  0.02879000  0.63047000  0.45296000  1
  C  C146  1  0.94915000  0.59697000  0.42293000  1
  C  C147  1  0.89089000  0.60534000  0.36882000  1
  C  C148  1  0.91312000  0.64881000  0.34376000  1
  C  C149  1  0.80516000  0.56754000  0.33901000  1
  C  C150  1  0.01102000  0.93947000  0.39238000  1
  C  C151  1  0.07257000  0.99933000  0.44846000  1
  C  C152  1  0.05867000  0.06684000  0.47961000  1
  C  C153  1  0.98200000  0.07274000  0.45226000  1
  C  C154  1  0.92051000  0.01177000  0.39558000  1
  C  C155  1  0.93301000  0.94487000  0.36503000  1
  C  C156  1  0.96170000  0.14295000  0.48217000  1
  C  C157  1  0.27755000  0.89491000  0.63738000  1
  C  C158  1  0.29231000  0.88550000  0.69584000  1
  C  C159  1  0.31162000  0.94726000  0.75635000  1
  C  C160  1  0.31680000  0.01747000  0.76081000  1
  C  C161  1  0.30283000  0.02648000  0.70293000  1
  C  C162  1  0.28310000  0.96433000  0.64124000  1
  C  C163  1  0.85953000  0.70532000  0.19712000  1
  C  C164  1  0.78019000  0.68742000  0.14032000  1
  C  C165  1  0.74323000  0.61597000  0.08966000  1
  C  C166  1  0.66754000  0.59744000  0.03728000  1
  C  C167  1  0.62865000  0.65174000  0.03551000  1
  C  C168  1  0.66544000  0.72368000  0.08560000  1
  C  C169  1  0.74051000  0.74112000  0.13740000  1
  C  C170  1  0.50974000  0.56665000  0.94078000  1
  C  C171  1  0.27514000  0.15430000  0.62561000  1
  C  C172  1  0.30819000  0.23280000  0.67283000  1
  C  C173  1  0.27724000  0.26710000  0.71883000  1
  C  C174  1  0.30826000  0.34015000  0.76532000  1
  C  C175  1  0.37116000  0.37956000  0.76568000  1
  C  C176  1  0.40225000  0.34621000  0.71931000  1
  C  C177  1  0.37113000  0.27329000  0.67355000  1
  C  C178  1  0.38337000  0.72506000  0.17636000  1
  C  C179  1  0.41269000  0.66405000  0.17070000  1
  C  C180  1  0.42117000  0.62150000  0.11241000  1
  C  C181  1  0.39827000  0.63819000  0.05744000  1
  C  C182  1  0.36960000  0.69926000  0.06253000  1
  C  C183  1  0.36307000  0.74236000  0.12205000  1
  C  C184  1  0.39256000  0.61305000  0.94772000  1
  C  C185  1  0.42517000  0.56705000  0.89924000  1
  C  C186  1  0.37442000  0.48904000  0.85618000  1
  C  C187  1  0.42717000  0.60046000  0.85267000  1
  C  C188  1  0.28933000  0.69527000  0.61070000  1
  C  C189  1  0.30429000  0.66987000  0.66337000  1
  C  C190  1  0.24317000  0.64388000  0.67476000  1
  C  C191  1  0.25943000  0.62173000  0.72525000  1
  C  C192  1  0.33753000  0.62452000  0.76498000  1
  C  C193  1  0.39907000  0.65052000  0.75433000  1
  C  C194  1  0.38193000  0.67325000  0.70399000  1
  C  C195  1  0.38681000  0.96547000  0.41917000  1
  C  C196  1  0.37096000  0.01831000  0.46964000  1
  C  C197  1  0.41409000  0.09094000  0.50466000  1
  C  C198  1  0.47162000  0.10736000  0.48656000  1
  C  C199  1  0.48771000  0.05479000  0.43508000  1
  C  C200  1  0.44536000  0.98315000  0.40109000  1
  C  C201  1  0.55101000  0.07895000  0.41876000  1
  C  C202  1  0.36768000  0.76785000  0.23576000  1
  C  C203  1  0.33600000  0.08208000  0.82815000  1
  C  C204  1  0.94475000  0.66207000  0.00588000  1
  C  C205  1  0.64739000  0.30321000  0.54451000  1
  C  C206  1  0.63074000  0.29046000  0.59299000  1
  C  C207  1  0.57279000  0.31718000  0.61229000  1
  C  C208  1  0.53294000  0.35552000  0.58083000  1
  C  C209  1  0.54834000  0.36800000  0.53108000  1
  C  C210  1  0.60600000  0.34202000  0.51272000  1
  C  C211  1  0.50073000  0.40909000  0.49840000  1
  C  C212  1  0.93136000  0.25907000  0.80252000  1
  C  C213  1  0.85424000  0.25466000  0.79758000  1
  C  C214  1  0.84170000  0.27666000  0.85670000  1
  C  C215  1  0.90809000  0.30286000  0.91866000  1
  C  C216  1  0.98631000  0.30806000  0.92433000  1
  C  C217  1  0.99831000  0.28579000  0.86589000  1
  C  C218  1  0.00658000  0.31655000  0.62604000  1
  C  C219  1  0.94934000  0.32541000  0.57254000  1
  C  C220  1  0.97121000  0.36953000  0.54704000  1
  C  C221  1  0.05085000  0.40304000  0.57707000  1
  C  C222  1  0.10912000  0.39468000  0.63119000  1
  C  C223  1  0.08689000  0.35120000  0.65625000  1
  C  C224  1  0.19485000  0.43247000  0.66100000  1
  C  C225  1  0.98898000  0.06053000  0.60762000  1
  C  C226  1  0.92743000  0.00067000  0.55154000  1
  C  C227  1  0.94133000  0.93316000  0.52039000  1
  C  C228  1  0.01801000  0.92727000  0.54775000  1
  C  C229  1  0.07950000  0.98824000  0.60443000  1
  C  C230  1  0.06699000  0.05513000  0.63497000  1
  C  C231  1  0.03830000  0.85705000  0.51783000  1
  C  C232  1  0.72245000  0.10509000  0.36262000  1
  C  C233  1  0.70769000  0.11451000  0.30416000  1
  C  C234  1  0.68838000  0.05274000  0.24365000  1
  C  C235  1  0.68321000  0.98254000  0.23920000  1
  C  C236  1  0.69718000  0.97354000  0.29708000  1
  C  C237  1  0.71690000  0.03568000  0.35876000  1
  C  C238  1  0.14048000  0.29469000  0.80289000  1
  C  C239  1  0.21981000  0.31258000  0.85968000  1
  C  C240  1  0.25678000  0.38404000  0.91035000  1
  C  C241  1  0.33247000  0.40257000  0.96273000  1
  C  C242  1  0.37136000  0.34827000  0.96450000  1
  C  C243  1  0.33456000  0.27633000  0.91440000  1
  C  C244  1  0.25949000  0.25889000  0.86260000  1
  C  C245  1  0.49026000  0.43337000  0.05923000  1
  C  C246  1  0.72487000  0.84570000  0.37439000  1
  C  C247  1  0.69181000  0.76721000  0.32717000  1
  C  C248  1  0.72276000  0.73290000  0.28117000  1
  C  C249  1  0.69175000  0.65986000  0.23469000  1
  C  C250  1  0.62884000  0.62044000  0.23432000  1
  C  C251  1  0.59775000  0.65379000  0.28069000  1
  C  C252  1  0.62887000  0.72671000  0.32645000  1
  C  C253  1  0.61664000  0.27495000  0.82365000  1
  C  C254  1  0.58731000  0.33595000  0.82930000  1
  C  C255  1  0.57883000  0.37850000  0.88759000  1
  C  C256  1  0.60173000  0.36181000  0.94256000  1
  C  C257  1  0.63039000  0.30074000  0.93747000  1
  C  C258  1  0.63694000  0.25766000  0.87796000  1
  C  C259  1  0.60744000  0.38695000  0.05228000  1
  C  C260  1  0.57484000  0.43296000  0.10077000  1
  C  C261  1  0.62558000  0.51096000  0.14382000  1
  C  C262  1  0.57283000  0.39954000  0.14733000  1
  C  C263  1  0.71067000  0.30474000  0.38930000  1
  C  C264  1  0.69571000  0.33013000  0.33663000  1
  C  C265  1  0.75683000  0.35613000  0.32524000  1
  C  C266  1  0.74057000  0.37828000  0.27475000  1
  C  C267  1  0.66247000  0.37548000  0.23502000  1
  C  C268  1  0.60094000  0.34949000  0.24568000  1
  C  C269  1  0.61807000  0.32676000  0.29601000  1
  C  C270  1  0.61319000  0.03453000  0.58083000  1
  C  C271  1  0.62904000  0.98169000  0.53036000  1
  C  C272  1  0.58591000  0.90906000  0.49534000  1
  C  C273  1  0.52838000  0.89264000  0.51344000  1
  C  C274  1  0.51228000  0.94522000  0.56492000  1
  C  C275  1  0.55464000  0.01686000  0.59891000  1
  C  C276  1  0.44900000  0.92106000  0.58125000  1
  C  C277  1  0.63231000  0.23215000  0.76424000  1
  C  C278  1  0.66400000  0.91792000  0.17185000  1
  C  C279  1  0.05526000  0.33795000  0.99413000  1
  N  N280  1  0.29442000  0.72974000  0.46283000  1
  N  N281  1  0.27756000  0.76166000  0.42213000  1
  N  N282  1  0.32134000  0.75039000  0.38799000  1
  N  N283  1  0.19622000  0.77301000  0.27054000  1
  N  N284  1  0.15284000  0.78516000  0.30526000  1
  N  N285  1  0.07616000  0.76646000  0.26274000  1
  N  N286  1  0.03248000  0.73097000  0.36289000  1
  N  N287  1  0.10883000  0.75017000  0.40659000  1
  N  N288  1  0.12172000  0.71677000  0.44569000  1
  N  N289  1  0.13972000  0.97591000  0.46240000  1
  N  N290  1  0.12069000  0.90579000  0.41805000  1
  N  N291  1  0.04379000  0.88277000  0.37550000  1
  N  N292  1  0.31133000  0.98377000  0.47457000  1
  N  N293  1  0.29188000  0.91399000  0.43034000  1
  N  N294  1  0.33634000  0.90129000  0.39629000  1
  N  N295  1  0.26389000  0.95496000  0.57631000  1
  N  N296  1  0.24714000  0.88436000  0.53497000  1
  N  N297  1  0.25520000  0.84713000  0.57037000  1
  N  N298  1  0.70559000  0.27028000  0.53718000  1
  N  N299  1  0.72245000  0.23835000  0.57788000  1
  N  N300  1  0.67866000  0.24962000  0.61201000  1
  N  N301  1  0.80378000  0.22700000  0.72947000  1
  N  N302  1  0.84717000  0.21485000  0.69475000  1
  N  N303  1  0.92384000  0.23355000  0.73727000  1
  N  N304  1  0.96753000  0.26905000  0.63712000  1
  N  N305  1  0.89118000  0.24985000  0.59342000  1
  N  N306  1  0.87828000  0.28324000  0.55431000  1
  N  N307  1  0.86029000  0.02410000  0.53761000  1
  N  N308  1  0.87932000  0.09421000  0.58195000  1
  N  N309  1  0.95621000  0.11723000  0.62450000  1
  N  N310  1  0.68867000  0.01624000  0.52544000  1
  N  N311  1  0.70812000  0.08601000  0.56966000  1
  N  N312  1  0.66366000  0.09872000  0.60371000  1
  N  N313  1  0.73611000  0.04505000  0.42369000  1
  N  N314  1  0.75286000  0.11565000  0.46503000  1
  N  N315  1  0.74480000  0.15288000  0.42963000  1
  O  O316  1  0.30752000  0.12485000  0.58479000  1
  O  O317  1  0.21962000  0.11810000  0.62571000  1
  O  O318  1  0.40699000  0.45133000  0.81018000  1
  O  O319  1  0.34176000  0.82267000  0.24089000  1
  O  O320  1  0.37638000  0.74325000  0.27995000  1
  O  O321  1  0.40541000  0.59139000  0.00054000  1
  O  O322  1  0.34591000  0.72567000  0.60695000  1
  O  O323  1  0.21626000  0.68648000  0.56967000  1
  O  O324  1  0.34806000  0.60085000  0.81317000  1
  O  O325  1  0.55454000  0.64018000  0.98647000  1
  O  O326  1  0.89398000  0.65747000  0.20188000  1
  O  O327  1  0.89080000  0.77384000  0.24117000  1
  O  O328  1  0.69248000  0.87515000  0.41521000  1
  O  O329  1  0.78039000  0.88192000  0.37430000  1
  O  O330  1  0.59301000  0.54867000  0.18982000  1
  O  O331  1  0.65824000  0.17734000  0.75911000  1
  O  O332  1  0.62362000  0.25676000  0.72006000  1
  O  O333  1  0.59460000  0.40863000  0.99947000  1
  O  O334  1  0.65409000  0.27434000  0.39305000  1
  O  O335  1  0.78374000  0.31353000  0.43033000  1
  O  O336  1  0.65194000  0.39916000  0.18683000  1
  O  O337  1  0.44546000  0.35983000  0.01353000  1
  O  O338  1  0.10601000  0.34253000  0.79812000  1
  O  O339  1  0.10921000  0.22617000  0.75884000  1
