# generated using pymatgen
data_LaH6(C3O4)3
_symmetry_space_group_name_H-M   'P 1'
_cell_length_a   10.21612391
_cell_length_b   10.31455000
_cell_length_c   10.47152000
_cell_angle_alpha   89.39079000
_cell_angle_beta   61.00348136
_cell_angle_gamma   86.49531236
_symmetry_Int_Tables_number   1
_chemical_formula_structural   LaH6(C3O4)3
_chemical_formula_sum   'La2 H12 C18 O24'
_cell_volume   963.08403756
_cell_formula_units_Z   2
loop_
 _symmetry_equiv_pos_site_id
 _symmetry_equiv_pos_as_xyz
  1  'x, y, z'
loop_
 _atom_site_type_symbol
 _atom_site_label
 _atom_site_symmetry_multiplicity
 _atom_site_fract_x
 _atom_site_fract_y
 _atom_site_fract_z
 _atom_site_occupancy
  La  La0  1  0.65184000  0.05436000  0.67338000  1
  La  La1  1  0.34238000  0.95146000  0.33013000  1
  H  H2  1  0.31917000  0.38705000  0.55141000  1
  H  H3  1  0.55502000  0.27652000  0.39248000  1
  H  H4  1  0.53424000  0.44358000  0.12275000  1
  H  H5  1  0.31469000  0.24657000  0.10300000  1
  H  H6  1  0.12203000  0.44090000  0.34508000  1
  H  H7  1  0.07541000  0.23641000  0.57063000  1
  H  H8  1  0.67310000  0.60460000  0.45776000  1
  H  H9  1  0.43946000  0.72619000  0.61483000  1
  H  H10  1  0.45981000  0.55713000  0.87745000  1
  H  H11  1  0.68589000  0.75761000  0.89949000  1
  H  H12  1  0.87696000  0.55795000  0.65667000  1
  H  H13  1  0.92887000  0.76138000  0.42127000  1
  C  C14  1  0.40611000  0.37549000  0.58570000  1
  C  C15  1  0.41111000  0.13981000  0.55247000  1
  C  C16  1  0.51849000  0.25763000  0.51024000  1
  C  C17  1  0.56306000  0.47749000  0.01135000  1
  C  C18  1  0.53529000  0.12735000  0.02858000  1
  C  C19  1  0.41359000  0.20250000  0.00598000  1
  C  C20  1  0.00967000  0.48290000  0.42593000  1
  C  C21  1  0.01088000  0.11789000  0.43062000  1
  C  C22  1  0.97774000  0.19905000  0.56686000  1
  C  C23  1  0.59622000  0.62257000  0.41204000  1
  C  C24  1  0.60704000  0.85974000  0.43546000  1
  C  C25  1  0.47042000  0.73038000  0.49774000  1
  C  C26  1  0.43159000  0.52626000  0.98952000  1
  C  C27  1  0.46393000  0.87255000  0.97339000  1
  C  C28  1  0.58519000  0.79873000  0.99717000  1
  C  C29  1  0.98927000  0.51588000  0.57586000  1
  C  C30  1  0.98719000  0.87770000  0.56864000  1
  C  C31  1  0.02400000  0.79893000  0.42907000  1
  O  O32  1  0.41476000  0.45317000  0.66701000  1
  O  O33  1  0.42585000  0.05541000  0.63329000  1
  O  O34  1  0.33030000  0.14107000  0.49144000  1
  O  O35  1  0.63020000  0.23507000  0.53976000  1
  O  O36  1  0.69210000  0.47807000  0.91157000  1
  O  O37  1  0.64736000  0.08018000  0.91411000  1
  O  O38  1  0.50828000  0.11267000  0.15911000  1
  O  O39  1  0.42612000  0.21017000  0.88352000  1
  O  O40  1  0.90832000  0.50561000  0.39680000  1
  O  O41  1  0.90182000  0.06034000  0.43707000  1
  O  O42  1  0.14574000  0.11153000  0.32856000  1
  O  O43  1  0.84871000  0.21980000  0.66650000  1
  O  O44  1  0.60120000  0.55749000  0.31412000  1
  O  O45  1  0.59177000  0.92956000  0.34794000  1
  O  O46  1  0.67562000  0.84865000  0.50498000  1
  O  O47  1  0.36822000  0.75954000  0.46389000  1
  O  O48  1  0.30312000  0.52877000  0.09071000  1
  O  O49  1  0.35346000  0.92360000  0.08694000  1
  O  O50  1  0.49074000  0.88283000  0.84259333  1
  O  O51  1  0.57092000  0.79006000  0.12014000  1
  O  O52  1  0.09096000  0.49377000  0.60453000  1
  O  O53  1  0.09646000  0.93389000  0.56416000  1
  O  O54  1  0.85196000  0.88224000  0.66859000  1
  O  O55  1  0.15411000  0.77973000  0.33141000  1
