# generated using pymatgen
data_H21(C8N)4
_symmetry_space_group_name_H-M   'P 1'
_cell_length_a   10.01586667
_cell_length_b   57.20030000
_cell_length_c   57.20030000
_cell_angle_alpha   60.00000000
_cell_angle_beta   89.98270000
_cell_angle_gamma   89.98360000
_symmetry_Int_Tables_number   1
_chemical_formula_structural   H21(C8N)4
_chemical_formula_sum   'H252 C384 N48'
_cell_volume   28380.21976898
_cell_formula_units_Z   12
loop_
 _symmetry_equiv_pos_site_id
 _symmetry_equiv_pos_as_xyz
  1  'x, y, z'
loop_
 _atom_site_type_symbol
 _atom_site_label
 _atom_site_symmetry_multiplicity
 _atom_site_fract_x
 _atom_site_fract_y
 _atom_site_fract_z
 _atom_site_occupancy
  C  1  1  0.02159400  0.47166400  0.21883133  1
  C  2  1  0.02924900  0.47160800  0.24287900  1
  C  3  1  0.02497600  0.49830400  0.23740367  1
  C  5  1  0.02019500  0.49843333  0.19772367  1
  C  6  1  0.01586200  0.50655133  0.16972567  1
  C  7  1  0.01420300  0.53393833  0.14856300  1
  C  9  1  0.01228800  0.57926767  0.12611867  1
  C  10  1  0.00622600  0.57060267  0.10722700  1
  C  11  1  0.01152800  0.54283867  0.12095000  1
  C  12  1  0.01296600  0.60658467  0.12016833  1
  C  13  1  0.01633100  0.61460333  0.14007400  1
  C  15  1  0.01889600  0.61447533  0.17965533  1
  C  16  1  0.01068800  0.64121267  0.15860367  1
  C  17  1  0.01405200  0.64133167  0.13450533  1
  C  18  1  0.02167200  0.60626600  0.20763833  1
  C  19  1  0.02715400  0.57885533  0.22880733  1
  C  21  1  0.02564500  0.53348100  0.25149000  1
  C  22  1  0.02460800  0.54227933  0.27028833  1
  C  23  1  0.03122600  0.57002267  0.25640933  1
  C  24  1  0.02342800  0.50614533  0.25751033  1
  C  25  1  0.01270800  0.48534700  0.28536933  1
  C  26  1  0.11160000  0.48146333  0.30461000  1
  C  27  1  0.09763100  0.46125400  0.33186167  1
  C  28  1  0.99074400  0.44237500  0.34083267  1
  C  29  1  0.89581800  0.44587633  0.32088500  1
  C  30  1  0.90223300  0.46762833  0.29429267  1
  C  31  1  0.01039000  0.62673933  0.21505033  1
  C  32  1  0.10788600  0.64711367  0.20757200  1
  C  33  1  0.09294900  0.66738433  0.21448033  1
  C  34  1  0.98669900  0.66691200  0.23118533  1
  C  35  1  0.89330900  0.64551767  0.23951067  1
  C  36  1  0.90023700  0.62688833  0.23038167  1
  C  37  1  0.00836400  0.62725133  0.09232433  1
  C  38  1  0.89801000  0.64490500  0.08168433  1
  C  39  1  0.89415500  0.66502700  0.05429600  1
  C  40  1  0.99377900  0.66673900  0.03588000  1
  C  41  1  0.10371300  0.64876100  0.04688300  1
  C  42  1  0.11357600  0.63016300  0.07463400  1
  C  43  1  0.01227900  0.48593633  0.16237700  1
  C  44  1  0.90128600  0.48311367  0.14872700  1
  C  45  1  0.11879800  0.46748700  0.16903867  1
  C  46  1  0.10892200  0.44563233  0.16438433  1
  C  47  1  0.99774100  0.44240500  0.15081533  1
  C  48  1  0.89724100  0.46254100  0.14205900  1
  C  75  1  0.02190200  0.21927567  0.24372600  1
  C  76  1  0.03001900  0.24330800  0.21972667  1
  C  77  1  0.02469800  0.23781967  0.19852167  1
  C  79  1  0.01972300  0.19815767  0.23808200  1
  C  80  1  0.01465400  0.17016733  0.25797200  1
  C  81  1  0.01266600  0.14899800  0.25175800  1
  C  83  1  0.01106000  0.12654267  0.22888467  1
  C  84  1  0.00440000  0.10765933  0.25643733  1
  C  85  1  0.00944200  0.12138767  0.27047433  1
  C  86  1  0.01220600  0.12057867  0.20752800  1
  C  87  1  0.01615200  0.14046867  0.17960200  1
  C  89  1  0.01880700  0.18003800  0.14013700  1
  C  90  1  0.01097100  0.15897100  0.13446867  1
  C  91  1  0.01458400  0.13488033  0.15845400  1
  C  92  1  0.02126200  0.20801967  0.12035267  1
  C  93  1  0.02616400  0.22920100  0.12658167  1
  C  95  1  0.02451600  0.25189233  0.14926467  1
  C  96  1  0.02325000  0.27068933  0.12166833  1
  C  97  1  0.02960000  0.25680500  0.10780667  1
  C  98  1  0.02263900  0.25791900  0.17057500  1
  C  99  1  0.01197800  0.28577467  0.16352533  1
  C  100  1  0.11074900  0.30502400  0.14810867  1
  C  101  1  0.09684200  0.33227067  0.14108900  1
  C  102  1  0.99018900  0.34121767  0.15108100  1
  C  103  1  0.89547400  0.32125500  0.16760333  1
  C  104  1  0.90161500  0.29468133  0.17237967  1
  C  105  1  0.00987100  0.21541100  0.09247333  1
  C  106  1  0.10742700  0.20796033  0.07955400  1
  C  107  1  0.09245100  0.21485467  0.05238200  1
  C  108  1  0.98607000  0.23152100  0.03617200  1
  C  109  1  0.89248900  0.23978867  0.04926867  1
  C  110  1  0.89959500  0.23069733  0.07701667  1
  C  111  1  0.00769300  0.09273167  0.21471933  1
  C  112  1  0.89752900  0.08208500  0.20767200  1
  C  113  1  0.89372700  0.05468967  0.21496433  1
  C  114  1  0.99333000  0.03628800  0.23168433  1
  C  115  1  0.10310300  0.04730133  0.23868133  1
  C  116  1  0.11285700  0.07505333  0.22952800  1
  C  117  1  0.01112900  0.16282733  0.28593500  1
  C  118  1  0.90003700  0.14923900  0.30241900  1
  C  119  1  0.11785800  0.16942433  0.29771933  1
  C  120  1  0.10823500  0.16473400  0.32424367  1
  C  121  1  0.99696300  0.15122300  0.34105433  1
  C  122  1  0.89616100  0.14254767  0.32966867  1
  C  149  1  0.02295500  0.24413600  0.47128033  1
  C  150  1  0.03097600  0.22014167  0.47123400  1
  C  151  1  0.02603400  0.19892867  0.49792767  1
  C  153  1  0.02112300  0.23848167  0.49804700  1
  C  154  1  0.01629000  0.25836467  0.50615833  1
  C  155  1  0.01442400  0.25214600  0.53354300  1
  C  157  1  0.01282500  0.22926600  0.57887267  1
  C  158  1  0.00626700  0.25681867  0.57020800  1
  C  159  1  0.01134700  0.27085867  0.54244100  1
  C  160  1  0.01382600  0.20790400  0.60619100  1
  C  161  1  0.01761700  0.17998000  0.61421633  1
  C  163  1  0.02017500  0.14052200  0.61409833  1
  C  164  1  0.01235500  0.13484500  0.64083667  1
  C  165  1  0.01587200  0.15882700  0.64094833  1
  C  166  1  0.02261000  0.12074400  0.60589267  1
  C  167  1  0.02757300  0.12697867  0.57848000  1
  C  169  1  0.02601600  0.14966700  0.53310533  1
  C  170  1  0.02481800  0.12207167  0.54190167  1
  C  171  1  0.03104800  0.10820467  0.56964900  1
  C  172  1  0.02411900  0.17098200  0.50576967  1
  C  173  1  0.01322500  0.16393433  0.48496600  1
  C  174  1  0.11187800  0.14852167  0.48108700  1
  C  175  1  0.09768200  0.14148633  0.46087700  1
  C  176  1  0.99079200  0.15144733  0.44200300  1
  C  177  1  0.89618300  0.16796533  0.44548633  1
  C  178  1  0.90272400  0.17278433  0.46725067  1
  C  179  1  0.01113700  0.09286467  0.62637300  1
  C  180  1  0.10865400  0.07992533  0.64673633  1
  C  181  1  0.09350800  0.05275867  0.66702100  1
  C  182  1  0.98704900  0.03657233  0.66655800  1
  C  183  1  0.89366600  0.04968367  0.64516767  1
  C  184  1  0.90067800  0.07744533  0.62655867  1
  C  185  1  0.00919000  0.21508467  0.62685500  1
  C  186  1  0.89894800  0.20803100  0.64454200  1
  C  187  1  0.89499600  0.21531567  0.66465100  1
  C  188  1  0.99453600  0.23203433  0.66634700  1
  C  189  1  0.10439100  0.23903633  0.64834500  1
  C  190  1  0.11426400  0.22990000  0.62973333  1
  C  191  1  0.01262600  0.28632700  0.48553933  1
  C  192  1  0.90151400  0.30279233  0.48269367  1
  C  193  1  0.11927600  0.29812967  0.46712767  1
  C  194  1  0.10929200  0.32462667  0.44525533  1
  C  195  1  0.99803200  0.34142467  0.44201000  1
  C  196  1  0.89744000  0.33003500  0.46212567  1
  C  223  1  0.02050300  0.48502433  0.73709400  1
  C  224  1  0.02851100  0.48508400  0.71304667  1
  C  225  1  0.02409700  0.45839100  0.71851567  1
  C  227  1  0.01906700  0.45825400  0.75819833  1
  C  228  1  0.01449400  0.45013200  0.78619700  1
  C  229  1  0.01268600  0.42274467  0.80735467  1
  C  231  1  0.01087000  0.37741600  0.82979200  1
  C  232  1  0.00471800  0.38607400  0.84868867  1
  C  233  1  0.00985900  0.41383900  0.83496867  1
  C  234  1  0.01169900  0.35010167  0.83573700  1
  C  235  1  0.01530200  0.34208533  0.81583067  1
  C  237  1  0.01819800  0.34222267  0.77624567  1
  C  238  1  0.00974600  0.31548667  0.79729100  1
  C  239  1  0.01309500  0.31535800  0.82139467  1
  C  240  1  0.02115200  0.35043600  0.74826167  1
  C  241  1  0.02651300  0.37784767  0.72709333  1
  C  243  1  0.02482700  0.42322133  0.70441933  1
  C  244  1  0.02400000  0.41443000  0.68561567  1
  C  245  1  0.03056900  0.38668600  0.69948967  1
  C  246  1  0.02268000  0.45055500  0.69840567  1
  C  247  1  0.01196900  0.47136000  0.67054867  1
  C  248  1  0.11088000  0.47524167  0.65130167  1
  C  249  1  0.09690200  0.49545133  0.62405000  1
  C  250  1  0.99003300  0.51433833  0.61509433  1
  C  251  1  0.89511500  0.51084567  0.63504900  1
  C  252  1  0.90143600  0.48907433  0.66163167  1
  C  253  1  0.00999000  0.32996000  0.74085200  1
  C  254  1  0.10754400  0.30958433  0.74835033  1
  C  255  1  0.09267900  0.28928667  0.74147967  1
  C  256  1  0.98660800  0.28976733  0.72474633  1
  C  257  1  0.89313700  0.31115567  0.71640700  1
  C  258  1  0.89992600  0.32979867  0.72551933  1
  C  259  1  0.00723600  0.32943400  0.86358000  1
  C  260  1  0.89693400  0.31177700  0.87425367  1
  C  261  1  0.89323600  0.29165767  0.90164400  1
  C  262  1  0.99296800  0.28995667  0.92002767  1
  C  263  1  0.10278300  0.30795533  0.90898833  1
  C  264  1  0.11262900  0.32651500  0.88122600  1
  C  265  1  0.01093800  0.47074367  0.79355067  1
  C  266  1  0.89993800  0.47358233  0.80720333  1
  C  267  1  0.11750100  0.48917333  0.78689400  1
  C  268  1  0.10768500  0.51102400  0.79155667  1
  C  269  1  0.99651300  0.51426733  0.80513000  1
  C  270  1  0.89595300  0.49414900  0.81388100  1
  C  297  1  0.01979500  0.73745300  0.71215033  1
  C  298  1  0.02752300  0.71340733  0.73614333  1
  C  299  1  0.02327100  0.71888633  0.75736200  1
  C  301  1  0.01836800  0.75856267  0.71780867  1
  C  302  1  0.01399500  0.78655933  0.69792500  1
  C  303  1  0.01231800  0.80772600  0.70414333  1
  C  305  1  0.01046000  0.83017500  0.72702267  1
  C  306  1  0.00441000  0.84906500  0.69946600  1
  C  307  1  0.00967500  0.83533800  0.68542833  1
  C  308  1  0.01119800  0.83613000  0.74838600  1
  C  309  1  0.01456300  0.81622900  0.77631167  1
  C  311  1  0.01729900  0.77665133  0.81576833  1
  C  312  1  0.00899700  0.79770467  0.82145033  1
  C  313  1  0.01225600  0.82180133  0.79746867  1
  C  314  1  0.02025500  0.74867033  0.83554467  1
  C  315  1  0.02574400  0.72749733  0.82930800  1
  C  317  1  0.02413700  0.70480867  0.80662300  1
  C  318  1  0.02326200  0.68601333  0.83422033  1
  C  319  1  0.02994800  0.69989767  0.84807933  1
  C  320  1  0.02184000  0.69878333  0.78531133  1
  C  321  1  0.01115900  0.67092300  0.79237733  1
  C  322  1  0.11010900  0.65168300  0.80772400  1
  C  323  1  0.09616800  0.62443033  0.81477067  1
  C  324  1  0.98925500  0.61545800  0.80487367  1
  C  325  1  0.89428500  0.63540533  0.78843300  1
  C  326  1  0.90066500  0.66199800  0.78359100  1
  C  327  1  0.00917100  0.74126400  0.86343100  1
  C  328  1  0.10673500  0.74876567  0.87629400  1
  C  329  1  0.09198000  0.74186767  0.90347267  1
  C  330  1  0.98586200  0.72515067  0.91973867  1
  C  331  1  0.89241800  0.71680100  0.90670300  1
  C  332  1  0.89914900  0.72591933  0.87894433  1
  C  333  1  0.00686700  0.86397700  0.74120133  1
  C  334  1  0.89665400  0.87468000  0.74818600  1
  C  335  1  0.89314700  0.90207100  0.74091900  1
  C  336  1  0.99302100  0.92042733  0.72424833  1
  C  337  1  0.10278100  0.90936200  0.71729167  1
  C  338  1  0.11227800  0.88160700  0.72644333  1
  C  339  1  0.01052900  0.79390467  0.66996267  1
  C  340  1  0.89959600  0.80756333  0.65346633  1
  C  341  1  0.11714000  0.78723833  0.65819867  1
  C  342  1  0.10743600  0.79190267  0.63168267  1
  C  343  1  0.99633400  0.80548600  0.61486033  1
  C  344  1  0.89570400  0.81423800  0.62622167  1
  C  371  1  0.02199100  0.71258467  0.48464533  1
  C  372  1  0.03003000  0.73658267  0.48468233  1
  C  373  1  0.02487600  0.75778867  0.45798833  1
  C  375  1  0.02001300  0.71823033  0.45788233  1
  C  376  1  0.01506300  0.69834300  0.44977833  1
  C  377  1  0.01319600  0.70456000  0.42239333  1
  C  379  1  0.01161700  0.72743600  0.37706433  1
  C  380  1  0.00510800  0.69988300  0.38573167  1
  C  381  1  0.01013100  0.68584467  0.41349800  1
  C  382  1  0.01269500  0.74879433  0.34974467  1
  C  383  1  0.01649000  0.77671933  0.34171133  1
  C  385  1  0.01902500  0.81618200  0.34182033  1
  C  386  1  0.01109000  0.82185300  0.31508533  1
  C  387  1  0.01477400  0.79786933  0.31497600  1
  C  388  1  0.02147400  0.83596500  0.35001967  1
  C  389  1  0.02639600  0.82973233  0.37743133  1
  C  391  1  0.02472600  0.80704800  0.42280533  1
  C  392  1  0.02349000  0.83464400  0.41400667  1
  C  393  1  0.02985700  0.84850700  0.38626167  1
  C  394  1  0.02278900  0.78573533  0.45014200  1
  C  395  1  0.01195600  0.79278500  0.47094567  1
  C  396  1  0.11064300  0.80819100  0.47480767  1
  C  397  1  0.09654100  0.81521600  0.49502767  1
  C  398  1  0.98974400  0.80524000  0.51393167  1
  C  399  1  0.89512500  0.78872333  0.51046500  1
  C  400  1  0.90147400  0.78394400  0.48867233  1
  C  401  1  0.01007900  0.86384500  0.32953333  1
  C  402  1  0.10762700  0.87675500  0.30916367  1
  C  403  1  0.09266900  0.90393000  0.28888867  1
  C  404  1  0.98630800  0.92014900  0.28934667  1
  C  405  1  0.89271800  0.90706000  0.31070567  1
  C  406  1  0.89981700  0.87931000  0.32936233  1
  C  407  1  0.00820400  0.74160367  0.32908800  1
  C  408  1  0.89799000  0.74863367  0.31140567  1
  C  409  1  0.89419500  0.74133033  0.29131067  1
  C  410  1  0.99384700  0.72461367  0.28962833  1
  C  411  1  0.10368100  0.71764033  0.30762267  1
  C  412  1  0.11343500  0.72680633  0.32621167  1
  C  413  1  0.01143000  0.67038000  0.47039833  1
  C  414  1  0.90033900  0.65391567  0.47325367  1
  C  415  1  0.11801900  0.65857533  0.48881800  1
  C  416  1  0.10825400  0.63205067  0.51064567  1
  C  417  1  0.99699100  0.61526133  0.51390233  1
  C  418  1  0.89633800  0.62666633  0.49380633  1
  C  445  1  0.98795800  0.36825000  0.41873533  1
  C  446  1  0.86628100  0.38034300  0.40523400  1
  C  447  1  0.86467300  0.40598400  0.38110867  1
  C  448  1  0.98507200  0.41940867  0.36802667  1
  C  449  1  0.10457000  0.40767400  0.38238733  1
  C  450  1  0.10527900  0.38356000  0.40731467  1
  C  452  1  0.62349600  0.40463767  0.38073733  1
  C  453  1  0.62572400  0.37817933  0.40329033  1
  C  457  1  0.50101000  0.41960000  0.36704867  1
  C  461  1  0.50819900  0.36090700  0.41633633  1
  C  465  1  0.98760800  0.41912200  0.14728333  1
  C  466  1  0.86589100  0.40562600  0.14871833  1
  C  467  1  0.86421400  0.38149033  0.14722400  1
  C  468  1  0.98457200  0.36840700  0.14685933  1
  C  469  1  0.10412100  0.38275733  0.14421133  1
  C  470  1  0.10490100  0.40769300  0.14338200  1
  C  472  1  0.62305600  0.38112600  0.14898533  1
  C  473  1  0.62534200  0.40369500  0.15286533  1
  C  477  1  0.50052200  0.36743567  0.14774533  1
  C  481  1  0.50785500  0.41675767  0.15709333  1
  C  485  1  0.98714800  0.14764567  0.36789533  1
  C  486  1  0.86561100  0.14907667  0.38002767  1
  C  487  1  0.86429200  0.14756400  0.40566733  1
  C  488  1  0.98483100  0.14719200  0.41905867  1
  C  489  1  0.10418100  0.14455400  0.40728333  1
  C  490  1  0.10461500  0.14374100  0.38316900  1
  C  492  1  0.62311800  0.14931767  0.40441000  1
  C  493  1  0.62504400  0.15321300  0.37795467  1
  C  497  1  0.50080900  0.14806133  0.41941833  1
  C  501  1  0.50732000  0.15744200  0.36073267  1
  C  505  1  0.98696900  0.58842333  0.53716067  1
  C  506  1  0.86532300  0.57633233  0.55068800  1
  C  507  1  0.86378600  0.55069633  0.57481833  1
  C  508  1  0.98421200  0.53726800  0.58787967  1
  C  509  1  0.10368200  0.54901100  0.57350567  1
  C  510  1  0.10432900  0.57311500  0.54856767  1
  C  512  1  0.62261700  0.55203700  0.57523133  1
  C  513  1  0.62476500  0.57849300  0.55267567  1
  C  517  1  0.50017000  0.53707500  0.58894667  1
  C  521  1  0.50719200  0.59576167  0.53964667  1
  C  525  1  0.98645900  0.53754533  0.80867467  1
  C  526  1  0.86478100  0.55105233  0.80726867  1
  C  527  1  0.86318500  0.57518100  0.80877700  1
  C  528  1  0.98358600  0.58826100  0.80910867  1
  C  529  1  0.10309300  0.57389700  0.81172867  1
  C  530  1  0.10380100  0.54896600  0.81254900  1
  C  532  1  0.62200900  0.57556400  0.80706433  1
  C  533  1  0.62422300  0.55300633  0.80316533  1
  C  537  1  0.49952300  0.58926367  0.80833200  1
  C  541  1  0.50669200  0.53996667  0.79894100  1
  C  545  1  0.98642100  0.80903600  0.58803600  1
  C  546  1  0.86482400  0.80761533  0.57593233  1
  C  547  1  0.86339600  0.80911500  0.55029967  1
  C  548  1  0.98389200  0.80947000  0.53689167  1
  C  549  1  0.10331100  0.81211400  0.54863233  1
  C  550  1  0.10384100  0.81294067  0.57273967  1
  C  552  1  0.62223000  0.80737300  0.55161267  1
  C  553  1  0.62427600  0.80348800  0.57806433  1
  C  557  1  0.49985200  0.80862200  0.53663900  1
  C  561  1  0.50663300  0.79926367  0.59531500  1
  C  565  1  0.98368300  0.71395800  0.27155200  1
  C  566  1  0.86184700  0.70546700  0.26535300  1
  C  567  1  0.86025000  0.69262367  0.24950900  1
  C  568  1  0.98083800  0.68539133  0.24151767  1
  C  569  1  0.10039800  0.69528533  0.24662167  1
  C  570  1  0.10108700  0.70997000  0.26023400  1
  C  572  1  0.61920200  0.69108733  0.25156733  1
  C  573  1  0.62145900  0.70169567  0.26923500  1
  C  577  1  0.49672700  0.68382733  0.24228633  1
  C  581  1  0.50402700  0.70650333  0.28189533  1
  C  585  1  0.98282500  0.27188500  0.94876133  1
  C  586  1  0.86100900  0.26567200  0.96347167  1
  C  587  1  0.85947100  0.24981933  0.99215867  1
  C  588  1  0.98006900  0.24182467  0.00736433  1
  C  589  1  0.09960900  0.24694900  0.99234100  1
  C  590  1  0.10024600  0.26054967  0.96404300  1
  C  592  1  0.61841400  0.25185967  0.99167967  1
  C  593  1  0.62062100  0.26954533  0.96340633  1
  C  597  1  0.49597800  0.24256933  0.00824533  1
  C  601  1  0.50315800  0.28221167  0.94596433  1
  C  605  1  0.98314300  0.94916100  0.71361267  1
  C  606  1  0.86145800  0.96391600  0.70510467  1
  C  607  1  0.86017200  0.99260400  0.69226733  1
  C  608  1  0.98091800  0.00776433  0.68504567  1
  C  609  1  0.10032700  0.99270200  0.69496567  1
  C  610  1  0.10070500  0.96440500  0.70965333  1
  C  612  1  0.61911200  0.99221400  0.69069800  1
  C  613  1  0.62105900  0.96393900  0.70129433  1
  C  617  1  0.49682700  0.00882500  0.68341900  1
  C  621  1  0.50342800  0.94653900  0.70607033  1
  C  625  1  0.98415200  0.24268333  0.68442633  1
  C  626  1  0.86220900  0.25117100  0.69060833  1
  C  627  1  0.86041100  0.26401933  0.70644700  1
  C  628  1  0.98087000  0.27124300  0.71446833  1
  C  629  1  0.10054800  0.26136800  0.70936067  1
  C  630  1  0.10143600  0.24666700  0.69576433  1
  C  632  1  0.61937300  0.26555433  0.70435433  1
  C  633  1  0.62183900  0.25494733  0.68668600  1
  C  637  1  0.49677900  0.27281867  0.71361267  1
  C  641  1  0.50454500  0.25014067  0.67400567  1
  C  645  1  0.98343400  0.68481400  0.00715033  1
  C  646  1  0.86150700  0.69099100  0.99248833  1
  C  647  1  0.85971200  0.70682900  0.96380133  1
  C  648  1  0.98018900  0.71483300  0.94854867  1
  C  649  1  0.09984800  0.70975200  0.96351700  1
  C  650  1  0.10072600  0.69614667  0.99181400  1
  C  652  1  0.61866600  0.70473867  0.96438133  1
  C  653  1  0.62112000  0.68707233  0.99265733  1
  C  657  1  0.49607800  0.71400167  0.94787200  1
  C  661  1  0.50382600  0.67439667  0.01015667  1
  C  665  1  0.98318500  0.00756100  0.24231233  1
  C  666  1  0.86134900  0.99286500  0.25079933  1
  C  667  1  0.85977100  0.96417800  0.26362967  1
  C  668  1  0.98034900  0.94895800  0.27084867  1
  C  669  1  0.09991800  0.96396700  0.26097133  1
  C  670  1  0.10059700  0.99226500  0.24628333  1
  C  672  1  0.61871400  0.96469000  0.26517400  1
  C  673  1  0.62096800  0.99296300  0.25458667  1
  C  677  1  0.49624800  0.94814200  0.27243967  1
  C  681  1  0.50353600  0.01042200  0.24980467  1
  H  49  1  0.81810900  0.46245367  0.13086500  1
  H  50  1  0.82299000  0.49635167  0.14314333  1
  H  51  1  0.18376300  0.43161067  0.17186700  1
  H  52  1  0.20087600  0.46879100  0.17899633  1
  H  53  1  0.01841700  0.45446700  0.21761433  1
  H  54  1  0.03455300  0.45439300  0.26126600  1
  H  55  1  0.01834800  0.53287167  0.20042067  1
  H  56  1  0.02648300  0.58003000  0.17700433  1
  H  57  1  0.01117900  0.53144133  0.11177400  1
  H  58  1  0.00038900  0.58214600  0.08670067  1
  H  59  1  0.82071400  0.64362433  0.09399000  1
  H  60  1  0.81590000  0.67823100  0.04803333  1
  H  61  1  0.19481800  0.61763367  0.08159100  1
  H  62  1  0.17756300  0.64840200  0.03472067  1
  H  63  1  0.01161800  0.65855867  0.11610267  1
  H  64  1  0.00426000  0.65835833  0.15986100  1
  H  65  1  0.02132400  0.53090067  0.29083933  1
  H  66  1  0.03333500  0.58146867  0.26552967  1
  H  67  1  0.18903400  0.64774300  0.19638233  1
  H  68  1  0.16340500  0.68229100  0.20744033  1
  H  69  1  0.82852000  0.61220967  0.23660600  1
  H  70  1  0.82020400  0.64239433  0.25319233  1
  H  71  1  0.82937900  0.46936867  0.28095167  1
  H  72  1  0.82201200  0.43207700  0.32495933  1
  H  73  1  0.16933800  0.46031833  0.34499933  1
  H  74  1  0.19352100  0.49380033  0.29900567  1
  H  123  1  0.81696900  0.13137967  0.34095667  1
  H  124  1  0.82157300  0.14370067  0.29477100  1
  H  125  1  0.18335600  0.17215100  0.33078033  1
  H  126  1  0.20013800  0.17928367  0.28646333  1
  H  127  1  0.01888800  0.21807733  0.26213267  1
  H  128  1  0.03515000  0.26170500  0.21853467  1
  H  129  1  0.01586000  0.20084533  0.20095633  1
  H  130  1  0.02572500  0.17741133  0.17722733  1
  H  131  1  0.00891100  0.11221333  0.29104733  1
  H  132  1  0.99843200  0.08713400  0.26541933  1
  H  133  1  0.82026400  0.09438500  0.19663400  1
  H  134  1  0.81561200  0.04841333  0.20801167  1
  H  135  1  0.19386900  0.08201267  0.23515233  1
  H  136  1  0.17680700  0.03513967  0.25124633  1
  H  137  1  0.01147600  0.11647533  0.15964267  1
  H  138  1  0.00437100  0.16021467  0.11607433  1
  H  139  1  0.01979700  0.29123900  0.11249600  1
  H  140  1  0.03215600  0.26591900  0.08724100  1
  H  141  1  0.18870900  0.19681533  0.09008933  1
  H  142  1  0.16298800  0.20783767  0.04450200  1
  H  143  1  0.82771000  0.23688033  0.08548433  1
  H  144  1  0.81933300  0.25345967  0.03872567  1
  H  145  1  0.82907900  0.28131433  0.18408600  1
  H  146  1  0.82179300  0.32533300  0.17735833  1
  H  147  1  0.16842800  0.34542100  0.12884600  1
  H  148  1  0.19254000  0.29942867  0.14132433  1
  H  197  1  0.81827500  0.34131533  0.46203900  1
  H  198  1  0.82316000  0.29513267  0.49591500  1
  H  199  1  0.18427400  0.33117633  0.43126233  1
  H  200  1  0.20139600  0.28686433  0.46844633  1
  H  201  1  0.01973600  0.26254667  0.45407900  1
  H  202  1  0.03593800  0.21896000  0.45402133  1
  H  203  1  0.01818800  0.20134867  0.53248367  1
  H  204  1  0.02721100  0.17761500  0.57964167  1
  H  205  1  0.01085800  0.29143267  0.53104367  1
  H  206  1  0.00033600  0.26580067  0.58175200  1
  H  207  1  0.82169000  0.19700533  0.64326333  1
  H  208  1  0.81677800  0.20837133  0.67786200  1
  H  209  1  0.19539700  0.23551333  0.61717433  1
  H  210  1  0.17806300  0.25159967  0.64795200  1
  H  211  1  0.01309600  0.16000667  0.65817167  1
  H  212  1  0.00584600  0.11644733  0.65798667  1
  H  213  1  0.02131500  0.11290000  0.53052400  1
  H  214  1  0.03354100  0.08764033  0.58110000  1
  H  215  1  0.19001600  0.09044133  0.64734000  1
  H  216  1  0.16405600  0.04485733  0.68190567  1
  H  217  1  0.82903200  0.08591000  0.61186567  1
  H  218  1  0.82045200  0.03915533  0.64204200  1
  H  219  1  0.83012700  0.18444000  0.46898433  1
  H  220  1  0.82231100  0.17769633  0.43170367  1
  H  221  1  0.16919800  0.12924200  0.45994300  1
  H  222  1  0.19377700  0.14174367  0.49342767  1
  H  271  1  0.81686900  0.49423633  0.82509233  1
  H  272  1  0.82164300  0.46035033  0.81279733  1
  H  273  1  0.18257500  0.52503133  0.78407833  1
  H  274  1  0.19958900  0.48785567  0.77693833  1
  H  275  1  0.01722000  0.50222000  0.73831300  1
  H  276  1  0.03362400  0.50230333  0.69466000  1
  H  277  1  0.01719000  0.42381967  0.75549367  1
  H  278  1  0.02585400  0.37666067  0.77890733  1
  H  279  1  0.00987900  0.42523233  0.84415000  1
  H  280  1  0.99915500  0.37452433  0.86921867  1
  H  281  1  0.81956600  0.31305733  0.86197167  1
  H  282  1  0.81501200  0.27845167  0.90793500  1
  H  283  1  0.19364000  0.33910233  0.87426367  1
  H  284  1  0.17661600  0.30834100  0.92113200  1
  H  285  1  0.00999200  0.29813067  0.83978967  1
  H  286  1  0.00309100  0.29834867  0.79602600  1
  H  287  1  0.02050300  0.42581133  0.66506700  1
  H  288  1  0.03271200  0.37524333  0.69036567  1
  H  289  1  0.18854700  0.30894567  0.75956733  1
  H  290  1  0.16315700  0.27438033  0.74853333  1
  H  291  1  0.82815200  0.34447267  0.71928800  1
  H  292  1  0.82008400  0.31426400  0.70272700  1
  H  293  1  0.82863000  0.48733533  0.67498667  1
  H  294  1  0.82119100  0.52462800  0.63097033  1
  H  295  1  0.16851900  0.49636633  0.61089833  1
  H  296  1  0.19276100  0.46288933  0.65689633  1
  H  345  1  0.81661900  0.82543900  0.61492267  1
  H  346  1  0.82123700  0.81315100  0.66110400  1
  H  347  1  0.18235700  0.78442033  0.62515800  1
  H  348  1  0.19918100  0.77727567  0.66947700  1
  H  349  1  0.01660500  0.73866833  0.69373700  1
  H  350  1  0.03287300  0.69501967  0.73731833  1
  H  351  1  0.01657900  0.75587233  0.75494167  1
  H  352  1  0.02489800  0.77929700  0.77867467  1
  H  353  1  0.00935300  0.84451200  0.66485467  1
  H  354  1  0.99864000  0.86959300  0.69048067  1
  H  355  1  0.81922600  0.86241700  0.75919467  1
  H  356  1  0.81499200  0.90837900  0.74784167  1
  H  357  1  0.19342900  0.87460400  0.72089033  1
  H  358  1  0.17677800  0.92148000  0.70479100  1
  H  359  1  0.00977600  0.84020500  0.79629133  1
  H  360  1  0.00262100  0.79644933  0.83985267  1
  H  361  1  0.02005400  0.66546233  0.84339767  1
  H  362  1  0.03217400  0.69078033  0.86864533  1
  H  363  1  0.18777900  0.75996633  0.86570767  1
  H  364  1  0.16245900  0.74892400  0.91131500  1
  H  365  1  0.82739200  0.71967900  0.87051500  1
  H  366  1  0.81940500  0.70311067  0.91728500  1
  H  367  1  0.82777300  0.67533867  0.77199667  1
  H  368  1  0.82045800  0.63133100  0.77871367  1
  H  369  1  0.16792000  0.61129400  0.82696633  1
  H  370  1  0.19205000  0.65728933  0.81444733  1
  H  419  1  0.81716700  0.61539300  0.49389867  1
  H  420  1  0.82198000  0.66157933  0.46004033  1
  H  421  1  0.18326500  0.62549833  0.52462767  1
  H  422  1  0.20028900  0.66981700  0.48745200  1
  H  423  1  0.01888600  0.69417767  0.50185233  1
  H  424  1  0.03502000  0.73777233  0.50189000  1
  H  425  1  0.01640000  0.75535767  0.42344400  1
  H  426  1  0.02619600  0.77909067  0.37628000  1
  H  427  1  0.00967900  0.66527133  0.42489600  1
  H  428  1  0.99922900  0.69090000  0.37418833  1
  H  429  1  0.82068100  0.75966367  0.31267267  1
  H  430  1  0.81603000  0.74827100  0.27808967  1
  H  431  1  0.19447800  0.72119367  0.33878767  1
  H  432  1  0.17742600  0.70508033  0.30802567  1
  H  433  1  0.01163900  0.79668300  0.29775933  1
  H  434  1  0.00440700  0.84024800  0.29793700  1
  H  435  1  0.02003700  0.84381600  0.42538500  1
  H  436  1  0.03242500  0.86907100  0.37481167  1
  H  437  1  0.18889700  0.86621300  0.30855467  1
  H  438  1  0.16319800  0.91180500  0.27399333  1
  H  439  1  0.82793300  0.87084800  0.34401200  1
  H  440  1  0.81957400  0.91760800  0.31383333  1
  H  441  1  0.82898800  0.77224467  0.48699033  1
  H  442  1  0.82136300  0.77897667  0.52427467  1
  H  443  1  0.16807100  0.82745300  0.49595600  1
  H  444  1  0.19251200  0.81496600  0.46245367  1
  H  455  1  0.19538700  0.37674533  0.41660667  1
  H  456  1  0.19529600  0.41582733  0.37438000  1
  H  458  1  0.52427200  0.43964167  0.35018533  1
  H  459  1  0.43889900  0.42205467  0.38134667  1
  H  460  1  0.44535800  0.40861067  0.35919567  1
  H  462  1  0.41615100  0.36993667  0.40547300  1
  H  463  1  0.49830400  0.35728300  0.43688733  1
  H  464  1  0.52116000  0.34157333  0.41713867  1
  H  475  1  0.19506700  0.41695600  0.14093300  1
  H  476  1  0.19481600  0.37472467  0.14408033  1
  H  478  1  0.52373500  0.35055667  0.14458600  1
  H  479  1  0.43843000  0.38172667  0.13099267  1
  H  480  1  0.44488200  0.35960433  0.16659200  1
  H  482  1  0.41577400  0.40590000  0.15894400  1
  H  483  1  0.49799400  0.43730433  0.14015833  1
  H  484  1  0.52084900  0.41757267  0.17561567  1
  H  495  1  0.19463800  0.14125233  0.37632600  1
  H  496  1  0.19499600  0.14439433  0.41541067  1
  H  498  1  0.52430400  0.14489800  0.43944400  1
  H  499  1  0.43865100  0.13130600  0.42191267  1
  H  500  1  0.44510100  0.16690367  0.40844233  1
  H  502  1  0.41537700  0.15926700  0.36980567  1
  H  503  1  0.49733500  0.14051900  0.35710567  1
  H  504  1  0.52010100  0.17597733  0.34139733  1
  H  515  1  0.19445900  0.57994733  0.53928900  1
  H  516  1  0.19443600  0.54087967  0.58151933  1
  H  518  1  0.52348500  0.51703800  0.60581333  1
  H  519  1  0.43804200  0.53460800  0.57466500  1
  H  520  1  0.44451000  0.54806967  0.59679967  1
  H  522  1  0.41516500  0.58672667  0.55052000  1
  H  523  1  0.49728800  0.59938800  0.51909600  1
  H  524  1  0.52011000  0.61509333  0.53884633  1
  H  535  1  0.19390800  0.53967167  0.81501767  1
  H  536  1  0.19382000  0.58190367  0.81186500  1
  H  538  1  0.52279600  0.60612900  0.81150500  1
  H  539  1  0.43742100  0.57497300  0.82508600  1
  H  540  1  0.44386100  0.59711667  0.78949000  1
  H  542  1  0.41464700  0.55083900  0.79710200  1
  H  543  1  0.49678800  0.51941867  0.81587167  1
  H  544  1  0.51964200  0.53915800  0.78041300  1
  H  555  1  0.19392000  0.81538400  0.57958533  1
  H  556  1  0.19408600  0.81224100  0.54049833  1
  H  558  1  0.52325500  0.81178200  0.51660767  1
  H  559  1  0.43768200  0.82537700  0.53415767  1
  H  560  1  0.44420000  0.78977833  0.54763400  1
  H  562  1  0.41466000  0.79742067  0.58627367  1
  H  563  1  0.49663700  0.81619700  0.59892667  1
  H  564  1  0.51952200  0.78073833  0.61465433  1
  H  575  1  0.19117500  0.71665567  0.26291333  1
  H  576  1  0.19110300  0.69076067  0.24179700  1
  H  578  1  0.51994000  0.67601433  0.22880267  1
  H  579  1  0.43417600  0.70169900  0.23130633  1
  H  580  1  0.44158600  0.66832167  0.25954133  1
  H  582  1  0.41193200  0.69923267  0.27768500  1
  H  583  1  0.49386300  0.72809033  0.27447000  1
  H  584  1  0.51739300  0.69604733  0.30375400  1
  H  595  1  0.19036300  0.26326933  0.95466867  1
  H  596  1  0.19034400  0.24216400  0.00166900  1
  H  598  1  0.51923200  0.22907833  0.02953467  1
  H  599  1  0.43339700  0.23159500  0.00135767  1
  H  600  1  0.44084500  0.25981967  0.00651500  1
  H  602  1  0.41108200  0.27798600  0.95746267  1
  H  603  1  0.49297500  0.27480400  0.93178967  1
  H  604  1  0.51649700  0.30407100  0.93457633  1
  H  615  1  0.19069300  0.95499200  0.71635967  1
  H  616  1  0.19113300  0.00200100  0.69045667  1
  H  618  1  0.52028100  0.03010767  0.67561733  1
  H  619  1  0.43419800  0.00196500  0.70127600  1
  H  620  1  0.44165600  0.00711433  0.66789667  1
  H  622  1  0.41147200  0.95807500  0.69878433  1
  H  623  1  0.49312200  0.93237700  0.72765367  1
  H  624  1  0.51664700  0.93513800  0.69560867  1
  H  635  1  0.19164100  0.24003400  0.69305300  1
  H  636  1  0.19119200  0.26593533  0.71415567  1
  H  638  1  0.51983000  0.28063200  0.72710067  1
  H  639  1  0.43422900  0.25494867  0.72458167  1
  H  640  1  0.44170600  0.28832567  0.69634700  1
  H  642  1  0.41237200  0.25741400  0.67819967  1
  H  643  1  0.49443200  0.22855433  0.68143067  1
  H  644  1  0.51804300  0.26059500  0.65215000  1
  H  655  1  0.19087300  0.69348600  0.00115533  1
  H  656  1  0.19048500  0.71458800  0.95414500  1
  H  658  1  0.51913100  0.72748900  0.92656933  1
  H  659  1  0.43353900  0.72497200  0.95478067  1
  H  660  1  0.44098700  0.69673867  0.94963567  1
  H  662  1  0.41165200  0.67859167  0.99870033  1
  H  663  1  0.49373300  0.68182367  0.02431800  1
  H  664  1  0.51730500  0.65253967  0.02155867  1
  H  675  1  0.19073300  0.00162933  0.23965000  1
  H  676  1  0.19064200  0.95462700  0.26552767  1
  H  678  1  0.51946200  0.92684900  0.28023667  1
  H  679  1  0.43367800  0.95504100  0.25457300  1
  H  680  1  0.44112600  0.94987600  0.28795833  1
  H  682  1  0.41144400  0.99893400  0.25707867  1
  H  683  1  0.49335200  0.02459467  0.22822200  1
  H  684  1  0.51690500  0.02181167  0.26027333  1
  N  4  1  0.02222000  0.51351567  0.21003133  1
  N  8  1  0.01576200  0.55652633  0.15057800  1
  N  14  1  0.02171300  0.59938500  0.16739467  1
  N  20  1  0.02652500  0.55617667  0.22694500  1
  N  78  1  0.02156200  0.21044867  0.21069200  1
  N  82  1  0.01473100  0.15100300  0.22716000  1
  N  88  1  0.02146100  0.16779100  0.16748733  1
  N  94  1  0.02576500  0.22734500  0.15112067  1
  N  152  1  0.02306000  0.21109200  0.51313600  1
  N  156  1  0.01639900  0.22754533  0.55613367  1
  N  162  1  0.02285000  0.16787233  0.59900033  1
  N  168  1  0.02722400  0.15151867  0.55579933  1
  N  226  1  0.02117300  0.44317500  0.74588667  1
  N  230  1  0.01431500  0.40015933  0.80533500  1
  N  236  1  0.02090300  0.35730833  0.78851133  1
  N  242  1  0.02580400  0.40052300  0.72896167  1
  N  300  1  0.02044300  0.74625867  0.74519767  1
  N  304  1  0.01387500  0.80571300  0.72874633  1
  N  310  1  0.02001500  0.78890833  0.78841700  1
  N  316  1  0.02497800  0.72935500  0.80476933  1
  N  374  1  0.02191000  0.74562067  0.44278500  1
  N  378  1  0.01518300  0.72915900  0.39980133  1
  N  384  1  0.02179100  0.78883067  0.35692233  1
  N  390  1  0.02597500  0.80519333  0.40011333  1
  N  451  1  0.74294500  0.41678867  0.37089933  1
  N  454  1  0.74660100  0.36780533  0.41425733  1
  N  471  1  0.74246500  0.37127500  0.14666267  1
  N  474  1  0.74625000  0.41466133  0.15224367  1
  N  491  1  0.74269700  0.14699100  0.41651633  1
  N  494  1  0.74580000  0.15260300  0.36753667  1
  N  511  1  0.74208900  0.53988933  0.58505100  1
  N  514  1  0.74562100  0.58886700  0.54168567  1
  N  531  1  0.74145700  0.58539833  0.80937200  1
  N  534  1  0.74510200  0.54203167  0.80375967  1
  N  551  1  0.74175700  0.80968833  0.53948000  1
  N  554  1  0.74507400  0.80409833  0.58845300  1
  N  571  1  0.73859200  0.68696300  0.24300700  1
  N  574  1  0.74229800  0.70842833  0.27483433  1
  N  591  1  0.73782500  0.24330200  0.00434167  1
  N  594  1  0.74144000  0.27515600  0.95105367  1
  N  611  1  0.73864300  0.00483133  0.68659633  1
  N  614  1  0.74176800  0.95154100  0.70804100  1
  N  631  1  0.73866400  0.26968033  0.71293200  1
  N  634  1  0.74276500  0.24821267  0.68110633  1
  N  651  1  0.73796400  0.71331367  0.95166767  1
  N  654  1  0.74204800  0.68149200  0.00495833  1
  N  671  1  0.73810500  0.95201200  0.26928533  1
  N  674  1  0.74180700  0.00530100  0.24785467  1
