# generated using pymatgen
data_H11C18
_symmetry_space_group_name_H-M   'P 1'
_cell_length_a   22.86750000
_cell_length_b   40.09244128
_cell_length_c   40.09244128
_cell_angle_alpha   85.33496442
_cell_angle_beta   73.43011195
_cell_angle_gamma   73.43011195
_symmetry_Int_Tables_number   1
_chemical_formula_structural   H11C18
_chemical_formula_sum   'H176 C288'
_cell_volume   33767.82460784
_cell_formula_units_Z   16
loop_
 _symmetry_equiv_pos_site_id
 _symmetry_equiv_pos_as_xyz
  1  'x, y, z'
loop_
 _atom_site_type_symbol
 _atom_site_label
 _atom_site_symmetry_multiplicity
 _atom_site_fract_x
 _atom_site_fract_y
 _atom_site_fract_z
 _atom_site_occupancy
  C  1  1  0.05374050  0.45857750  0.22684350  1
  C  2  1  0.11785350  0.44119600  0.20983800  1
  C  3  1  0.14746400  0.40613750  0.21700450  1
  C  4  1  0.11075800  0.38872300  0.24332500  1
  C  5  1  0.04743983  0.40504517  0.26185617  1
  C  6  1  0.01982000  0.43954100  0.25263700  1
  C  10  1  0.02287800  0.49355700  0.21781700  1
  C  11  1  0.03873150  0.50567050  0.18299150  1
  C  12  1  0.00783000  0.53923800  0.17341000  1
  C  13  1  0.95974950  0.56126600  0.19882800  1
  C  14  1  0.94198600  0.55062300  0.23380000  1
  C  15  1  0.97396500  0.51678650  0.24274150  1
  C  19  1  0.74764100  0.57576300  0.72182300  1
  C  20  1  0.77735350  0.59314600  0.73883500  1
  C  21  1  0.77909100  0.62820100  0.73166100  1
  C  22  1  0.75128550  0.64562050  0.70534350  1
  C  23  1  0.72284200  0.62927200  0.68679000  1
  C  24  1  0.72048100  0.59480100  0.69602600  1
  C  28  1  0.74275250  0.54077950  0.73083850  1
  C  29  1  0.73590050  0.52866100  0.76566400  1
  C  30  1  0.72901600  0.49508600  0.77523800  1
  C  31  1  0.72839500  0.47305900  0.74981600  1
  C  32  1  0.73497600  0.48370250  0.71484350  1
  C  33  1  0.74202650  0.51754700  0.70590800  1
  C  37  1  0.49508400  0.76479250  0.41573050  1
  C  38  1  0.44837800  0.78177600  0.39832200  1
  C  39  1  0.45389500  0.77461400  0.36325400  1
  C  40  1  0.50805100  0.74830650  0.34585150  1
  C  41  1  0.55502750  0.72976950  0.36222150  1
  C  42  1  0.54810850  0.73903300  0.39669100  1
  C  46  1  0.49083050  0.77378300  0.45074700  1
  C  47  1  0.46255500  0.80856800  0.46294700  1
  C  48  1  0.45948800  0.81808650  0.49660850  1
  C  49  1  0.48567750  0.79268200  0.51860000  1
  C  50  1  0.51450350  0.75776500  0.50785100  1
  C  51  1  0.51658250  0.74886100  0.47395900  1
  C  55  1  0.68411150  0.26954200  0.53292200  1
  C  56  1  0.63697700  0.25255950  0.55032450  1
  C  57  1  0.60025450  0.25972150  0.58539250  1
  C  58  1  0.61069600  0.28603000  0.60279700  1
  C  59  1  0.65550500  0.30456650  0.58643150  1
  C  60  1  0.69233500  0.29529900  0.55196600  1
  C  64  1  0.72389700  0.26054550  0.49791350  1
  C  65  1  0.74262650  0.22575900  0.48571600  1
  C  66  1  0.78276150  0.21624050  0.45205750  1
  C  67  1  0.80553450  0.24164850  0.43006950  1
  C  68  1  0.78864750  0.27657150  0.44080950  1
  C  69  1  0.74792650  0.28546950  0.47470350  1
  C  73  1  0.68672350  0.26498900  0.03302700  1
  C  74  1  0.62261850  0.28199400  0.05042300  1
  C  75  1  0.59300850  0.27477650  0.08546750  1
  C  76  1  0.62970800  0.24842050  0.10285150  1
  C  77  1  0.69305550  0.22987700  0.08649800  1
  C  78  1  0.72064950  0.23916850  0.05204450  1
  C  82  1  0.71758350  0.27402650  0.99805550  1
  C  83  1  0.70178850  0.30886350  0.98595850  1
  C  84  1  0.73276400  0.31845200  0.95240900  1
  C  85  1  0.78080750  0.29302550  0.93037250  1
  C  86  1  0.79847100  0.25803800  0.94098700  1
  C  87  1  0.76644950  0.24909450  0.97481350  1
  C  91  1  0.99324150  0.76934850  0.91563350  1
  C  92  1  0.96355750  0.75233300  0.89823500  1
  C  93  1  0.96176550  0.75955250  0.86319350  1
  C  94  1  0.98949100  0.78590950  0.84580750  1
  C  95  1  0.01793850  0.80445450  0.86216350  1
  C  96  1  0.02035400  0.79517100  0.89661900  1
  C  100  1  0.99814550  0.76031850  0.95061150  1
  C  101  1  0.00508650  0.72548350  0.96271050  1
  C  102  1  0.01207500  0.71589900  0.99626700  1
  C  103  1  0.01263850  0.74133050  0.01830450  1
  C  104  1  0.00591400  0.77631800  0.00768900  1
  C  105  1  0.99880350  0.78525700  0.97385700  1
  C  109  1  0.24477100  0.07588000  0.72668000  1
  C  110  1  0.29149850  0.09324950  0.70963550  1
  C  111  1  0.28615650  0.12827850  0.71685650  1
  C  112  1  0.23212050  0.14568200  0.74322900  1
  C  113  1  0.18509950  0.12935600  0.76179500  1
  C  114  1  0.19188350  0.09490950  0.75251650  1
  C  118  1  0.24876050  0.04093600  0.71762800  1
  C  119  1  0.27633750  0.02891500  0.68275300  1
  C  120  1  0.27864300  0.99542600  0.67312600  1
  C  121  1  0.25272800  0.97337050  0.69856750  1
  C  122  1  0.22482550  0.98390200  0.73359800  1
  C  123  1  0.22323850  0.01767500  0.74257700  1
  C  127  1  0.05582650  0.95846350  0.22198650  1
  C  128  1  0.10288150  0.94110000  0.23903000  1
  C  129  1  0.13980300  0.90607200  0.23180500  1
  C  130  1  0.12955200  0.88866550  0.20543050  1
  C  131  1  0.08477150  0.90499100  0.18686300  1
  C  132  1  0.04781600  0.93943200  0.19614500  1
  C  136  1  0.01578000  0.99339550  0.23104950  1
  C  137  1  0.99641150  0.00540050  0.26593250  1
  C  138  1  0.95555250  0.03887750  0.27556650  1
  C  139  1  0.93303200  0.06093700  0.25012200  1
  C  140  1  0.95077550  0.05042850  0.21508050  1
  C  141  1  0.99196350  0.01666150  0.20610050  1
  C  289  1  0.52873050  0.29376500  0.10299100  1
  C  290  1  0.50496050  0.33001900  0.09789900  1
  C  291  1  0.44289750  0.34878450  0.11587150  1
  C  292  1  0.40157750  0.33232850  0.14022750  1
  C  293  1  0.42491650  0.29609050  0.14515750  1
  C  294  1  0.48668250  0.27731350  0.12690850  1
  C  297  1  0.33889100  0.35144900  0.15937900  1
  C  298  1  0.29754400  0.37583150  0.14296050  1
  C  299  1  0.23549800  0.39379650  0.16175350  1
  C  300  1  0.21173550  0.38863000  0.19799700  1
  C  301  1  0.25379200  0.36466450  0.21440650  1
  C  302  1  0.31555800  0.34644300  0.19560400  1
  C  309  1  0.93399400  0.74056700  0.84567000  1
  C  310  1  0.94138950  0.70431250  0.85076250  1
  C  311  1  0.91607750  0.68554550  0.83278350  1
  C  312  1  0.88265100  0.70199800  0.80843000  1
  C  313  1  0.87467650  0.73823700  0.80350300  1
  C  314  1  0.89940550  0.75701750  0.82175450  1
  C  317  1  0.85824150  0.68287500  0.78928000  1
  C  318  1  0.82489800  0.65847450  0.80569350  1
  C  319  1  0.79955150  0.64053800  0.78690700  1
  C  320  1  0.80686200  0.64570300  0.75066700  1
  C  321  1  0.84138400  0.66965800  0.73425100  1
  C  322  1  0.86612950  0.68787950  0.75305350  1
  C  329  1  0.18508750  0.88857550  0.25080450  1
  C  330  1  0.17253600  0.89364250  0.28706850  1
  C  331  1  0.21582050  0.87568600  0.30584600  1
  C  332  1  0.27364500  0.85136000  0.28939600  1
  C  333  1  0.28661250  0.84645800  0.25315000  1
  C  334  1  0.24364100  0.86469800  0.23435800  1
  C  337  1  0.31719050  0.83221500  0.30852900  1
  C  338  1  0.33406550  0.84862950  0.33295150  1
  C  339  1  0.37814850  0.82984400  0.35091800  1
  C  340  1  0.40714600  0.79361050  0.34572950  1
  C  341  1  0.38912650  0.77719800  0.32173300  1
  C  342  1  0.34559650  0.79599650  0.30349950  1
  C  349  1  0.33293300  0.14578000  0.69785300  1
  C  350  1  0.36173400  0.14069550  0.66159250  1
  C  351  1  0.40581050  0.15866850  0.64280850  1
  C  352  1  0.42287450  0.18298850  0.65925650  1
  C  353  1  0.39468200  0.18790000  0.69550300  1
  C  354  1  0.35115900  0.16966250  0.71429550  1
  C  357  1  0.46641200  0.20213050  0.64011850  1
  C  358  1  0.52411500  0.18571350  0.61568950  1
  C  359  1  0.56739950  0.20449300  0.59773500  1
  C  360  1  0.55496450  0.24073000  0.60290900  1
  C  361  1  0.49653650  0.25714550  0.62690350  1
  C  362  1  0.45356750  0.23834950  0.64513950  1
  C  449  1  0.81574550  0.30072800  0.41774000  1
  C  450  1  0.85224900  0.31916500  0.42784800  1
  C  451  1  0.88890900  0.33763850  0.40316450  1
  C  452  1  0.89073650  0.33814100  0.36749300  1
  C  453  1  0.85173400  0.32105950  0.35783450  1
  C  454  1  0.81498500  0.30276350  0.38243850  1
  C  457  1  0.93174500  0.35433000  0.34171600  1
  C  458  1  0.93615100  0.38790350  0.34694550  1
  C  459  1  0.97464050  0.40424350  0.32094750  1
  C  460  1  0.01092000  0.38754900  0.28883100  1
  C  461  1  0.00794300  0.35358600  0.28397500  1
  C  462  1  0.96887200  0.33741450  0.30982050  1
  C  469  1  0.54265550  0.73361300  0.53093400  1
  C  470  1  0.60772350  0.71519850  0.52082850  1
  C  471  1  0.63819600  0.69674450  0.54551250  1
  C  472  1  0.60485900  0.69621500  0.58118100  1
  C  473  1  0.53910800  0.71327150  0.59084050  1
  C  474  1  0.50866500  0.73158050  0.56624350  1
  C  477  1  0.63628650  0.68002300  0.60695200  1
  C  478  1  0.67954150  0.64646350  0.60170850  1
  C  479  1  0.70833100  0.63011050  0.62771650  1
  C  480  1  0.69577700  0.64679700  0.65984000  1
  C  481  1  0.65393400  0.68074650  0.66471350  1
  C  482  1  0.62458050  0.69693200  0.63885800  1
  C  489  1  0.89082100  0.57373500  0.25795700  1
  C  490  1  0.83591500  0.56364950  0.27649650  1
  C  491  1  0.78083800  0.58837150  0.29496850  1
  C  492  1  0.77854850  0.62404550  0.29537550  1
  C  493  1  0.83462750  0.63367100  0.27820000  1
  C  494  1  0.88961500  0.60903650  0.25989850  1
  C  497  1  0.72138950  0.64985700  0.31155200  1
  C  498  1  0.68341800  0.64468300  0.34514700  1
  C  499  1  0.62861450  0.67070450  0.36146250  1
  C  500  1  0.60903900  0.70279700  0.34472800  1
  C  501  1  0.64597600  0.70760250  0.31074850  1
  C  502  1  0.70118800  0.68173200  0.29459900  1
  C  509  1  0.73109700  0.46058850  0.69068650  1
  C  510  1  0.68458800  0.47066500  0.67217900  1
  C  511  1  0.67264600  0.44594600  0.65373300  1
  C  512  1  0.70645350  0.41027150  0.65330050  1
  C  513  1  0.75501250  0.40064300  0.67045200  1
  C  514  1  0.76706300  0.42527250  0.68876050  1
  C  517  1  0.69127500  0.38446800  0.63711800  1
  C  518  1  0.68167000  0.38966150  0.60353550  1
  C  519  1  0.66925450  0.36363100  0.58720500  1
  C  520  1  0.66505550  0.33153200  0.60393000  1
  C  521  1  0.67287350  0.32670900  0.63789700  1
  C  522  1  0.68601200  0.35258850  0.65406350  1
  C  529  1  0.92399550  0.07358750  0.19088150  1
  C  530  1  0.88784600  0.06355750  0.17216350  1
  C  531  1  0.85137500  0.08833050  0.15366550  1
  C  532  1  0.84939550  0.12400900  0.15341400  1
  C  533  1  0.88806600  0.13359050  0.17078550  1
  C  534  1  0.92461050  0.10890350  0.18911750  1
  C  537  1  0.80852900  0.14986450  0.13720450  1
  C  538  1  0.80435150  0.14476300  0.10354800  1
  C  539  1  0.76594400  0.17081700  0.08721700  1
  C  540  1  0.72953300  0.20287950  0.10398950  1
  C  541  1  0.73230450  0.20761300  0.13802400  1
  C  542  1  0.77127250  0.18170700  0.15419500  1
  C  549  1  0.19703000  0.96073350  0.75779350  1
  C  550  1  0.13210100  0.97076300  0.77647100  1
  C  551  1  0.10187600  0.94599200  0.79494700  1
  C  552  1  0.13532500  0.91031700  0.79524100  1
  C  553  1  0.20096300  0.90073650  0.77791550  1
  C  554  1  0.23116050  0.92541500  0.75957100  1
  C  557  1  0.10409300  0.88446850  0.81145150  1
  C  558  1  0.06108850  0.88959050  0.84508950  1
  C  559  1  0.03244700  0.86352400  0.86143100  1
  C  560  1  0.04490750  0.83145250  0.84466950  1
  C  561  1  0.08651250  0.82669900  0.81065300  1
  C  562  1  0.11570550  0.85261650  0.79447050  1
  C  569  1  0.84957800  0.23386600  0.91786000  1
  C  570  1  0.90443600  0.21523800  0.92794500  1
  C  571  1  0.95946650  0.19672550  0.90321950  1
  C  572  1  0.96175550  0.19636600  0.86754100  1
  C  573  1  0.90572000  0.21363550  0.85791450  1
  C  574  1  0.85077650  0.23197750  0.88255250  1
  C  577  1  0.01887750  0.18014250  0.84172850  1
  C  578  1  0.05672000  0.14650750  0.84688850  1
  C  579  1  0.11148350  0.13015050  0.82086450  1
  C  580  1  0.13114650  0.14688200  0.78878100  1
  C  581  1  0.09433250  0.18089700  0.78398900  1
  C  582  1  0.03916200  0.19709200  0.80986400  1
  C  589  1  0.00970650  0.80049050  0.03081850  1
  C  590  1  0.05607500  0.81908950  0.02073950  1
  C  591  1  0.06792850  0.83757450  0.04546250  1
  C  592  1  0.03417300  0.83795850  0.08113950  1
  C  593  1  0.98574850  0.82071150  0.09077250  1
  C  594  1  0.97378750  0.80236300  0.06614000  1
  C  597  1  0.04926900  0.85418650  0.10694350  1
  C  598  1  0.05869250  0.88781050  0.10176350  1
  C  599  1  0.07102600  0.90418100  0.12779600  1
  C  600  1  0.07532400  0.88746000  0.15988400  1
  C  601  1  0.06768000  0.85345450  0.16469450  1
  C  602  1  0.05462850  0.83724500  0.13881200  1
  C  769  1  0.02415300  0.55213600  0.13914100  1
  C  770  1  0.06676050  0.57294600  0.13071700  1
  C  771  1  0.07061150  0.59401300  0.10080100  1
  C  772  1  0.03145450  0.59522250  0.07873650  1
  C  773  1  0.99056400  0.57325850  0.08674850  1
  C  774  1  0.98660600  0.55214450  0.11666750  1
  C  777  1  0.02721500  0.62138250  0.05244750  1
  C  778  1  0.96722650  0.64324850  0.05094650  1
  C  779  1  0.96223400  0.67305600  0.02972500  1
  C  780  1  0.01725950  0.68161250  0.00915550  1
  C  781  1  0.07729250  0.65934100  0.00944900  1
  C  782  1  0.08210350  0.62948700  0.03065600  1
  C  789  1  0.72397950  0.48218400  0.80950900  1
  C  790  1  0.77898600  0.46136800  0.81791200  1
  C  791  1  0.77395400  0.44026000  0.84779700  1
  C  792  1  0.71393900  0.43911400  0.86989900  1
  C  793  1  0.65909700  0.46111650  0.86191750  1
  C  794  1  0.66394550  0.48222200  0.83198900  1
  C  797  1  0.70954300  0.41298200  0.89621700  1
  C  798  1  0.66982950  0.39115100  0.89778000  1
  C  799  1  0.67353050  0.36131400  0.91896000  1
  C  800  1  0.71655650  0.35273600  0.93952600  1
  C  801  1  0.75464100  0.37500450  0.93918250  1
  C  802  1  0.75081700  0.40484850  0.91796650  1
  C  809  1  0.42977800  0.85227900  0.50961800  1
  C  810  1  0.36677050  0.86025000  0.53101500  1
  C  811  1  0.34171650  0.89020000  0.55202500  1
  C  812  1  0.37913500  0.91277600  0.55260300  1
  C  813  1  0.44156150  0.90519500  0.53010600  1
  C  814  1  0.46674400  0.87525950  0.50900250  1
  C  817  1  0.35726800  0.93920650  0.57861750  1
  C  818  1  0.39594567  0.94133450  0.59996150  1
  C  819  1  0.37130950  0.96264500  0.62970900  1
  C  820  1  0.30730450  0.98263100  0.63878900  1
  C  821  1  0.26900650  0.98173850  0.61697450  1
  C  822  1  0.29386700  0.96049300  0.58715200  1
  C  829  1  0.80029200  0.18204300  0.43905300  1
  C  830  1  0.76664800  0.17411700  0.41762800  1
  C  831  1  0.79252800  0.14417300  0.39660600  1
  C  832  1  0.85303000  0.12153850  0.39607550  1
  C  833  1  0.88539000  0.12908050  0.41858250  1
  C  834  1  0.85961750  0.15904500  0.43964200  1
  C  837  1  0.88349650  0.09507700  0.37008500  1
  C  838  1  0.94571867  0.09287700  0.34875900  1
  C  839  1  0.97197100  0.07163750  0.31895650  1
  C  840  1  0.93698750  0.05164650  0.30992250  1
  C  841  1  0.87593550  0.05263250  0.33170050  1
  C  842  1  0.84980800  0.07386650  0.36152850  1
  H  7  1  0.14437600  0.45468000  0.19209200  1
  H  8  1  0.97274600  0.45049600  0.26427400  1
  H  9  1  0.13038300  0.36342400  0.24915700  1
  H  16  1  0.07207650  0.48970000  0.16388000  1
  H  17  1  0.93653250  0.58536900  0.19148600  1
  H  18  1  0.96202000  0.50943950  0.26825850  1
  H  25  1  0.79964550  0.57965450  0.75656550  1
  H  26  1  0.69600900  0.58384300  0.68438500  1
  H  27  1  0.75144850  0.67091650  0.69951150  1
  H  34  1  0.73414700  0.54463150  0.78477850  1
  H  35  1  0.72197500  0.44894650  0.75715450  1
  H  36  1  0.74823800  0.52490000  0.68039500  1
  H  43  1  0.40829650  0.79947250  0.41180650  1
  H  44  1  0.58419200  0.72739350  0.40766950  1
  H  45  1  0.51375500  0.74246150  0.32055450  1
  H  52  1  0.44504300  0.82767650  0.44701850  1
  H  53  1  0.48454450  0.79999600  0.54276200  1
  H  54  1  0.53610550  0.72337000  0.46655400  1
  H  61  1  0.62810350  0.23485150  0.53684150  1
  H  62  1  0.72776250  0.30693550  0.54099150  1
  H  63  1  0.58524950  0.29187500  0.62809400  1
  H  70  1  0.72828250  0.20664950  0.50164050  1
  H  71  1  0.83590050  0.23433500  0.40591300  1
  H  72  1  0.73452700  0.31096350  0.48210150  1
  H  79  1  0.59610350  0.29976800  0.03695800  1
  H  80  1  0.76772200  0.22754100  0.04108200  1
  H  81  1  0.61006850  0.24255100  0.12813500  1
  H  88  1  0.66847350  0.32797500  0.00193900  1
  H  89  1  0.80406050  0.30036750  0.90627850  1
  H  90  1  0.77833250  0.22356900  0.98214100  1
  H  97  1  0.94131950  0.73457300  0.91170600  1
  H  98  1  0.04482200  0.80680600  0.90758600  1
  H  99  1  0.98926650  0.79178000  0.82052400  1
  H  106  1  0.00688100  0.70636700  0.94673000  1
  H  107  1  0.01910600  0.73399200  0.04240600  1
  H  108  1  0.99250250  0.81078050  0.96652150  1
  H  115  1  0.33144400  0.07976550  0.69184750  1
  H  116  1  0.15578200  0.08394950  0.76418350  1
  H  117  1  0.22652550  0.17096200  0.74909200  1
  H  124  1  0.29361150  0.04491650  0.66364150  1
  H  125  1  0.25344550  0.94930150  0.69121750  1
  H  126  1  0.20424050  0.02496050  0.76812350  1
  H  133  1  0.11152250  0.95458100  0.25683200  1
  H  134  1  0.01241700  0.95038850  0.18448150  1
  H  135  1  0.15510900  0.86338900  0.19956400  1
  H  142  1  0.01057750  0.98939800  0.28504200  1
  H  143  1  0.90228950  0.08499350  0.25747750  1
  H  144  1  0.00584500  0.00938750  0.18054650  1
  H  295  1  0.39656400  0.28276450  0.16188950  1
  H  296  1  0.50039900  0.25108500  0.13112200  1
  H  303  1  0.31160200  0.37995200  0.11671400  1
  H  304  1  0.20696500  0.41007050  0.14824350  1
  H  305  1  0.24008250  0.36040200  0.24062600  1
  H  306  1  0.53348300  0.34355500  0.08165900  1
  H  307  1  0.34392800  0.32968700  0.20890600  1
  H  308  1  0.42885100  0.37504450  0.11183250  1
  H  315  1  0.84973150  0.75156500  0.78676900  1
  H  316  1  0.89112200  0.78324400  0.81753500  1
  H  323  1  0.81677000  0.65438400  0.83194600  1
  H  324  1  0.77377950  0.62426650  0.80042050  1
  H  325  1  0.84959650  0.67393750  0.70803550  1
  H  326  1  0.96720250  0.69077800  0.86700600  1
  H  327  1  0.89101150  0.70465150  0.73975450  1
  H  328  1  0.92423500  0.65928750  0.83683650  1
  H  335  1  0.32832550  0.82975000  0.23982500  1
  H  336  1  0.25619050  0.86049900  0.20812600  1
  H  343  1  0.31584650  0.87487150  0.33708650  1
  H  344  1  0.39034000  0.84335650  0.36722350  1
  H  345  1  0.40715700  0.75098550  0.31744550  1
  H  346  1  0.13043750  0.90985600  0.30060100  1
  H  347  1  0.33405250  0.78269700  0.28671200  1
  H  348  1  0.20355650  0.87969950  0.33211250  1
  H  355  1  0.40637600  0.20460500  0.70882400  1
  H  356  1  0.33327750  0.17386450  0.74052650  1
  H  363  1  0.53629550  0.15946550  0.61158550  1
  H  364  1  0.60941000  0.19097800  0.58143800  1
  H  365  1  0.48407250  0.28335850  0.63118950  1
  H  366  1  0.34938800  0.12447700  0.64806500  1
  H  367  1  0.41194400  0.25165200  0.66193400  1
  H  368  1  0.42387450  0.15462300  0.61654900  1
  H  455  1  0.85063650  0.32115500  0.33248600  1
  H  456  1  0.78945800  0.28966800  0.37398000  1
  H  463  1  0.90976050  0.40129700  0.36940300  1
  H  464  1  0.97579000  0.42870450  0.32573750  1
  H  465  1  0.03259500  0.34070600  0.26101400  1
  H  466  1  0.85582700  0.31739650  0.45283850  1
  H  467  1  0.96796450  0.31290350  0.30505750  1
  H  468  1  0.91740400  0.34897350  0.41118750  1
  H  475  1  0.51275500  0.71315800  0.61618600  1
  H  476  1  0.46156100  0.74463550  0.57469050  1
  H  483  1  0.68895550  0.63305950  0.57926250  1
  H  484  1  0.73873600  0.60565400  0.62292400  1
  H  485  1  0.64279850  0.69363800  0.68765900  1
  H  486  1  0.63451750  0.71696600  0.49583700  1
  H  487  1  0.59439050  0.72144100  0.64362300  1
  H  488  1  0.68604700  0.68540200  0.53747300  1
  H  495  1  0.83566000  0.65902100  0.27822400  1
  H  496  1  0.92822400  0.61746700  0.24672100  1
  H  503  1  0.69640150  0.62224200  0.35856800  1
  H  504  1  0.60300450  0.66594800  0.38593300  1
  H  505  1  0.63421300  0.73054300  0.29783900  1
  H  506  1  0.83407350  0.53865500  0.27479700  1
  H  507  1  0.72659200  0.68645550  0.27007150  1
  H  508  1  0.74101050  0.58036800  0.30637100  1
  H  515  1  0.78143300  0.37529450  0.67041350  1
  H  516  1  0.80099150  0.41684850  0.70189550  1
  H  523  1  0.68570000  0.41208750  0.59010350  1
  H  524  1  0.66335500  0.36839300  0.56273400  1
  H  525  1  0.67106850  0.30378100  0.65082100  1
  H  526  1  0.65606350  0.49566200  0.67387600  1
  H  527  1  0.69161850  0.34785900  0.67859100  1
  H  528  1  0.63622700  0.45396650  0.64232250  1
  H  535  1  0.88904650  0.15894050  0.17088750  1
  H  536  1  0.94985200  0.11730150  0.20244450  1
  H  543  1  0.83082700  0.12235000  0.09009900  1
  H  544  1  0.76493350  0.16610400  0.06270800  1
  H  545  1  0.70755000  0.23052300  0.15097300  1
  H  546  1  0.88436350  0.03855600  0.17374200  1
  H  547  1  0.77199250  0.18637800  0.17876900  1
  H  548  1  0.82310250  0.08035500  0.14212700  1
  H  555  1  0.22740000  0.87538900  0.77784500  1
  H  556  1  0.27815700  0.91702500  0.74629900  1
  H  563  1  0.05173800  0.91199250  0.85854650  1
  H  564  1  0.00219350  0.86824250  0.88593550  1
  H  565  1  0.09757850  0.80379600  0.79769600  1
  H  566  1  0.10520450  0.99576300  0.77488000  1
  H  567  1  0.14569500  0.84793600  0.76990500  1
  H  568  1  0.05408800  0.95398200  0.80648100  1
  H  575  1  0.90468100  0.21364950  0.83256150  1
  H  576  1  0.81220050  0.24521700  0.87412300  1
  H  583  1  0.04367150  0.13308750  0.86931950  1
  H  584  1  0.13700150  0.10565200  0.82561000  1
  H  585  1  0.10614800  0.19381050  0.76105450  1
  H  586  1  0.90628400  0.21689350  0.95294450  1
  H  587  1  0.01385300  0.22164500  0.80514900  1
  H  588  1  0.99926650  0.18525250  0.91122450  1
  H  595  1  0.95936400  0.82071100  0.11612400  1
  H  596  1  0.93995350  0.78916400  0.07456700  1
  H  603  1  0.05458300  0.90124000  0.07934600  1
  H  604  1  0.07679150  0.92867950  0.12304550  1
  H  605  1  0.06955050  0.84053000  0.18761400  1
  H  606  1  0.08456500  0.81743700  0.99573600  1
  H  607  1  0.04915300  0.81269250  0.14353250  1
  H  608  1  0.10425350  0.84905400  0.03743700  1
  H  775  1  0.96063200  0.57387200  0.07186500  1
  H  776  1  0.95300350  0.53870750  0.12316850  1
  H  783  1  0.92642300  0.63944400  0.06751700  1
  H  784  1  0.91831500  0.68988350  0.03161050  1
  H  785  1  0.11778650  0.66597800  0.99620200  1
  H  786  1  0.09162300  0.57503500  0.14765300  1
  H  787  1  0.12627400  0.61478100  0.03151400  1
  H  788  1  0.09827500  0.61077400  0.09710700  1
  H  795  1  0.61489200  0.46051550  0.87679950  1
  H  796  1  0.62342650  0.49566200  0.82547700  1
  H  803  1  0.64185200  0.39492900  0.88117800  1
  H  804  1  0.64826950  0.34450900  0.91709500  1
  H  805  1  0.78853650  0.36837850  0.95242650  1
  H  806  1  0.82286050  0.45926050  0.80095250  1
  H  807  1  0.78114700  0.41955700  0.91709600  1
  H  808  1  0.81469100  0.42353000  0.85151600  1
  H  815  1  0.47054200  0.92044450  0.53026250  1
  H  816  1  0.51357950  0.86908950  0.49517250  1
  H  823  1  0.44095850  0.92515600  0.59582100  1
  H  824  1  0.39888700  0.96115050  0.64620950  1
  H  825  1  0.22163100  0.99451500  0.62398100  1
  H  826  1  0.34029500  0.84298200  0.53351800  1
  H  827  1  0.26399250  0.95916450  0.57285650  1
  H  828  1  0.29767900  0.89359300  0.56916600  1
  H  835  1  0.92972850  0.11378600  0.41845700  1
  H  836  1  0.88637900  0.16516300  0.45355200  1
  H  843  1  0.97037400  0.10909550  0.35283150  1
  H  844  1  0.01461100  0.07308150  0.30247950  1
  H  845  1  0.84838150  0.03978650  0.32475550  1
  H  846  1  0.72542150  0.19140000  0.41512600  1
  H  847  1  0.80433500  0.07519400  0.37587300  1
  H  848  1  0.76896200  0.14080000  0.37948900  1
