# generated using pymatgen
data_ZnH2C3N3O2
_symmetry_space_group_name_H-M   'P 1'
_cell_length_a   9.04010000
_cell_length_b   9.37408000
_cell_length_c   10.00129000
_cell_angle_alpha   89.97706000
_cell_angle_beta   89.95953000
_cell_angle_gamma   61.65710000
_symmetry_Int_Tables_number   1
_chemical_formula_structural   ZnH2C3N3O2
_chemical_formula_sum   'Zn4 H8 C12 N12 O8'
_cell_volume   745.93458678
_cell_formula_units_Z   4
loop_
 _symmetry_equiv_pos_site_id
 _symmetry_equiv_pos_as_xyz
  1  'x, y, z'
loop_
 _atom_site_type_symbol
 _atom_site_label
 _atom_site_symmetry_multiplicity
 _atom_site_fract_x
 _atom_site_fract_y
 _atom_site_fract_z
 _atom_site_occupancy
  Zn  Zn1  1  0.34845000  0.62476000  0.49629000  1.0
  Zn  Zn2  1  0.99987000  0.00026000  0.99635000  1.0
  Zn  Zn3  1  0.34854000  0.12469000  0.88410000  1.0
  Zn  Zn4  1  0.99978000  0.50033000  0.38419000  1.0
  H  H1  1  0.90223000  0.73977000  0.13512000  1.0
  H  H2  1  0.06352000  0.77262000  0.74109000  1.0
  H  H3  1  0.28515000  0.85252000  0.24093000  1.0
  H  H4  1  0.44690000  0.88497000  0.63517000  1.0
  H  H5  1  0.90121000  0.24079000  0.24452000  1.0
  H  H6  1  0.06457000  0.27128000  0.63899000  1.0
  H  H7  1  0.28398000  0.35403000  0.13880000  1.0
  H  H8  1  0.44722000  0.38457000  0.74460000  1.0
  C  C1  1  0.64467000  0.64793000  0.41004000  1.0
  C  C2  1  0.00610000  0.74294000  0.18628000  1.0
  C  C3  1  0.20039000  0.80094000  0.23870000  1.0
  C  C4  1  0.14837000  0.82410000  0.73877000  1.0
  C  C5  1  0.34286000  0.88189000  0.68628000  1.0
  C  C6  1  0.70382000  0.97700000  0.91007000  1.0
  C  C7  1  0.64477000  0.14710000  0.97295000  1.0
  C  C8  1  0.00528000  0.24388000  0.19356000  1.0
  C  C9  1  0.19941000  0.30222000  0.14112000  1.0
  C  C10  1  0.14926000  0.32293000  0.64121000  1.0
  C  C11  1  0.34333000  0.38130000  0.69357000  1.0
  C  C12  1  0.70361000  0.47778000  0.47291000  1.0
  N  N1  1  0.07940000  0.65670000  0.29536000  1.0
  N  N2  1  0.20535000  0.69360000  0.32894000  1.0
  N  N3  1  0.27124000  0.79004000  0.64741000  1.0
  N  N4  1  0.07769000  0.83483000  0.14733000  1.0
  N  N5  1  0.14330000  0.93148000  0.82894000  1.0
  N  N6  1  0.26938000  0.96825000  0.79530000  1.0
  N  N7  1  0.07919000  0.15726000  0.08476000  1.0
  N  N8  1  0.20503000  0.19439000  0.05120000  1.0
  N  N9  1  0.27213000  0.28904000  0.73245000  1.0
  N  N10  1  0.07636000  0.33621000  0.23234000  1.0
  N  N11  1  0.14384000  0.43059000  0.55113000  1.0
  N  N12  1  0.26962000  0.46774000  0.58466000  1.0
  O  O1  1  0.75820000  0.67989000  0.36640000  1.0
  O  O2  1  0.48862000  0.74313000  0.40697000  1.0
  O  O3  1  0.85988000  0.88176000  0.90695000  1.0
  O  O4  1  0.59029000  0.94512000  0.86654000  1.0
  O  O5  1  0.75797000  0.17784000  0.01932000  1.0
  O  O6  1  0.48893000  0.24335000  0.97333000  1.0
  O  O7  1  0.85947000  0.38155000  0.47339000  1.0
  O  O8  1  0.59032000  0.44700000  0.51912000  1.0
