# generated using pymatgen
data_Cr6H27C59NO34
_symmetry_space_group_name_H-M   'P 1'
_cell_length_a   10.85373000
_cell_length_b   10.99010000
_cell_length_c   18.86427000
_cell_angle_alpha   90.64654000
_cell_angle_beta   90.16983000
_cell_angle_gamma   119.55654000
_symmetry_Int_Tables_number   1
_chemical_formula_structural   Cr6H27C59NO34
_chemical_formula_sum   'Cr6 H27 C59 N1 O34'
_cell_volume   1957.15918703
_cell_formula_units_Z   1
loop_
 _symmetry_equiv_pos_site_id
 _symmetry_equiv_pos_as_xyz
  1  'x, y, z'
loop_
 _atom_site_type_symbol
 _atom_site_label
 _atom_site_symmetry_multiplicity
 _atom_site_fract_x
 _atom_site_fract_y
 _atom_site_fract_z
 _atom_site_occupancy
  Cr  Cr0  1  0.79166000  0.39025000  0.49993000  1
  Cr  Cr1  1  0.09852000  0.70829000  0.50054000  1
  Cr  Cr2  1  0.10977000  0.40143000  0.49948000  1
  Cr  Cr3  1  0.87479000  0.92589000  0.00007000  1
  Cr  Cr4  1  0.57412000  0.94867000  0.99930000  1
  Cr  Cr5  1  0.55142000  0.62532000  0.00092000  1
  H  H6  1  0.13326000  0.73717000  0.70807000  1
  H  H7  1  0.19861000  0.77143000  0.83676000  1
  H  H8  1  0.37006000  0.49669000  0.81040000  1
  H  H9  1  0.30797000  0.46107000  0.68982000  1
  H  H10  1  0.26122000  0.17376000  0.68246000  1
  H  H11  1  0.06573000  0.20596000  0.87184000  1
  H  H12  1  0.05242000  0.12462000  0.61457000  1
  H  H13  1  0.50322000  0.99977000  0.85274000  1
  H  H14  1  0.35302000  0.01644000  0.65461000  1
  H  H15  1  0.31797000  0.96856000  0.77802000  1
  H  H16  1  0.60145000  0.51078000  0.67089000  1
  H  H17  1  0.57847000  0.52860000  0.79981000  1
  H  H18  1  0.98769000  0.89952000  0.80648000  1
  H  H19  1  0.02000000  0.87008000  0.68425000  1
  H  H20  1  0.38241000  0.51069000  0.31918000  1
  H  H21  1  0.41276000  0.52410000  0.19498000  1
  H  H22  1  0.34234000  0.87734000  0.18645000  1
  H  H23  1  0.61978000  0.09005000  0.32260000  1
  H  H24  1  0.60024000  0.05897000  0.19638000  1
  H  H25  1  0.04670000  0.19091000  0.18332000  1
  H  H26  1  0.06795000  0.23043000  0.31193000  1
  H  H27  1  0.96892000  0.87864000  0.32770000  1
  H  H28  1  0.96350000  0.89851000  0.20141000  1
  H  H29  1  0.63056000  0.46992000  0.18234000  1
  H  H30  1  0.22719000  0.02876000  0.31820000  1
  H  H31  1  0.46768000  0.20564000  0.30795000  1
  H  H32  1  0.39931000  0.25745000  0.92101000  1
  C  C33  1  0.86345000  0.64149000  0.60243000  1
  C  C34  1  0.20366000  0.59220000  0.61018000  1
  C  C35  1  0.85814000  0.22115000  0.60065000  1
  C  C36  1  0.86240000  0.63868000  0.39826000  1
  C  C37  1  0.27429000  0.63617000  0.39745000  1
  C  C38  1  0.86183000  0.22662000  0.39646000  1
  C  C39  1  0.18784000  0.68719000  0.73069000  1
  C  C40  1  0.22668000  0.70852000  0.80318000  1
  C  C41  1  0.31085000  0.65593000  0.82996000  1
  C  C42  1  0.32422000  0.55561000  0.78916000  1
  C  C43  1  0.28569000  0.53312000  0.71916000  1
  C  C44  1  0.22765000  0.60756000  0.68727000  1
  C  C45  1  0.79096000  0.08120000  0.81234000  1
  C  C46  1  0.05420000  0.17456000  0.81692000  1
  C  C47  1  0.17572000  0.18970000  0.78315000  1
  C  C48  1  0.17092000  0.16698000  0.71002000  1
  C  C49  1  0.05129000  0.14142000  0.67108000  1
  C  C50  1  0.93151000  0.13358000  0.70479000  1
  C  C51  1  0.92483000  0.12847000  0.77915000  1
  C  C52  1  0.68902000  0.09781000  0.69969000  1
  C  C53  1  0.66988000  0.05799000  0.77092000  1
  C  C54  1  0.57735000  0.11324000  0.66771000  1
  C  C55  1  0.43954000  0.01966000  0.68489000  1
  C  C56  1  0.41852000  0.99176000  0.75560000  1
  C  C57  1  0.53119000  0.01201000  0.79876000  1
  C  C58  1  0.82337000  0.14118000  0.66689000  1
  C  C59  1  0.68719000  0.59315000  0.70086000  1
  C  C60  1  0.67163000  0.60603000  0.77381000  1
  C  C61  1  0.78112000  0.71375000  0.81346000  1
  C  C62  1  0.90209000  0.81264000  0.77834000  1
  C  C63  1  0.92000000  0.79597000  0.70736000  1
  C  C64  1  0.81825000  0.67856000  0.66923000  1
  C  C65  1  0.37471000  0.59305000  0.29217000  1
  C  C66  1  0.38809000  0.59861000  0.22000000  1
  C  C67  1  0.37108000  0.69764000  0.18107000  1
  C  C68  1  0.34746000  0.79625000  0.21633000  1
  C  C69  1  0.33378000  0.79234000  0.29017000  1
  C  C70  1  0.33902000  0.68285000  0.32792000  1
  C  C71  1  0.71331000  0.11134000  0.29308000  1
  C  C72  1  0.70345000  0.09659000  0.22063000  1
  C  C73  1  0.82420000  0.12978000  0.18016000  1
  C  C74  1  0.95402000  0.17042000  0.21368000  1
  C  C75  1  0.96476000  0.18921000  0.28693000  1
  C  C76  1  0.84488000  0.16527000  0.32629000  1
  C  C77  1  0.89520000  0.78729000  0.29715000  1
  C  C78  1  0.89423000  0.79773000  0.22452000  1
  C  C79  1  0.80467000  0.68087000  0.18254000  1
  C  C80  1  0.70779000  0.55632000  0.21469000  1
  C  C81  1  0.70731000  0.54428000  0.28843000  1
  C  C82  1  0.81179000  0.65833000  0.32943000  1
  C  C83  1  0.76990000  0.04478000  0.88770000  1
  C  C84  1  0.38755000  0.69607000  0.89848000  1
  C  C85  1  0.77269000  0.73080000  0.89036000  1
  C  C86  1  0.80352000  0.09986000  0.10481000  1
  C  C87  1  0.40335000  0.70773000  0.10589000  1
  C  C88  1  0.79499000  0.70143000  0.10722000  1
  C  C89  1  0.31390000  0.90357000  0.32442000  1
  C  C90  1  0.59509000  0.41307000  0.31944000  1
  C  C91  1  0.30626000  0.22744000  0.82472000  1
  N  N92  1  0.59921000  0.25236000  0.66293000  1
  O  O93  1  0.76650000  0.25004000  0.57979000  1
  O  O94  1  0.79857000  0.51678000  0.57478000  1
  O  O95  1  0.98400000  0.73295000  0.58109000  1
  O  O96  1  0.21860000  0.70089000  0.57476000  1
  O  O97  1  0.24939000  0.51535000  0.57994000  1
  O  O98  1  0.98279000  0.28090000  0.57370000  1
  O  O99  1  0.76660000  0.25113000  0.41926000  1
  O  O100  1  0.79866000  0.51779000  0.42598000  1
  O  O101  1  0.98410000  0.73404000  0.42057000  1
  O  O102  1  0.21869000  0.70190000  0.42596000  1
  O  O103  1  0.24949000  0.51644000  0.41942000  1
  O  O104  1  0.98288000  0.28191000  0.42489000  1
  O  O105  1  0.99998000  0.49999000  0.49998000  1
  O  O106  1  0.89511000  0.80686000  0.92043000  1
  O  O107  1  0.87226000  0.04697000  0.92500000  1
  O  O108  1  0.69143000  0.08506000  0.91855000  1
  O  O109  1  0.45149000  0.82246000  0.92525000  1
  O  O110  1  0.41333000  0.60336000  0.92044000  1
  O  O111  1  0.67611000  0.62625000  0.92675000  1
  O  O112  1  0.89535000  0.80987000  0.08095000  1
  O  O113  1  0.87249000  0.04976000  0.07380000  1
  O  O114  1  0.69168000  0.08807000  0.07907000  1
  O  O115  1  0.45172000  0.82525000  0.07405000  1
  O  O116  1  0.41358000  0.60637000  0.08096000  1
  O  O117  1  0.67634000  0.62904000  0.07555000  1
  O  O118  1  0.66678000  0.83329000  0.00009000  1
  O  O119  1  0.69965000  0.35201000  0.70057000  1
  O  O120  1  0.52020000  0.27923000  0.62113000  1
  O  O121  1  0.37052000  0.95470000  0.38154000  1
  O  O122  1  0.23506000  0.95438000  0.28951000  1
  O  O123  1  0.54245000  0.41530000  0.37634000  1
  O  O124  1  0.54417000  0.28733000  0.28149000  1
  O  O125  1  0.41704000  0.25825000  0.79436000  1
  O  O126  1  0.30349000  0.22918000  0.89888000  1
