# generated using pymatgen
data_ZnH6(C3N2)2
_symmetry_space_group_name_H-M   'P 1'
_cell_length_a   9.80507000
_cell_length_b   23.28541000
_cell_length_c   24.88721000
_cell_angle_alpha   90.00000000
_cell_angle_beta   90.00000000
_cell_angle_gamma   90.00000000
_symmetry_Int_Tables_number   1
_chemical_formula_structural   ZnH6(C3N2)2
_chemical_formula_sum   'Zn16 H96 C96 N64'
_cell_volume   5682.12521841
_cell_formula_units_Z   16
loop_
 _symmetry_equiv_pos_site_id
 _symmetry_equiv_pos_as_xyz
  1  'x, y, z'
loop_
 _atom_site_type_symbol
 _atom_site_label
 _atom_site_symmetry_multiplicity
 _atom_site_fract_x
 _atom_site_fract_y
 _atom_site_fract_z
 _atom_site_occupancy
  Zn  Zn1  1  0.01768000  0.49918000  0.82107000  1.0
  Zn  Zn2  1  0.48232000  0.99918000  0.17893000  1.0
  Zn  Zn3  1  0.98231000  0.00081000  0.32107000  1.0
  Zn  Zn4  1  0.51768000  0.50081000  0.67893000  1.0
  Zn  Zn5  1  0.98232000  0.50081000  0.17893000  1.0
  Zn  Zn6  1  0.51768000  0.00081000  0.82107000  1.0
  Zn  Zn7  1  0.01768000  0.99918000  0.67893000  1.0
  Zn  Zn8  1  0.48232000  0.49918000  0.32107000  1.0
  Zn  Zn9  1  0.00209000  0.67543000  0.99895000  1.0
  Zn  Zn10  1  0.49791000  0.17542000  0.00105000  1.0
  Zn  Zn11  1  0.99791000  0.82457000  0.49895000  1.0
  Zn  Zn12  1  0.50209000  0.32457000  0.50105000  1.0
  Zn  Zn13  1  0.99791000  0.32457000  0.00105000  1.0
  Zn  Zn14  1  0.50209000  0.82457000  0.99895000  1.0
  Zn  Zn15  1  0.00209000  0.17542000  0.50105000  1.0
  Zn  Zn16  1  0.49791000  0.67543000  0.49895000  1.0
  H  H1  1  0.94702000  0.55372000  0.93841000  1.0
  H  H2  1  0.55298000  0.05372000  0.06158000  1.0
  H  H3  1  0.05298000  0.94628000  0.43841000  1.0
  H  H4  1  0.44702000  0.44628000  0.56159000  1.0
  H  H5  1  0.05298000  0.44628000  0.06158000  1.0
  H  H6  1  0.44702000  0.94628000  0.93841000  1.0
  H  H7  1  0.94702000  0.05372000  0.56159000  1.0
  H  H8  1  0.55298000  0.55372000  0.43841000  1.0
  H  H9  1  0.30294000  0.72128000  0.96484000  1.0
  H  H10  1  0.19706000  0.22128000  0.03515000  1.0
  H  H11  1  0.69706000  0.77872000  0.46484000  1.0
  H  H12  1  0.80294000  0.27872000  0.53515000  1.0
  H  H13  1  0.69706000  0.27872000  0.03515000  1.0
  H  H14  1  0.80294000  0.77872000  0.96485000  1.0
  H  H15  1  0.30294000  0.22128000  0.53515000  1.0
  H  H16  1  0.19706000  0.72128000  0.46484000  1.0
  H  H17  1  0.99207000  0.58814000  0.72322000  1.0
  H  H18  1  0.50793000  0.08814000  0.27678000  1.0
  H  H19  1  0.00793000  0.91186000  0.22322000  1.0
  H  H20  1  0.49207000  0.41186000  0.77678000  1.0
  H  H21  1  0.00793000  0.41186000  0.27678000  1.0
  H  H22  1  0.49207000  0.91186000  0.72322000  1.0
  H  H23  1  0.99207000  0.08814000  0.77678000  1.0
  H  H24  1  0.50793000  0.58814000  0.22322000  1.0
  H  H25  1  0.99202000  0.79952000  0.05576000  1.0
  H  H26  1  0.50798000  0.29952000  0.94424000  1.0
  H  H27  1  0.00798000  0.70048000  0.55576000  1.0
  H  H28  1  0.49202000  0.20048000  0.44424000  1.0
  H  H29  1  0.00798000  0.20048000  0.94424000  1.0
  H  H30  1  0.49202000  0.70048000  0.05576000  1.0
  H  H31  1  0.99202000  0.29952000  0.44424000  1.0
  H  H32  1  0.50798000  0.79952000  0.55576000  1.0
  H  H33  1  0.70551000  0.47047000  0.78438000  1.0
  H  H34  1  0.79449000  0.97047000  0.21561000  1.0
  H  H35  1  0.29449000  0.02953000  0.28438000  1.0
  H  H36  1  0.20551000  0.52953000  0.71562000  1.0
  H  H37  1  0.29449000  0.52953000  0.21561000  1.0
  H  H38  1  0.20551000  0.02953000  0.78438000  1.0
  H  H39  1  0.70551000  0.97047000  0.71562000  1.0
  H  H40  1  0.79449000  0.47047000  0.28438000  1.0
  H  H41  1  0.22552000  0.86675000  0.06078000  1.0
  H  H42  1  0.27448000  0.36675000  0.93922000  1.0
  H  H43  1  0.77448000  0.63325000  0.56078000  1.0
  H  H44  1  0.72552000  0.13325000  0.43922000  1.0
  H  H45  1  0.77448000  0.13325000  0.93922000  1.0
  H  H46  1  0.72552000  0.63325000  0.06078000  1.0
  H  H47  1  0.22552000  0.36675000  0.43922000  1.0
  H  H48  1  0.27448000  0.86675000  0.56078000  1.0
  H  H49  1  0.06238000  0.45104000  0.94162000  1.0
  H  H50  1  0.43762000  0.95104000  0.05838000  1.0
  H  H51  1  0.93762000  0.04896000  0.44162000  1.0
  H  H52  1  0.56238000  0.54896000  0.55838000  1.0
  H  H53  1  0.93762000  0.54896000  0.05838000  1.0
  H  H54  1  0.56238000  0.04896000  0.94162000  1.0
  H  H55  1  0.06238000  0.95104000  0.55838000  1.0
  H  H56  1  0.43762000  0.45104000  0.44162000  1.0
  H  H57  1  0.25930000  0.40876000  0.83979000  1.0
  H  H58  1  0.24070000  0.90876000  0.16020000  1.0
  H  H59  1  0.74070000  0.09124000  0.33979000  1.0
  H  H60  1  0.75930000  0.59124000  0.66020000  1.0
  H  H61  1  0.74070000  0.59124000  0.16020000  1.0
  H  H62  1  0.75930000  0.09124000  0.83979000  1.0
  H  H63  1  0.25930000  0.90876000  0.66020000  1.0
  H  H64  1  0.24070000  0.40876000  0.33979000  1.0
  H  H65  1  0.17917000  0.61870000  0.80983000  1.0
  H  H66  1  0.32083000  0.11870000  0.19017000  1.0
  H  H67  1  0.82083000  0.88130000  0.30983000  1.0
  H  H68  1  0.67917000  0.38130000  0.69017000  1.0
  H  H69  1  0.82083000  0.38130000  0.19017000  1.0
  H  H70  1  0.67917000  0.88130000  0.80983000  1.0
  H  H71  1  0.17917000  0.11870000  0.69017000  1.0
  H  H72  1  0.32083000  0.61870000  0.30983000  1.0
  H  H73  1  0.81885000  0.30939000  0.89790000  1.0
  H  H74  1  0.68115000  0.80939000  0.10210000  1.0
  H  H75  1  0.18115000  0.19061000  0.39790000  1.0
  H  H76  1  0.31885000  0.69061000  0.60210000  1.0
  H  H77  1  0.18115000  0.69061000  0.10210000  1.0
  H  H78  1  0.31885000  0.19061000  0.89790000  1.0
  H  H79  1  0.81885000  0.80939000  0.60210000  1.0
  H  H80  1  0.68115000  0.30939000  0.39790000  1.0
  H  H81  1  0.15147000  0.70333000  0.88749000  1.0
  H  H82  1  0.34853000  0.20333000  0.11251000  1.0
  H  H83  1  0.84853000  0.79667000  0.38748000  1.0
  H  H84  1  0.65147000  0.29667000  0.61251000  1.0
  H  H85  1  0.84853000  0.29667000  0.11251000  1.0
  H  H86  1  0.65147000  0.79667000  0.88749000  1.0
  H  H87  1  0.15147000  0.20333000  0.61251000  1.0
  H  H88  1  0.34853000  0.70333000  0.38748000  1.0
  H  H89  1  0.82999000  0.38654000  0.81288000  1.0
  H  H90  1  0.67001000  0.88654000  0.18712000  1.0
  H  H91  1  0.17001000  0.11346000  0.31288000  1.0
  H  H92  1  0.32999000  0.61346000  0.68712000  1.0
  H  H93  1  0.17001000  0.61346000  0.18712000  1.0
  H  H94  1  0.32999000  0.11346000  0.81288000  1.0
  H  H95  1  0.82999000  0.88654000  0.68712000  1.0
  H  H96  1  0.67001000  0.38654000  0.31288000  1.0
  C  C1  1  0.00773000  0.58286000  0.91431000  1.0
  C  C2  1  0.49227000  0.08286000  0.08569000  1.0
  C  C3  1  0.99227000  0.91714000  0.41431000  1.0
  C  C4  1  0.50773000  0.41714000  0.58569000  1.0
  C  C5  1  0.99227000  0.41714000  0.08569000  1.0
  C  C6  1  0.50773000  0.91714000  0.91431000  1.0
  C  C7  1  0.00773000  0.08286000  0.58569000  1.0
  C  C8  1  0.49227000  0.58286000  0.41431000  1.0
  C  C9  1  0.24979000  0.75206000  0.98991000  1.0
  C  C10  1  0.25022000  0.25206000  0.01008000  1.0
  C  C11  1  0.75022000  0.74794000  0.48991000  1.0
  C  C12  1  0.74978000  0.24794000  0.51008000  1.0
  C  C13  1  0.75021000  0.24794000  0.01008000  1.0
  C  C14  1  0.74978000  0.74794000  0.98991000  1.0
  C  C15  1  0.24978000  0.25206000  0.51008000  1.0
  C  C16  1  0.25022000  0.75206000  0.48991000  1.0
  C  C17  1  0.89918000  0.56328000  0.72613000  1.0
  C  C18  1  0.60082000  0.06328000  0.27387000  1.0
  C  C19  1  0.10083000  0.93672000  0.22612000  1.0
  C  C20  1  0.39918000  0.43672000  0.77387000  1.0
  C  C21  1  0.10082000  0.43672000  0.27387000  1.0
  C  C22  1  0.39918000  0.93672000  0.72613000  1.0
  C  C23  1  0.89917000  0.06328000  0.77387000  1.0
  C  C24  1  0.60082000  0.56328000  0.22612000  1.0
  C  C25  1  0.09111000  0.79337000  0.03749000  1.0
  C  C26  1  0.40889000  0.29337000  0.96251000  1.0
  C  C27  1  0.90889000  0.70663000  0.53749000  1.0
  C  C28  1  0.59111000  0.20663000  0.46251000  1.0
  C  C29  1  0.90889000  0.20663000  0.96251000  1.0
  C  C30  1  0.59111000  0.70663000  0.03749000  1.0
  C  C31  1  0.09111000  0.29337000  0.46251000  1.0
  C  C32  1  0.40889000  0.79337000  0.53749000  1.0
  C  C33  1  0.75313000  0.50181000  0.75825000  1.0
  C  C34  1  0.74687000  0.00181000  0.24175000  1.0
  C  C35  1  0.24687000  0.99819000  0.25825000  1.0
  C  C36  1  0.25313000  0.49819000  0.74175000  1.0
  C  C37  1  0.24687000  0.49819000  0.24175000  1.0
  C  C38  1  0.25313000  0.99819000  0.75825000  1.0
  C  C39  1  0.75313000  0.00181000  0.74175000  1.0
  C  C40  1  0.74687000  0.50181000  0.25825000  1.0
  C  C41  1  0.20699000  0.82670000  0.03989000  1.0
  C  C42  1  0.29301000  0.32670000  0.96011000  1.0
  C  C43  1  0.79301000  0.67330000  0.53989000  1.0
  C  C44  1  0.70699000  0.17330000  0.46011000  1.0
  C  C45  1  0.79301000  0.17330000  0.96011000  1.0
  C  C46  1  0.70699000  0.67330000  0.03989000  1.0
  C  C47  1  0.20699000  0.32670000  0.46011000  1.0
  C  C48  1  0.29301000  0.82670000  0.53989000  1.0
  C  C49  1  0.99685000  0.42288000  0.91843000  1.0
  C  C50  1  0.50315000  0.92288000  0.08157000  1.0
  C  C51  1  0.00315000  0.07712000  0.41843000  1.0
  C  C52  1  0.49685000  0.57712000  0.58157000  1.0
  C  C53  1  0.00315000  0.57712000  0.08157000  1.0
  C  C54  1  0.49685000  0.07712000  0.91843000  1.0
  C  C55  1  0.99685000  0.92288000  0.58157000  1.0
  C  C56  1  0.50315000  0.42288000  0.41843000  1.0
  C  C57  1  0.28352000  0.43509000  0.80521000  1.0
  C  C58  1  0.21649000  0.93509000  0.19479000  1.0
  C  C59  1  0.71648000  0.06491000  0.30521000  1.0
  C  C60  1  0.78352000  0.56491000  0.69479000  1.0
  C  C61  1  0.71648000  0.56491000  0.19479000  1.0
  C  C62  1  0.78351000  0.06491000  0.80521000  1.0
  C  C63  1  0.28352000  0.93509000  0.69479000  1.0
  C  C64  1  0.21648000  0.43509000  0.30521000  1.0
  C  C65  1  0.12674000  0.61773000  0.84810000  1.0
  C  C66  1  0.37326000  0.11773000  0.15190000  1.0
  C  C67  1  0.87327000  0.88227000  0.34810000  1.0
  C  C68  1  0.62674000  0.38227000  0.65190000  1.0
  C  C69  1  0.87326000  0.38227000  0.15190000  1.0
  C  C70  1  0.62674000  0.88227000  0.84810000  1.0
  C  C71  1  0.12673000  0.11773000  0.65190000  1.0
  C  C72  1  0.37326000  0.61773000  0.34810000  1.0
  C  C73  1  0.87028000  0.35036000  0.89450000  1.0
  C  C74  1  0.62972000  0.85036000  0.10550000  1.0
  C  C75  1  0.12972000  0.14964000  0.39450000  1.0
  C  C76  1  0.37028000  0.64964000  0.60550000  1.0
  C  C77  1  0.12972000  0.64964000  0.10550000  1.0
  C  C78  1  0.37028000  0.14964000  0.89450000  1.0
  C  C79  1  0.87028000  0.85036000  0.60550000  1.0
  C  C80  1  0.62972000  0.35036000  0.39450000  1.0
  C  C81  1  0.11424000  0.65958000  0.88685000  1.0
  C  C82  1  0.38576000  0.15958000  0.11314000  1.0
  C  C83  1  0.88576000  0.84042000  0.38685000  1.0
  C  C84  1  0.61424000  0.34042000  0.61314000  1.0
  C  C85  1  0.88576000  0.34042000  0.11314000  1.0
  C  C86  1  0.61424000  0.84042000  0.88685000  1.0
  C  C87  1  0.11424000  0.15958000  0.61314000  1.0
  C  C88  1  0.38576000  0.65958000  0.38685000  1.0
  C  C89  1  0.87508000  0.38879000  0.85251000  1.0
  C  C90  1  0.62492000  0.88879000  0.14749000  1.0
  C  C91  1  0.12492000  0.11121000  0.35251000  1.0
  C  C92  1  0.37508000  0.61121000  0.64749000  1.0
  C  C93  1  0.12492000  0.61121000  0.14749000  1.0
  C  C94  1  0.37508000  0.11121000  0.85251000  1.0
  C  C95  1  0.87508000  0.88879000  0.64749000  1.0
  C  C96  1  0.62492000  0.38879000  0.35251000  1.0
  N  N1  1  0.87963000  0.52301000  0.76634000  1.0
  N  N2  1  0.62037000  0.02301000  0.23366000  1.0
  N  N3  1  0.12037000  0.97699000  0.26634000  1.0
  N  N4  1  0.37963000  0.47699000  0.73366000  1.0
  N  N5  1  0.12037000  0.47699000  0.23366000  1.0
  N  N6  1  0.37963000  0.97699000  0.76634000  1.0
  N  N7  1  0.87963000  0.02301000  0.73366000  1.0
  N  N8  1  0.62037000  0.52301000  0.26634000  1.0
  N  N9  1  0.19110000  0.47428000  0.78469000  1.0
  N  N10  1  0.30890000  0.97428000  0.21531000  1.0
  N  N11  1  0.80890000  0.02572000  0.28469000  1.0
  N  N12  1  0.69110000  0.52572000  0.71531000  1.0
  N  N13  1  0.80890000  0.52572000  0.21531000  1.0
  N  N14  1  0.69110000  0.02572000  0.78469000  1.0
  N  N15  1  0.19110000  0.97428000  0.71531000  1.0
  N  N16  1  0.30890000  0.47428000  0.28469000  1.0
  N  N17  1  0.11882000  0.74596000  0.00566000  1.0
  N  N18  1  0.38118000  0.24596000  0.99434000  1.0
  N  N19  1  0.88118000  0.75404000  0.50566000  1.0
  N  N20  1  0.61882000  0.25404000  0.49434000  1.0
  N  N21  1  0.88118000  0.25404000  0.99434000  1.0
  N  N22  1  0.61882000  0.75404000  0.00566000  1.0
  N  N23  1  0.11882000  0.24596000  0.49434000  1.0
  N  N24  1  0.38118000  0.74596000  0.50566000  1.0
  N  N25  1  0.80742000  0.69968000  0.00956000  1.0
  N  N26  1  0.69257000  0.19968000  0.99043000  1.0
  N  N27  1  0.19258000  0.80032000  0.50957000  1.0
  N  N28  1  0.30742000  0.30032000  0.49043000  1.0
  N  N29  1  0.19257000  0.30032000  0.99043000  1.0
  N  N30  1  0.30743000  0.80032000  0.00956000  1.0
  N  N31  1  0.80742000  0.19968000  0.49043000  1.0
  N  N32  1  0.69257000  0.69968000  0.50957000  1.0
  N  N33  1  0.05892000  0.56912000  0.86570000  1.0
  N  N34  1  0.44108000  0.06912000  0.13430000  1.0
  N  N35  1  0.94108000  0.93088000  0.36570000  1.0
  N  N36  1  0.55892000  0.43088000  0.63430000  1.0
  N  N37  1  0.94108000  0.43088000  0.13430000  1.0
  N  N38  1  0.55892000  0.93088000  0.86570000  1.0
  N  N39  1  0.05892000  0.06912000  0.63430000  1.0
  N  N40  1  0.44108000  0.56912000  0.36570000  1.0
  N  N41  1  0.03894000  0.63710000  0.92901000  1.0
  N  N42  1  0.46106000  0.13710000  0.07099000  1.0
  N  N43  1  0.96106000  0.86290000  0.42901000  1.0
  N  N44  1  0.53894000  0.36290000  0.57099000  1.0
  N  N45  1  0.96106000  0.36290000  0.07099000  1.0
  N  N46  1  0.53894000  0.86290000  0.92901000  1.0
  N  N47  1  0.03894000  0.13710000  0.57099000  1.0
  N  N48  1  0.46106000  0.63710000  0.42901000  1.0
  N  N49  1  0.95529000  0.43486000  0.86787000  1.0
  N  N50  1  0.54471000  0.93486000  0.13213000  1.0
  N  N51  1  0.04471000  0.06514000  0.36787000  1.0
  N  N52  1  0.45529000  0.56514000  0.63213000  1.0
  N  N53  1  0.04471000  0.56514000  0.13213000  1.0
  N  N54  1  0.45529000  0.06514000  0.86787000  1.0
  N  N55  1  0.95529000  0.93486000  0.63213000  1.0
  N  N56  1  0.54471000  0.43486000  0.36787000  1.0
  N  N57  1  0.94795000  0.37216000  0.93626000  1.0
  N  N58  1  0.55205000  0.87216000  0.06374000  1.0
  N  N59  1  0.05205000  0.12784000  0.43626000  1.0
  N  N60  1  0.44795000  0.62784000  0.56374000  1.0
  N  N61  1  0.05205000  0.62784000  0.06374000  1.0
  N  N62  1  0.44795000  0.12784000  0.93626000  1.0
  N  N63  1  0.94795000  0.87216000  0.56374000  1.0
  N  N64  1  0.55205000  0.37216000  0.43626000  1.0
