# generated using pymatgen
data_ZnH22C24(NO)4
_symmetry_space_group_name_H-M   'P 1'
_cell_length_a   18.48690000
_cell_length_b   18.57611000
_cell_length_c   20.11521990
_cell_angle_alpha   109.33354889
_cell_angle_beta   109.17534660
_cell_angle_gamma   106.36859000
_symmetry_Int_Tables_number   1
_chemical_formula_structural   ZnH22C24(NO)4
_chemical_formula_sum   'Zn8 H176 C192 N32 O32'
_cell_volume   5534.04672723
_cell_formula_units_Z   8
loop_
 _symmetry_equiv_pos_site_id
 _symmetry_equiv_pos_as_xyz
  1  'x, y, z'
loop_
 _atom_site_type_symbol
 _atom_site_label
 _atom_site_symmetry_multiplicity
 _atom_site_fract_x
 _atom_site_fract_y
 _atom_site_fract_z
 _atom_site_occupancy
  Zn  Zn0  1  0.88407000  0.88395000  0.76749000  1
  Zn  Zn1  1  0.13488000  0.63327000  0.26590000  1
  Zn  Zn2  1  0.50162000  0.50171000  0.00341000  1
  Zn  Zn3  1  0.75241000  0.25060000  0.50183000  1
  Zn  Zn4  1  0.43901000  0.43186000  0.37389000  1
  Zn  Zn5  1  0.19444000  0.68715000  0.87540000  1
  Zn  Zn6  1  0.93429000  0.94116000  0.37374000  1
  Zn  Zn7  1  0.68233000  0.19033000  0.87550000  1
  H  H8  1  0.06377000  0.99671000  0.84662000  1
  H  H9  1  0.01891000  0.40213000  0.05052000  1
  H  H10  1  0.98832000  0.26693000  0.94068000  1
  H  H11  1  0.08736000  0.18407000  0.11180000  1
  H  H12  1  0.11101000  0.31559000  0.22013000  1
  H  H13  1  0.81399000  0.03585000  0.80980000  1
  H  H14  1  0.85781000  0.12608000  0.90331000  1
  H  H15  1  0.82547000  0.02282000  0.89538000  1
  H  H16  1  0.20324000  0.12736000  0.02699000  1
  H  H17  1  0.19876000  0.22305000  0.03220000  1
  H  H18  1  0.20886000  0.15616000  0.95240000  1
  H  H19  1  0.78341000  0.84995000  0.84661000  1
  H  H20  1  0.03353000  0.64961000  0.05132000  1
  H  H21  1  0.95269000  0.67419000  0.94135000  1
  H  H22  1  0.02438000  0.92799000  0.11249000  1
  H  H23  1  0.11009000  0.90513000  0.22036000  1
  H  H24  1  0.99563000  0.77450000  0.80937000  1
  H  H25  1  0.04631000  0.77796000  0.90290000  1
  H  H26  1  0.06977000  0.87311000  0.89473000  1
  H  H27  1  0.82427000  0.90002000  0.02679000  1
  H  H28  1  0.83328000  0.80939000  0.03253000  1
  H  H29  1  0.74369000  0.79695000  0.95252000  1
  H  H30  1  0.24746000  0.81207000  0.34459000  1
  H  H31  1  0.65428000  0.77047000  0.55242000  1
  H  H32  1  0.51885000  0.73940000  0.44186000  1
  H  H33  1  0.43319000  0.83691000  0.61175000  1
  H  H34  1  0.56521000  0.86153000  0.72077000  1
  H  H35  1  0.28695000  0.56442000  0.30957000  1
  H  H36  1  0.37739000  0.60793000  0.40296000  1
  H  H37  1  0.27387000  0.57620000  0.39537000  1
  H  H38  1  0.37534000  0.95063000  0.52565000  1
  H  H39  1  0.47277000  0.94876000  0.53219000  1
  H  H40  1  0.40515000  0.95760000  0.45177000  1
  H  H41  1  0.10029000  0.53401000  0.34541000  1
  H  H42  1  0.89937000  0.78309000  0.55189000  1
  H  H43  1  0.92396000  0.70312000  0.44134000  1
  H  H44  1  0.17900000  0.77467000  0.61070000  1
  H  H45  1  0.15638000  0.85959000  0.71978000  1
  H  H46  1  0.02470000  0.74556000  0.30867000  1
  H  H47  1  0.02758000  0.79562000  0.40208000  1
  H  H48  1  0.12340000  0.81968000  0.39419000  1
  H  H49  1  0.15037000  0.57493000  0.52581000  1
  H  H50  1  0.05935000  0.58408000  0.53142000  1
  H  H51  1  0.04692000  0.49489000  0.45129000  1
  H  H52  1  0.65526000  0.61144000  0.00940000  1
  H  H53  1  0.65986000  0.39359000  0.63159000  1
  H  H54  1  0.63813000  0.48120000  0.73992000  1
  H  H55  1  0.60741000  0.28876000  0.81615000  1
  H  H56  1  0.62428000  0.19929000  0.70438000  1
  H  H57  1  0.49010000  0.28388000  0.82687000  1
  H  H58  1  0.42658000  0.32400000  0.77745000  1
  H  H59  1  0.44011000  0.33693000  0.87295000  1
  H  H60  1  0.73941000  0.62491000  0.88534000  1
  H  H61  1  0.78332000  0.55468000  0.90033000  1
  H  H62  1  0.79065000  0.63676000  0.98265000  1
  H  H63  1  0.35453000  0.39692000  0.00931000  1
  H  H64  1  0.97439000  0.23739000  0.63214000  1
  H  H65  1  0.10482000  0.26007000  0.74173000  1
  H  H66  1  0.20782000  0.52809000  0.81642000  1
  H  H67  1  0.07869000  0.50410000  0.70383000  1
  H  H68  1  0.33617000  0.54314000  0.82694000  1
  H  H69  1  0.35037000  0.45381000  0.77746000  1
  H  H70  1  0.43259000  0.53649000  0.87256000  1
  H  H71  1  0.14688000  0.26087000  0.88602000  1
  H  H72  1  0.11741000  0.34572000  0.90095000  1
  H  H73  1  0.19245000  0.34599000  0.98338000  1
  H  H74  1  0.86217000  0.40393000  0.50860000  1
  H  H75  1  0.64478000  0.40943000  0.13249000  1
  H  H76  1  0.73219000  0.38798000  0.24127000  1
  H  H77  1  0.53770000  0.35688000  0.31606000  1
  H  H78  1  0.44812000  0.37278000  0.20372000  1
  H  H79  1  0.53326000  0.23977000  0.32609000  1
  H  H80  1  0.57336000  0.17622000  0.27663000  1
  H  H81  1  0.58616000  0.18988000  0.37215000  1
  H  H82  1  0.87564000  0.48944000  0.38612000  1
  H  H83  1  0.80449000  0.53236000  0.40107000  1
  H  H84  1  0.88678000  0.53975000  0.48336000  1
  H  H85  1  0.64810000  0.10449000  0.50925000  1
  H  H86  1  0.48700000  0.72314000  0.13236000  1
  H  H87  1  0.50870000  0.85310000  0.24139000  1
  H  H88  1  0.77771000  0.95766000  0.31521000  1
  H  H89  1  0.75436000  0.82879000  0.20302000  1
  H  H90  1  0.79328000  0.08471000  0.32540000  1
  H  H91  1  0.70355000  0.09860000  0.27579000  1
  H  H92  1  0.78631000  0.18068000  0.37104000  1
  H  H93  1  0.51074000  0.89731000  0.38628000  1
  H  H94  1  0.59611000  0.86831000  0.40110000  1
  H  H95  1  0.59638000  0.94331000  0.48351000  1
  H  H96  1  0.26632000  0.33805000  0.34501000  1
  H  H97  1  0.55451000  0.58234000  0.38231000  1
  H  H98  1  0.22085000  0.53448000  0.69902000  1
  H  H99  1  0.35308000  0.61836000  0.01757000  1
  H  H100  1  0.23949000  0.44817000  0.58741000  1
  H  H101  1  0.43933000  0.59133000  0.12180000  1
  H  H102  1  0.35582000  0.67177000  0.56917000  1
  H  H103  1  0.23150000  0.52680000  0.17814000  1
  H  H104  1  0.33683000  0.75812000  0.68136000  1
  H  H105  1  0.14562000  0.55114000  0.07229000  1
  H  H106  1  0.49243000  0.59844000  0.61514000  1
  H  H107  1  0.47299000  0.64965000  0.55576000  1
  H  H108  1  0.51983000  0.57918000  0.53595000  1
  H  H109  1  0.24988000  0.40246000  0.23359000  1
  H  H110  1  0.29286000  0.34369000  0.18364000  1
  H  H111  1  0.24200000  0.39762000  0.14195000  1
  H  H112  1  0.13732000  0.30827000  0.39218000  1
  H  H113  1  0.11816000  0.37969000  0.35545000  1
  H  H114  1  0.13694000  0.40196000  0.45430000  1
  H  H115  1  0.57238000  0.66474000  0.25338000  1
  H  H116  1  0.59724000  0.71157000  0.35532000  1
  H  H117  1  0.51631000  0.71984000  0.28397000  1
  H  H118  1  0.25825000  0.82942000  0.84616000  1
  H  H119  1  0.05186000  0.58053000  0.88401000  1
  H  H120  1  0.41498000  0.22801000  0.19812000  1
  H  H121  1  0.65075000  0.41460000  0.51749000  1
  H  H122  1  0.39025000  0.09769000  0.08763000  1
  H  H123  1  0.78237000  0.43335000  0.62204000  1
  H  H124  1  0.14805000  0.96468000  0.07140000  1
  H  H125  1  0.90159000  0.69640000  0.67842000  1
  H  H126  1  0.17375000  0.09609000  0.18279000  1
  H  H127  1  0.77134000  0.67570000  0.57206000  1
  H  H128  1  0.26774000  0.87397000  0.11664000  1
  H  H129  1  0.15701000  0.83521000  0.05784000  1
  H  H130  1  0.20696000  0.76799000  0.03756000  1
  H  H131  1  0.08280000  0.73433000  0.73376000  1
  H  H132  1  0.09157000  0.64174000  0.68376000  1
  H  H133  1  0.99556000  0.65085000  0.64249000  1
  H  H134  1  0.33437000  0.00391000  0.89203000  1
  H  H135  1  0.22580000  0.98620000  0.85525000  1
  H  H136  1  0.30235000  0.06667000  0.95377000  1
  H  H137  1  0.84125000  0.43242000  0.75418000  1
  H  H138  1  0.89524000  0.50921000  0.85612000  1
  H  H139  1  0.81503000  0.51781000  0.78426000  1
  H  H140  1  0.07747000  0.00454000  0.34430000  1
  H  H141  1  0.82679000  0.79935000  0.38233000  1
  H  H142  1  0.47777000  0.16584000  0.69889000  1
  H  H143  1  0.66407000  0.40059000  0.01787000  1
  H  H144  1  0.34745000  0.13975000  0.58714000  1
  H  H145  1  0.68299000  0.53188000  0.12271000  1
  H  H146  1  0.21457000  0.89879000  0.57159000  1
  H  H147  1  0.94694000  0.65065000  0.17859000  1
  H  H148  1  0.34614000  0.92570000  0.68385000  1
  H  H149  1  0.92611000  0.52016000  0.07205000  1
  H  H150  1  0.12274000  0.01657000  0.61591000  1
  H  H151  1  0.08337000  0.90616000  0.55704000  1
  H  H152  1  0.01620000  0.95627000  0.53700000  1
  H  H153  1  0.98345000  0.83098000  0.23324000  1
  H  H154  1  0.89006000  0.83903000  0.18317000  1
  H  H155  1  0.89997000  0.74380000  0.14206000  1
  H  H156  1  0.25316000  0.08337000  0.39190000  1
  H  H157  1  0.23629000  0.97549000  0.35469000  1
  H  H158  1  0.31628000  0.05163000  0.45350000  1
  H  H159  1  0.68104000  0.58857000  0.25360000  1
  H  H160  1  0.75781000  0.64313000  0.35557000  1
  H  H161  1  0.76756000  0.56385000  0.28411000  1
  H  H162  1  0.58910000  0.01895000  0.84642000  1
  H  H163  1  0.83326000  0.30486000  0.88355000  1
  H  H164  1  0.78323000  0.96921000  0.19724000  1
  H  H165  1  0.86714000  0.10121000  0.51664000  1
  H  H166  1  0.69792000  0.99109000  0.08785000  1
  H  H167  1  0.84203000  0.18879000  0.62196000  1
  H  H168  1  0.92381000  0.10671000  0.07073000  1
  H  H169  1  0.77717000  0.98312000  0.67972000  1
  H  H170  1  0.00882000  0.08483000  0.18108000  1
  H  H171  1  0.79937000  0.89587000  0.57256000  1
  H  H172  1  0.84967000  0.24402000  0.11737000  1
  H  H173  1  0.90166000  0.22397000  0.05846000  1
  H  H174  1  0.83176000  0.27125000  0.03831000  1
  H  H175  1  0.65242000  0.00154000  0.73526000  1
  H  H176  1  0.59368000  0.04436000  0.68546000  1
  H  H177  1  0.64750000  0.99323000  0.64348000  1
  H  H178  1  0.55826000  0.89007000  0.89220000  1
  H  H179  1  0.63040000  0.87154000  0.85573000  1
  H  H180  1  0.65177000  0.88890000  0.95408000  1
  H  H181  1  0.91484000  0.32217000  0.75332000  1
  H  H182  1  0.96258000  0.34736000  0.85535000  1
  H  H183  1  0.97030000  0.26632000  0.78355000  1
  C  C184  1  0.06846000  0.36854000  0.14274000  1
  C  C185  1  0.03362000  0.35407000  0.06347000  1
  C  C186  1  0.94271000  0.07131000  0.89030000  1
  C  C187  1  0.01672000  0.27837000  0.00210000  1
  C  C188  1  0.02191000  0.13750000  0.95390000  1
  C  C189  1  0.03682000  0.21639000  0.01837000  1
  C  C190  1  0.08408000  0.11219000  0.94409000  1
  C  C191  1  0.07144000  0.23124000  0.09794000  1
  C  C192  1  0.08526000  0.30541000  0.15901000  1
  C  C193  1  0.09078000  0.45141000  0.20989000  1
  C  C194  1  0.85544000  0.06357000  0.87378000  1
  C  C195  1  0.17870000  0.15679000  0.99124000  1
  C  C196  1  0.07578000  0.77507000  0.14311000  1
  C  C197  1  0.03128000  0.71035000  0.06396000  1
  C  C198  1  0.94794000  0.81909000  0.89040000  1
  C  C199  1  0.98625000  0.72447000  0.00261000  1
  C  C200  1  0.93243000  0.81675000  0.95426000  1
  C  C201  1  0.98212000  0.80257000  0.01886000  1
  C  C202  1  0.86015000  0.83171000  0.94415000  1
  C  C203  1  0.02708000  0.86723000  0.09836000  1
  C  C204  1  0.07479000  0.85423000  0.15934000  1
  C  C205  1  0.12131000  0.75928000  0.21003000  1
  C  C206  1  0.01859000  0.81074000  0.87346000  1
  C  C207  1  0.81263000  0.83465000  0.99136000  1
  C  C208  1  0.61928000  0.81958000  0.64393000  1
  C  C209  1  0.60550000  0.78471000  0.56484000  1
  C  C210  1  0.32263000  0.69259000  0.38988000  1
  C  C211  1  0.52970000  0.76746000  0.50315000  1
  C  C212  1  0.38820000  0.77170000  0.45391000  1
  C  C213  1  0.46696000  0.78702000  0.51897000  1
  C  C214  1  0.36276000  0.83324000  0.44326000  1
  C  C215  1  0.48102000  0.82144000  0.59833000  1
  C  C216  1  0.55540000  0.83580000  0.65974000  1
  C  C217  1  0.70218000  0.84225000  0.71140000  1
  C  C218  1  0.31476000  0.60575000  0.37357000  1
  C  C219  1  0.40619000  0.92755000  0.49057000  1
  C  C220  1  0.02573000  0.82502000  0.64339000  1
  C  C221  1  0.96042000  0.78093000  0.56437000  1
  C  C222  1  0.06967000  0.69821000  0.38957000  1
  C  C223  1  0.97437000  0.73631000  0.50255000  1
  C  C224  1  0.06692000  0.68270000  0.45326000  1
  C  C225  1  0.05270000  0.73222000  0.51807000  1
  C  C226  1  0.08232000  0.61094000  0.44327000  1
  C  C227  1  0.11794000  0.77702000  0.59733000  1
  C  C228  1  0.10519000  0.82427000  0.65884000  1
  C  C229  1  0.01059000  0.87005000  0.71117000  1
  C  C230  1  0.06090000  0.76842000  0.37274000  1
  C  C231  1  0.08489000  0.56353000  0.49030000  1
  C  C232  1  0.64522000  0.29160000  0.66214000  1
  C  C233  1  0.64842000  0.37098000  0.67216000  1
  C  C234  1  0.54859000  0.42004000  0.87445000  1
  C  C235  1  0.63692000  0.42031000  0.73342000  1
  C  C236  1  0.61356000  0.44464000  0.85294000  1
  C  C237  1  0.62287000  0.39179000  0.78671000  1
  C  C238  1  0.66752000  0.53057000  0.90829000  1
  C  C239  1  0.61756000  0.31116000  0.77499000  1
  C  C240  1  0.62778000  0.26132000  0.71303000  1
  C  C241  1  0.66316000  0.24053000  0.60010000  1
  C  C242  1  0.47256000  0.33683000  0.83605000  1
  C  C243  1  0.74933000  0.59009000  0.91968000  1
  C  C244  1  0.01796000  0.36992000  0.66218000  1
  C  C245  1  0.02556000  0.30090000  0.67259000  1
  C  C246  1  0.32621000  0.45507000  0.87506000  1
  C  C247  1  0.09830000  0.31373000  0.73442000  1
  C  C248  1  0.23994000  0.40947000  0.85403000  1
  C  C249  1  0.16459000  0.39585000  0.78763000  1
  C  C250  1  0.24127000  0.37831000  0.90909000  1
  C  C251  1  0.15729000  0.46431000  0.77552000  1
  C  C252  1  0.08513000  0.45139000  0.71314000  1
  C  C253  1  0.93844000  0.35873000  0.59975000  1
  C  C254  1  0.36331000  0.49967000  0.83615000  1
  C  C255  1  0.17088000  0.32988000  0.92039000  1
  C  C256  1  0.54161000  0.39434000  0.16237000  1
  C  C257  1  0.62161000  0.39789000  0.17277000  1
  C  C258  1  0.66993000  0.29782000  0.37386000  1
  C  C259  1  0.67073000  0.38647000  0.23408000  1
  C  C260  1  0.69446000  0.36310000  0.35311000  1
  C  C261  1  0.64154000  0.37236000  0.28702000  1
  C  C262  1  0.78074000  0.41677000  0.40830000  1
  C  C263  1  0.56045000  0.36686000  0.27500000  1
  C  C264  1  0.51069000  0.37675000  0.21287000  1
  C  C265  1  0.49044000  0.41192000  0.10032000  1
  C  C266  1  0.58631000  0.22213000  0.33530000  1
  C  C267  1  0.84028000  0.49870000  0.42027000  1
  C  C268  1  0.61975000  0.76732000  0.16194000  1
  C  C269  1  0.55043000  0.77466000  0.17255000  1
  C  C270  1  0.70477000  0.07507000  0.37362000  1
  C  C271  1  0.56287000  0.84725000  0.23408000  1
  C  C272  1  0.65889000  0.98932000  0.35294000  1
  C  C273  1  0.64510000  0.91386000  0.28674000  1
  C  C274  1  0.62825000  0.99128000  0.40858000  1
  C  C275  1  0.71389000  0.90689000  0.27443000  1
  C  C276  1  0.70129000  0.83483000  0.21235000  1
  C  C277  1  0.60899000  0.68763000  0.10023000  1
  C  C278  1  0.74948000  0.11166000  0.33450000  1
  C  C279  1  0.58006000  0.92153000  0.42045000  1
  C  C280  1  0.27746000  0.65182000  0.69720000  1
  C  C281  1  0.24424000  0.58702000  0.03865000  1
  C  C282  1  0.25007000  0.56423000  0.67028000  1
  C  C283  1  0.32734000  0.59849000  0.05337000  1
  C  C284  1  0.38622000  0.51725000  0.49868000  1
  C  C285  1  0.36676000  0.47834000  0.24079000  1
  C  C286  1  0.26006000  0.51587000  0.60741000  1
  C  C287  1  0.37565000  0.58367000  0.11229000  1
  C  C288  1  0.30969000  0.50165000  0.50482000  1
  C  C289  1  0.39419000  0.54526000  0.22274000  1
  C  C290  1  0.29843000  0.55370000  0.57008000  1
  C  C291  1  0.34258000  0.55801000  0.15869000  1
  C  C292  1  0.24816000  0.42382000  0.43780000  1
  C  C293  1  0.47998000  0.59795000  0.28085000  1
  C  C294  1  0.32635000  0.64172000  0.59768000  1
  C  C295  1  0.25866000  0.54568000  0.14281000  1
  C  C296  1  0.31562000  0.69014000  0.66020000  1
  C  C297  1  0.20990000  0.55957000  0.08339000  1
  C  C298  1  0.26424000  0.70273000  0.76350000  1
  C  C299  1  0.19299000  0.60553000  0.97763000  1
  C  C300  1  0.47238000  0.58978000  0.55408000  1
  C  C301  1  0.28363000  0.40171000  0.19770000  1
  C  C302  1  0.15508000  0.37561000  0.40844000  1
  C  C303  1  0.54478000  0.67764000  0.29432000  1
  C  C304  1  0.29570000  0.17050000  0.19712000  1
  C  C305  1  0.70226000  0.54393000  0.53845000  1
  C  C306  1  0.35651000  0.17035000  0.16996000  1
  C  C307  1  0.70608000  0.47614000  0.55340000  1
  C  C308  1  0.23235000  0.86366000  0.00005000  1
  C  C309  1  0.01408000  0.62548000  0.74158000  1
  C  C310  1  0.34226000  0.09736000  0.10767000  1
  C  C311  1  0.78000000  0.48713000  0.61254000  1
  C  C312  1  0.25380000  0.94575000  0.00581000  1
  C  C313  1  0.92890000  0.57951000  0.72336000  1
  C  C314  1  0.26701000  0.02212000  0.07102000  1
  C  C315  1  0.85178000  0.56652000  0.65907000  1
  C  C316  1  0.26456000  0.93997000  0.93850000  1
  C  C317  1  0.93453000  0.55224000  0.78172000  1
  C  C318  1  0.20656000  0.02233000  0.09912000  1
  C  C319  1  0.84763000  0.63401000  0.64304000  1
  C  C320  1  0.22050000  0.09570000  0.16114000  1
  C  C321  1  0.77421000  0.62293000  0.58332000  1
  C  C322  1  0.31072000  0.25010000  0.26275000  1
  C  C323  1  0.62267000  0.53370000  0.47686000  1
  C  C324  1  0.21511000  0.83344000  0.05574000  1
  C  C325  1  0.04753000  0.66506000  0.69810000  1
  C  C326  1  0.28307000  0.00277000  0.90837000  1
  C  C327  1  0.86827000  0.50050000  0.79504000  1
  C  C328  1  0.42041000  0.04718000  0.69809000  1
  C  C329  1  0.79407000  0.45203000  0.03890000  1
  C  C330  1  0.42010000  0.10732000  0.67053000  1
  C  C331  1  0.72582000  0.45570000  0.05372000  1
  C  C332  1  0.11214000  0.98085000  0.49917000  1
  C  C333  1  0.87434000  0.76221000  0.24123000  1
  C  C334  1  0.34705000  0.09233000  0.60758000  1
  C  C335  1  0.73685000  0.52936000  0.11290000  1
  C  C336  1  0.19481000  0.00298000  0.50523000  1
  C  C337  1  0.82904000  0.67742000  0.22340000  1
  C  C338  1  0.27169000  0.01711000  0.57083000  1
  C  C339  1  0.81649000  0.60081000  0.15929000  1
  C  C340  1  0.18877000  0.01279000  0.43752000  1
  C  C341  1  0.80097000  0.68271000  0.28133000  1
  C  C342  1  0.27213000  0.95739000  0.59940000  1
  C  C343  1  0.88437000  0.59684000  0.14327000  1
  C  C344  1  0.34560000  0.97198000  0.66195000  1
  C  C345  1  0.87336000  0.52360000  0.08364000  1
  C  C346  1  0.50044000  0.06266000  0.76380000  1
  C  C347  1  0.78406000  0.37265000  0.97769000  1
  C  C348  1  0.08182000  0.96408000  0.55503000  1
  C  C349  1  0.91394000  0.79555000  0.19764000  1
  C  C350  1  0.25222000  0.03215000  0.40790000  1
  C  C351  1  0.74944000  0.61639000  0.29459000  1
  C  C352  1  0.90117000  0.02521000  0.19575000  1
  C  C353  1  0.83510000  0.99320000  0.53804000  1
  C  C354  1  0.81341000  0.99893000  0.16905000  1
  C  C355  1  0.84761000  0.07622000  0.55296000  1
  C  C356  1  0.76853000  0.13815000  0.00067000  1
  C  C357  1  0.72886000  0.11773000  0.74208000  1
  C  C358  1  0.76577000  0.01075000  0.10742000  1
  C  C359  1  0.83399000  0.12534000  0.61259000  1
  C  C360  1  0.75272000  0.06169000  0.00626000  1
  C  C361  1  0.79584000  0.14494000  0.72362000  1
  C  C362  1  0.80456000  0.04966000  0.07093000  1
  C  C363  1  0.80850000  0.09310000  0.65951000  1
  C  C364  1  0.67458000  0.00059000  0.93912000  1
  C  C365  1  0.84850000  0.23057000  0.78141000  1
  C  C366  1  0.89289000  0.07665000  0.09842000  1
  C  C367  1  0.79570000  0.00949000  0.64382000  1
  C  C368  1  0.94060000  0.06424000  0.15988000  1
  C  C369  1  0.80833000  0.95995000  0.58365000  1
  C  C370  1  0.95108000  0.01057000  0.26126000  1
  C  C371  1  0.85193000  0.94088000  0.47592000  1
  C  C372  1  0.84152000  0.22381000  0.05642000  1
  C  C373  1  0.65183000  0.03500000  0.69932000  1
  C  C374  1  0.62594000  0.90774000  0.90880000  1
  C  C375  1  0.92823000  0.29498000  0.79436000  1
  N  N376  1  0.04214000  0.03546000  0.87852000  1
  N  N377  1  0.95622000  0.00972000  0.84486000  1
  N  N378  1  0.83629000  0.84220000  0.87814000  1
  N  N379  1  0.88862000  0.83453000  0.84451000  1
  N  N380  1  0.28667000  0.79099000  0.37672000  1
  N  N381  1  0.26130000  0.70552000  0.34333000  1
  N  N382  1  0.09344000  0.58732000  0.37747000  1
  N  N383  1  0.08573000  0.63935000  0.34384000  1
  N  N384  1  0.63421000  0.55368000  0.95767000  1
  N  N385  1  0.56236000  0.48761000  0.93811000  1
  N  N386  1  0.32382000  0.40377000  0.95791000  1
  N  N387  1  0.37599000  0.45020000  0.93813000  1
  N  N388  1  0.80418000  0.38294000  0.45685000  1
  N  N389  1  0.73796000  0.31109000  0.43693000  1
  N  N390  1  0.65415000  0.07365000  0.45733000  1
  N  N391  1  0.70054000  0.12519000  0.43706000  1
  N  N392  1  0.28755000  0.39700000  0.39573000  1
  N  N393  1  0.49879000  0.56325000  0.32963000  1
  N  N394  1  0.37142000  0.45243000  0.43227000  1
  N  N395  1  0.43119000  0.49088000  0.30641000  1
  N  N396  1  0.24973000  0.85895000  0.89677000  1
  N  N397  1  0.01821000  0.58286000  0.83078000  1
  N  N398  1  0.23106000  0.81214000  0.93369000  1
  N  N399  1  0.06741000  0.62732000  0.80748000  1
  N  N400  1  0.10710000  0.99661000  0.39521000  1
  N  N401  1  0.83050000  0.76601000  0.32987000  1
  N  N402  1  0.06007000  0.97821000  0.43225000  1
  N  N403  1  0.87499000  0.81511000  0.30658000  1
  N  N404  1  0.64784000  0.04015000  0.89754000  1
  N  N405  1  0.81386000  0.24956000  0.83047000  1
  N  N406  1  0.70354000  0.12371000  0.93444000  1
  N  N407  1  0.74151000  0.18210000  0.80770000  1
  O  O408  1  0.10365000  0.45608000  0.27714000  1
  O  O409  1  0.09733000  0.51364000  0.19269000  1
  O  O410  1  0.17579000  0.82182000  0.27706000  1
  O  O411  1  0.09811000  0.67998000  0.19287000  1
  O  O412  1  0.70622000  0.85470000  0.77840000  1
  O  O413  1  0.76505000  0.84938000  0.69462000  1
  O  O414  1  0.07346000  0.92463000  0.77803000  1
  O  O415  1  0.93113000  0.84628000  0.69485000  1
  O  O416  1  0.69889000  0.28182000  0.56982000  1
  O  O417  1  0.64439000  0.16370000  0.58275000  1
  O  O418  1  0.87320000  0.28652000  0.56896000  1
  O  O419  1  0.93920000  0.41823000  0.58247000  1
  O  O420  1  0.53264000  0.44896000  0.07135000  1
  O  O421  1  0.41277000  0.39157000  0.08171000  1
  O  O422  1  0.53693000  0.62231000  0.06979000  1
  O  O423  1  0.66908000  0.68845000  0.08335000  1
  O  O424  1  0.24572000  0.66528000  0.80373000  1
  O  O425  1  0.11625000  0.58834000  0.96211000  1
  O  O426  1  0.27035000  0.77571000  0.77475000  1
  O  O427  1  0.23328000  0.64030000  0.94613000  1
  O  O428  1  0.38827000  0.30903000  0.30224000  1
  O  O429  1  0.62446000  0.59397000  0.46034000  1
  O  O430  1  0.24846000  0.25473000  0.27396000  1
  O  O431  1  0.55619000  0.46243000  0.44585000  1
  O  O432  1  0.55919000  0.14007000  0.80330000  1
  O  O433  1  0.84531000  0.37369000  0.96237000  1
  O  O434  1  0.50574000  0.00082000  0.77492000  1
  O  O435  1  0.71183000  0.30703000  0.94573000  1
  O  O436  1  0.91213000  0.99025000  0.29997000  1
  O  O437  1  0.83363000  0.86427000  0.45992000  1
  O  O438  1  0.02481000  0.01756000  0.27328000  1
  O  O439  1  0.88664000  0.98044000  0.44393000  1
