# generated using pymatgen
data_SiH28C40(NO)4
_symmetry_space_group_name_H-M   'P 1'
_cell_length_a   26.27897500
_cell_length_b   26.27895000
_cell_length_c   35.55290000
_cell_angle_alpha   90.00000000
_cell_angle_beta   90.00000000
_cell_angle_gamma   119.99990559
_symmetry_Int_Tables_number   1
_chemical_formula_structural   SiH28C40(NO)4
_chemical_formula_sum   'Si9 H252 C360 N36 O36'
_cell_volume   21262.90048000
_cell_formula_units_Z   9
loop_
 _symmetry_equiv_pos_site_id
 _symmetry_equiv_pos_as_xyz
  1  'x, y, z'
loop_
 _atom_site_type_symbol
 _atom_site_label
 _atom_site_symmetry_multiplicity
 _atom_site_fract_x
 _atom_site_fract_y
 _atom_site_fract_z
 _atom_site_occupancy
  C  1  1  0.56151150  0.39653050  0.92157900  1
  C  2  1  0.51091950  0.40196650  0.92426500  1
  C  3  1  0.51000600  0.44341400  0.94853200  1
  C  4  1  0.55932500  0.47991800  0.97126200  1
  C  5  1  0.61127500  0.47688800  0.96645500  1
  C  6  1  0.61241000  0.43565100  0.94171800  1
  C  8  1  0.54749600  0.57145800  0.97147500  1
  C  9  1  0.59678650  0.60798050  0.94872600  1
  C  10  1  0.59591800  0.64957900  0.92458300  1
  C  11  1  0.54539900  0.65516400  0.92204100  1
  C  12  1  0.49454350  0.61609250  0.94223700  1
  C  13  1  0.49563900  0.57471400  0.96686400  1
  C  14  1  0.49672400  0.48841100  0.02971000  1
  C  15  1  0.61010300  0.56246000  0.02970100  1
  C  16  1  0.63559450  0.62382150  0.03588100  1
  C  17  1  0.68296700  0.65388000  0.06077900  1
  C  18  1  0.70624500  0.62339500  0.08012500  1
  C  19  1  0.67826000  0.56162700  0.07629400  1
  C  20  1  0.63041850  0.53151350  0.05185400  1
  C  21  1  0.47136150  0.42702050  0.03570600  1
  C  22  1  0.42423750  0.39675250  0.06074800  1
  C  23  1  0.40106400  0.42703400  0.08043700  1
  C  24  1  0.42885500  0.48881300  0.07672400  1
  C  25  1  0.47644200  0.51913500  0.05212100  1
  C  50  1  0.91738550  0.51824150  0.25533200  1
  C  51  1  0.97341950  0.56883050  0.25799500  1
  C  52  1  0.01590100  0.56964800  0.28210600  1
  C  53  1  0.00317050  0.52025950  0.30473700  1
  C  54  1  0.94816500  0.46832800  0.29996100  1
  C  55  1  0.90570800  0.46726400  0.27533600  1
  C  57  1  0.10665400  0.53231800  0.30470900  1
  C  58  1  0.09388750  0.48334850  0.28162800  1
  C  59  1  0.13620750  0.48469850  0.25712000  1
  C  60  1  0.19224800  0.53533000  0.25465900  1
  C  61  1  0.20412700  0.58579700  0.27534400  1
  C  62  1  0.16171300  0.58428100  0.30020600  1
  C  63  1  0.07433850  0.58262550  0.36318800  1
  C  64  1  0.03505700  0.46925700  0.36291800  1
  C  65  1  0.07068900  0.44342500  0.36878200  1
  C  66  1  0.05340800  0.39601500  0.39364900  1
  C  67  1  0.99987700  0.37299100  0.41324600  1
  C  68  1  0.96629900  0.40122900  0.40967300  1
  C  69  1  0.98398900  0.44909000  0.38525600  1
  C  70  1  0.03831150  0.60796050  0.36931400  1
  C  71  1  0.05529200  0.65513100  0.39433900  1
  C  72  1  0.10893400  0.67843200  0.41382500  1
  C  73  1  0.14290850  0.65065550  0.41001900  1
  C  74  1  0.12545600  0.60295000  0.38549000  1
  C  99  1  0.68302050  0.16304550  0.58801900  1
  C  100  1  0.67760550  0.10701150  0.59053900  1
  C  101  1  0.63615100  0.06449900  0.61473400  1
  C  102  1  0.59963950  0.07717450  0.63755900  1
  C  103  1  0.60269550  0.13220150  0.63294100  1
  C  104  1  0.64393100  0.17472000  0.60827900  1
  C  106  1  0.50836800  0.97344700  0.63760700  1
  C  107  1  0.47216700  0.98604800  0.61440500  1
  C  108  1  0.43114200  0.94351500  0.59002200  1
  C  109  1  0.42563800  0.88741100  0.58784500  1
  C  110  1  0.46423500  0.87568700  0.60863900  1
  C  111  1  0.50522100  0.91832600  0.63334600  1
  C  112  1  0.59095400  0.00593800  0.69601900  1
  C  113  1  0.51682400  0.04514300  0.69575700  1
  C  114  1  0.45531900  0.00960700  0.70151500  1
  C  115  1  0.42521450  0.02679550  0.72647200  1
  C  116  1  0.45578100  0.08015400  0.74624100  1
  C  117  1  0.51761050  0.11364550  0.74273950  1
  C  118  1  0.54775450  0.09602950  0.71825100  1
  C  119  1  0.65242850  0.04159450  0.70186700  1
  C  120  1  0.68254800  0.02449500  0.72686800  1
  C  121  1  0.65201300  0.97109900  0.74659800  1
  C  122  1  0.59019600  0.93753100  0.74306100  1
  C  123  1  0.56003300  0.95510000  0.71855200  1
  C  148  1  0.46459200  0.16527100  0.84054500  1
  C  149  1  0.48673800  0.20191300  0.87222200  1
  C  150  1  0.49744350  0.26005250  0.87081500  1
  C  151  1  0.48135300  0.27923200  0.83814500  1
  C  152  1  0.45802850  0.24209750  0.80683400  1
  C  153  1  0.45058700  0.18489800  0.80699800  1
  C  158  1  0.52142650  0.29762150  0.90215500  1
  C  159  1  0.43789200  0.15279900  0.77264400  1
  C  162  1  0.78301300  0.61516100  0.17440100  1
  C  163  1  0.79759500  0.59313600  0.20610100  1
  C  164  1  0.84503950  0.58246050  0.20468000  1
  C  165  1  0.88026750  0.59849450  0.17199400  1
  C  166  1  0.86637900  0.62171500  0.14066300  1
  C  167  1  0.81656950  0.62908050  0.14082600  1
  C  172  1  0.85864700  0.55849200  0.23600500  1
  C  173  1  0.79701400  0.64155700  0.10645200  1
  C  176  1  0.91446600  0.29714800  0.50730800  1
  C  177  1  0.87766650  0.28297750  0.53888100  1
  C  178  1  0.81959150  0.23542050  0.53753700  1
  C  179  1  0.80057700  0.19982700  0.50500200  1
  C  180  1  0.83783200  0.21338000  0.47377200  1
  C  181  1  0.89500400  0.26318900  0.47388200  1
  C  186  1  0.78189200  0.22214300  0.56877700  1
  C  187  1  0.92723200  0.28230400  0.43955300  1
  C  190  1  0.64355800  0.88638600  0.84094600  1
  C  191  1  0.62115400  0.84981600  0.87263600  1
  C  192  1  0.61010350  0.79155750  0.87130300  1
  C  193  1  0.62612050  0.77217450  0.83869300  1
  C  194  1  0.64962150  0.80920850  0.80735300  1
  C  195  1  0.65743500  0.86655700  0.80743500  1
  C  200  1  0.58580150  0.75402950  0.90263100  1
  C  201  1  0.67009700  0.89849400  0.77302100  1
  C  204  1  0.32648100  0.43804600  0.17444100  1
  C  205  1  0.31247000  0.46113000  0.20584700  1
  C  206  1  0.26443700  0.47091900  0.20454500  1
  C  207  1  0.22813900  0.45293800  0.17231100  1
  C  208  1  0.24151950  0.42874050  0.14127000  1
  C  209  1  0.29181950  0.42220950  0.14128200  1
  C  214  1  0.25151850  0.49618750  0.23550800  1
  C  215  1  0.31054900  0.40845800  0.10703400  1
  C  218  1  0.19415300  0.75356900  0.50783400  1
  C  219  1  0.23113200  0.76747500  0.53929500  1
  C  220  1  0.28898050  0.81547350  0.53806500  1
  C  221  1  0.30738750  0.85193250  0.50590800  1
  C  222  1  0.26992900  0.83865200  0.47481600  1
  C  223  1  0.21314450  0.78828350  0.47470300  1
  C  228  1  0.32718400  0.82799700  0.56897100  1
  C  229  1  0.18102500  0.76934600  0.44033500  1
  C  925  1  0.56151150  0.39653050  0.61218100  1
  C  926  1  0.51091950  0.40196650  0.61486700  1
  C  927  1  0.51000600  0.44341400  0.63913400  1
  C  928  1  0.55932500  0.47991800  0.66186400  1
  C  929  1  0.61127500  0.47688800  0.65705700  1
  C  930  1  0.61241000  0.43565100  0.63232000  1
  C  932  1  0.54749600  0.57145800  0.66207700  1
  C  933  1  0.59678650  0.60798050  0.63932800  1
  C  934  1  0.59591800  0.64957900  0.61518500  1
  C  935  1  0.54539900  0.65516400  0.61264300  1
  C  936  1  0.49454350  0.61609250  0.63283900  1
  C  937  1  0.49563900  0.57471400  0.65746600  1
  C  938  1  0.49672400  0.48841100  0.72031200  1
  C  939  1  0.61010300  0.56246000  0.72030300  1
  C  940  1  0.63559450  0.62382150  0.72648300  1
  C  941  1  0.68296700  0.65388000  0.75138100  1
  C  942  1  0.70624500  0.62339500  0.77072700  1
  C  943  1  0.67826000  0.56162700  0.76689600  1
  C  944  1  0.63041850  0.53151350  0.74245600  1
  C  945  1  0.47136150  0.42702050  0.72630800  1
  C  946  1  0.42423750  0.39675250  0.75135000  1
  C  947  1  0.40106400  0.42703400  0.77103900  1
  C  948  1  0.42885500  0.48881300  0.76732600  1
  C  949  1  0.47644200  0.51913500  0.74272300  1
  C  974  1  0.91738550  0.51824150  0.94593390  1
  C  975  1  0.97341950  0.56883050  0.94859690  1
  C  976  1  0.01590100  0.56964800  0.97270790  1
  C  977  1  0.00317050  0.52025950  0.99533889  1
  C  978  1  0.94816500  0.46832800  0.99056289  1
  C  979  1  0.90570800  0.46726400  0.96593790  1
  C  981  1  0.10665400  0.53231800  0.99531089  1
  C  982  1  0.09388750  0.48334850  0.97222990  1
  C  983  1  0.13620750  0.48469850  0.94772190  1
  C  984  1  0.19224800  0.53533000  0.94526090  1
  C  985  1  0.20412700  0.58579700  0.96594590  1
  C  986  1  0.16171300  0.58428100  0.99080789  1
  C  987  1  0.07433850  0.58262550  0.05379000  1
  C  988  1  0.03505700  0.46925700  0.05352000  1
  C  989  1  0.07068900  0.44342500  0.05938400  1
  C  990  1  0.05340800  0.39601500  0.08425100  1
  C  991  1  0.99987700  0.37299100  0.10384800  1
  C  992  1  0.96629900  0.40122900  0.10027500  1
  C  993  1  0.98398900  0.44909000  0.07585800  1
  C  994  1  0.03831150  0.60796050  0.05991600  1
  C  995  1  0.05529200  0.65513100  0.08494100  1
  C  996  1  0.10893400  0.67843200  0.10442700  1
  C  997  1  0.14290850  0.65065550  0.10062100  1
  C  998  1  0.12545600  0.60295000  0.07609200  1
  C  1023  1  0.68302050  0.16304550  0.27862100  1
  C  1024  1  0.67760550  0.10701150  0.28114100  1
  C  1025  1  0.63615100  0.06449900  0.30533600  1
  C  1026  1  0.59963950  0.07717450  0.32816100  1
  C  1027  1  0.60269550  0.13220150  0.32354300  1
  C  1028  1  0.64393100  0.17472000  0.29888100  1
  C  1030  1  0.50836800  0.97344700  0.32820900  1
  C  1031  1  0.47216700  0.98604800  0.30500700  1
  C  1032  1  0.43114200  0.94351500  0.28062400  1
  C  1033  1  0.42563800  0.88741100  0.27844700  1
  C  1034  1  0.46423500  0.87568700  0.29924100  1
  C  1035  1  0.50522100  0.91832600  0.32394800  1
  C  1036  1  0.59095400  0.00593800  0.38662100  1
  C  1037  1  0.51682400  0.04514300  0.38635900  1
  C  1038  1  0.45531900  0.00960700  0.39211700  1
  C  1039  1  0.42521450  0.02679550  0.41707400  1
  C  1040  1  0.45578100  0.08015400  0.43684300  1
  C  1041  1  0.51761050  0.11364550  0.43334150  1
  C  1042  1  0.54775450  0.09602950  0.40885300  1
  C  1043  1  0.65242850  0.04159450  0.39246900  1
  C  1044  1  0.68254800  0.02449500  0.41747000  1
  C  1045  1  0.65201300  0.97109900  0.43720000  1
  C  1046  1  0.59019600  0.93753100  0.43366300  1
  C  1047  1  0.56003300  0.95510000  0.40915400  1
  C  1072  1  0.46459200  0.16527100  0.53114700  1
  C  1073  1  0.48673800  0.20191300  0.56282400  1
  C  1074  1  0.49744350  0.26005250  0.56141700  1
  C  1075  1  0.48135300  0.27923200  0.52874700  1
  C  1076  1  0.45802850  0.24209750  0.49743600  1
  C  1077  1  0.45058700  0.18489800  0.49760000  1
  C  1082  1  0.52142650  0.29762150  0.59275700  1
  C  1083  1  0.43789200  0.15279900  0.46324600  1
  C  1086  1  0.78301300  0.61516100  0.86500300  1
  C  1087  1  0.79759500  0.59313600  0.89670300  1
  C  1088  1  0.84503950  0.58246050  0.89528200  1
  C  1089  1  0.88026750  0.59849450  0.86259600  1
  C  1090  1  0.86637900  0.62171500  0.83126500  1
  C  1091  1  0.81656950  0.62908050  0.83142800  1
  C  1096  1  0.85864700  0.55849200  0.92660690  1
  C  1097  1  0.79701400  0.64155700  0.79705400  1
  C  1100  1  0.91446600  0.29714800  0.19791000  1
  C  1101  1  0.87766650  0.28297750  0.22948300  1
  C  1102  1  0.81959150  0.23542050  0.22813900  1
  C  1103  1  0.80057700  0.19982700  0.19560400  1
  C  1104  1  0.83783200  0.21338000  0.16437400  1
  C  1105  1  0.89500400  0.26318900  0.16448400  1
  C  1110  1  0.78189200  0.22214300  0.25937900  1
  C  1111  1  0.92723200  0.28230400  0.13015500  1
  C  1114  1  0.64355800  0.88638600  0.53154800  1
  C  1115  1  0.62115400  0.84981600  0.56323800  1
  C  1116  1  0.61010350  0.79155750  0.56190500  1
  C  1117  1  0.62612050  0.77217450  0.52929500  1
  C  1118  1  0.64962150  0.80920850  0.49795500  1
  C  1119  1  0.65743500  0.86655700  0.49803700  1
  C  1124  1  0.58580150  0.75402950  0.59323300  1
  C  1125  1  0.67009700  0.89849400  0.46362300  1
  C  1128  1  0.32648100  0.43804600  0.86504300  1
  C  1129  1  0.31247000  0.46113000  0.89644900  1
  C  1130  1  0.26443700  0.47091900  0.89514700  1
  C  1131  1  0.22813900  0.45293800  0.86291300  1
  C  1132  1  0.24151950  0.42874050  0.83187200  1
  C  1133  1  0.29181950  0.42220950  0.83188400  1
  C  1138  1  0.25151850  0.49618750  0.92610990  1
  C  1139  1  0.31054900  0.40845800  0.79763600  1
  C  1142  1  0.19415300  0.75356900  0.19843600  1
  C  1143  1  0.23113200  0.76747500  0.22989700  1
  C  1144  1  0.28898050  0.81547350  0.22866700  1
  C  1145  1  0.30738750  0.85193250  0.19651000  1
  C  1146  1  0.26992900  0.83865200  0.16541800  1
  C  1147  1  0.21314450  0.78828350  0.16530500  1
  C  1152  1  0.32718400  0.82799700  0.25957300  1
  C  1153  1  0.18102500  0.76934600  0.13093700  1
  C  1849  1  0.56151150  0.39653050  0.30278300  1
  C  1850  1  0.51091950  0.40196650  0.30546900  1
  C  1851  1  0.51000600  0.44341400  0.32973600  1
  C  1852  1  0.55932500  0.47991800  0.35246600  1
  C  1853  1  0.61127500  0.47688800  0.34765900  1
  C  1854  1  0.61241000  0.43565100  0.32292200  1
  C  1856  1  0.54749600  0.57145800  0.35267900  1
  C  1857  1  0.59678650  0.60798050  0.32993000  1
  C  1858  1  0.59591800  0.64957900  0.30578700  1
  C  1859  1  0.54539900  0.65516400  0.30324500  1
  C  1860  1  0.49454350  0.61609250  0.32344100  1
  C  1861  1  0.49563900  0.57471400  0.34806800  1
  C  1862  1  0.49672400  0.48841100  0.41091400  1
  C  1863  1  0.61010300  0.56246000  0.41090500  1
  C  1864  1  0.63559450  0.62382150  0.41708500  1
  C  1865  1  0.68296700  0.65388000  0.44198300  1
  C  1866  1  0.70624500  0.62339500  0.46132900  1
  C  1867  1  0.67826000  0.56162700  0.45749800  1
  C  1868  1  0.63041850  0.53151350  0.43305800  1
  C  1869  1  0.47136150  0.42702050  0.41691000  1
  C  1870  1  0.42423750  0.39675250  0.44195200  1
  C  1871  1  0.40106400  0.42703400  0.46164100  1
  C  1872  1  0.42885500  0.48881300  0.45792800  1
  C  1873  1  0.47644200  0.51913500  0.43332500  1
  C  1898  1  0.91738550  0.51824150  0.63653600  1
  C  1899  1  0.97341950  0.56883050  0.63919900  1
  C  1900  1  0.01590100  0.56964800  0.66331000  1
  C  1901  1  0.00317050  0.52025950  0.68594100  1
  C  1902  1  0.94816500  0.46832800  0.68116500  1
  C  1903  1  0.90570800  0.46726400  0.65654000  1
  C  1905  1  0.10665400  0.53231800  0.68591300  1
  C  1906  1  0.09388750  0.48334850  0.66283200  1
  C  1907  1  0.13620750  0.48469850  0.63832400  1
  C  1908  1  0.19224800  0.53533000  0.63586300  1
  C  1909  1  0.20412700  0.58579700  0.65654800  1
  C  1910  1  0.16171300  0.58428100  0.68141000  1
  C  1911  1  0.07433850  0.58262550  0.74439200  1
  C  1912  1  0.03505700  0.46925700  0.74412200  1
  C  1913  1  0.07068900  0.44342500  0.74998600  1
  C  1914  1  0.05340800  0.39601500  0.77485300  1
  C  1915  1  0.99987700  0.37299100  0.79445000  1
  C  1916  1  0.96629900  0.40122900  0.79087700  1
  C  1917  1  0.98398900  0.44909000  0.76646000  1
  C  1918  1  0.03831150  0.60796050  0.75051800  1
  C  1919  1  0.05529200  0.65513100  0.77554300  1
  C  1920  1  0.10893400  0.67843200  0.79502900  1
  C  1921  1  0.14290850  0.65065550  0.79122300  1
  C  1922  1  0.12545600  0.60295000  0.76669400  1
  C  1947  1  0.68302050  0.16304550  0.96922280  1
  C  1948  1  0.67760550  0.10701150  0.97174280  1
  C  1949  1  0.63615100  0.06449900  0.99593778  1
  C  1950  1  0.59963950  0.07717450  0.01876300  1
  C  1951  1  0.60269550  0.13220150  0.01414500  1
  C  1952  1  0.64393100  0.17472000  0.98948280  1
  C  1954  1  0.50836800  0.97344700  0.01881100  1
  C  1955  1  0.47216700  0.98604800  0.99560878  1
  C  1956  1  0.43114200  0.94351500  0.97122580  1
  C  1957  1  0.42563800  0.88741100  0.96904880  1
  C  1958  1  0.46423500  0.87568700  0.98984280  1
  C  1959  1  0.50522100  0.91832600  0.01455000  1
  C  1960  1  0.59095400  0.00593800  0.07722300  1
  C  1961  1  0.51682400  0.04514300  0.07696100  1
  C  1962  1  0.45531900  0.00960700  0.08271900  1
  C  1963  1  0.42521450  0.02679550  0.10767600  1
  C  1964  1  0.45578100  0.08015400  0.12744500  1
  C  1965  1  0.51761050  0.11364550  0.12394350  1
  C  1966  1  0.54775450  0.09602950  0.09945500  1
  C  1967  1  0.65242850  0.04159450  0.08307100  1
  C  1968  1  0.68254800  0.02449500  0.10807200  1
  C  1969  1  0.65201300  0.97109900  0.12780200  1
  C  1970  1  0.59019600  0.93753100  0.12426500  1
  C  1971  1  0.56003300  0.95510000  0.09975600  1
  C  1996  1  0.46459200  0.16527100  0.22174900  1
  C  1997  1  0.48673800  0.20191300  0.25342600  1
  C  1998  1  0.49744350  0.26005250  0.25201900  1
  C  1999  1  0.48135300  0.27923200  0.21934900  1
  C  2000  1  0.45802850  0.24209750  0.18803800  1
  C  2001  1  0.45058700  0.18489800  0.18820200  1
  C  2006  1  0.52142650  0.29762150  0.28335900  1
  C  2007  1  0.43789200  0.15279900  0.15384800  1
  C  2010  1  0.78301300  0.61516100  0.55560500  1
  C  2011  1  0.79759500  0.59313600  0.58730500  1
  C  2012  1  0.84503950  0.58246050  0.58588400  1
  C  2013  1  0.88026750  0.59849450  0.55319800  1
  C  2014  1  0.86637900  0.62171500  0.52186700  1
  C  2015  1  0.81656950  0.62908050  0.52203000  1
  C  2020  1  0.85864700  0.55849200  0.61720900  1
  C  2021  1  0.79701400  0.64155700  0.48765600  1
  C  2024  1  0.91446600  0.29714800  0.88851200  1
  C  2025  1  0.87766650  0.28297750  0.92008480  1
  C  2026  1  0.81959150  0.23542050  0.91874080  1
  C  2027  1  0.80057700  0.19982700  0.88620600  1
  C  2028  1  0.83783200  0.21338000  0.85497600  1
  C  2029  1  0.89500400  0.26318900  0.85508600  1
  C  2034  1  0.78189200  0.22214300  0.94998080  1
  C  2035  1  0.92723200  0.28230400  0.82075700  1
  C  2038  1  0.64355800  0.88638600  0.22215000  1
  C  2039  1  0.62115400  0.84981600  0.25384000  1
  C  2040  1  0.61010350  0.79155750  0.25250700  1
  C  2041  1  0.62612050  0.77217450  0.21989700  1
  C  2042  1  0.64962150  0.80920850  0.18855700  1
  C  2043  1  0.65743500  0.86655700  0.18863900  1
  C  2048  1  0.58580150  0.75402950  0.28383500  1
  C  2049  1  0.67009700  0.89849400  0.15422500  1
  C  2052  1  0.32648100  0.43804600  0.55564500  1
  C  2053  1  0.31247000  0.46113000  0.58705100  1
  C  2054  1  0.26443700  0.47091900  0.58574900  1
  C  2055  1  0.22813900  0.45293800  0.55351500  1
  C  2056  1  0.24151950  0.42874050  0.52247400  1
  C  2057  1  0.29181950  0.42220950  0.52248600  1
  C  2062  1  0.25151850  0.49618750  0.61671200  1
  C  2063  1  0.31054900  0.40845800  0.48823800  1
  C  2066  1  0.19415300  0.75356900  0.88903800  1
  C  2067  1  0.23113200  0.76747500  0.92049880  1
  C  2068  1  0.28898050  0.81547350  0.91926880  1
  C  2069  1  0.30738750  0.85193250  0.88711200  1
  C  2070  1  0.26992900  0.83865200  0.85602000  1
  C  2071  1  0.21314450  0.78828350  0.85590700  1
  C  2076  1  0.32718400  0.82799700  0.95017480  1
  C  2077  1  0.18102500  0.76934600  0.82153900  1
  H  26  1  0.70091700  0.69823500  0.06436800  1
  H  27  1  0.61992200  0.64787400  0.02283600  1
  H  28  1  0.69214050  0.53797550  0.09173000  1
  H  29  1  0.61147050  0.48674550  0.05011900  1
  H  30  1  0.48703850  0.40310750  0.02247800  1
  H  31  1  0.40642550  0.35238850  0.06422200  1
  H  32  1  0.41501650  0.51230650  0.09236900  1
  H  33  1  0.49530750  0.56390450  0.05051300  1
  H  34  1  0.45793150  0.54714950  0.98105200  1
  H  35  1  0.45703550  0.61854350  0.93975600  1
  H  36  1  0.63259750  0.67618650  0.90907100  1
  H  37  1  0.63489200  0.60630300  0.95014500  1
  H  38  1  0.64902150  0.50449050  0.98059700  1
  H  39  1  0.47184900  0.44498000  0.95006700  1
  H  40  1  0.47419600  0.37530300  0.90880500  1
  H  41  1  0.64998950  0.43335950  0.93909700  1
  H  43  1  0.74356800  0.67013900  0.12629600  1
  H  45  1  0.36571900  0.38209800  0.12719800  1
  H  47  1  0.52742300  0.68133700  0.87409800  1
  H  49  1  0.57999950  0.37025450  0.87371100  1
  H  75  1  0.07965150  0.37783850  0.39702800  1
  H  76  1  0.11024600  0.45890800  0.35554300  1
  H  77  1  0.92891450  0.38747550  0.42524700  1
  H  78  1  0.95831200  0.46821200  0.38370900  1
  H  79  1  0.99865100  0.59225400  0.35617600  1
  H  80  1  0.02875800  0.67294300  0.39789400  1
  H  81  1  0.18036850  0.66457950  0.42554000  1
  H  82  1  0.15137550  0.58410850  0.38379900  1
  H  83  1  0.17186000  0.62181300  0.31460900  1
  H  84  1  0.24402850  0.62339250  0.27292350  1
  H  85  1  0.12614150  0.44827350  0.24133000  1
  H  86  1  0.05414250  0.44518950  0.28296600  1
  H  87  1  0.93807200  0.43054300  0.31403800  1
  H  88  1  0.05559900  0.60782800  0.28366700  1
  H  89  1  0.98341600  0.60560900  0.24261800  1
  H  90  1  0.86582100  0.42969700  0.27274200  1
  H  92  1  0.00915800  0.33577900  0.45949500  1
  H  94  1  0.09916350  0.71515850  0.46015300  1
  H  96  1  0.23407650  0.55134850  0.20590100  1
  H  98  1  0.87231500  0.49965000  0.20758600  1
  H  124  1  0.38076900  0.00062900  0.72977300  1
  H  125  1  0.43120350  0.97016450  0.68816000  1
  H  126  1  0.54126600  0.15089700  0.75842850  1
  H  127  1  0.59256950  0.12162650  0.71677400  1
  H  128  1  0.67652850  0.08104250  0.68851500  1
  H  129  1  0.72698200  0.05070500  0.73019200  1
  H  130  1  0.56656150  0.90025250  0.75873000  1
  H  131  1  0.51522900  0.92943700  0.71702700  1
  H  132  1  0.53258500  0.90826200  0.64784800  1
  H  133  1  0.46186950  0.83573550  0.60642000  1
  H  134  1  0.40475950  0.95345050  0.57415500  1
  H  135  1  0.47377300  0.02581200  0.61558400  1
  H  136  1  0.57511900  0.14228200  0.64717100  1
  H  137  1  0.63464250  0.02479750  0.61618800  1
  H  138  1  0.70429150  0.09706050  0.57501600  1
  H  139  1  0.64624500  0.21461800  0.60580100  1
  H  141  1  0.40946300  0.07082800  0.79256500  1
  H  143  1  0.69880500  0.98066400  0.79273100  1
  H  145  1  0.39982650  0.84565350  0.53922100  1
  H  147  1  0.70913050  0.20711350  0.54003700  1
  H  154  1  0.48673700  0.32055400  0.83668600  1
  H  155  1  0.49826150  0.18695850  0.89548100  1
  H  156  1  0.46228500  0.12535600  0.84195000  1
  H  157  1  0.44863800  0.25838900  0.78333000  1
  H  168  1  0.91619650  0.59309150  0.17052500  1
  H  169  1  0.77114450  0.58163950  0.22937300  1
  H  170  1  0.74537850  0.61741950  0.17579600  1
  H  171  1  0.89200000  0.63103000  0.11713700  1
  H  182  1  0.75929350  0.16381850  0.50358200  1
  H  183  1  0.89256250  0.30961450  0.56207200  1
  H  184  1  0.95436400  0.33478600  0.50865000  1
  H  185  1  0.82165900  0.18746600  0.45035400  1
  H  196  1  0.62050800  0.73075900  0.83728600  1
  H  197  1  0.60975800  0.86496900  0.89585500  1
  H  198  1  0.64612000  0.92642100  0.84230300  1
  H  199  1  0.65895400  0.79277600  0.78389300  1
  H  210  1  0.19177500  0.45761800  0.17095000  1
  H  211  1  0.33975050  0.47406950  0.22875100  1
  H  212  1  0.36450100  0.43649000  0.17567800  1
  H  213  1  0.21508750  0.41801750  0.11804300  1
  H  224  1  0.34847750  0.88823450  0.50458800  1
  H  225  1  0.21674700  0.74006200  0.56213400  1
  H  226  1  0.15459200  0.71550200  0.50895100  1
  H  227  1  0.28574750  0.86507250  0.45158900  1
  H  950  1  0.70091700  0.69823500  0.75497000  1
  H  951  1  0.61992200  0.64787400  0.71343800  1
  H  952  1  0.69214050  0.53797550  0.78233200  1
  H  953  1  0.61147050  0.48674550  0.74072100  1
  H  954  1  0.48703850  0.40310750  0.71308000  1
  H  955  1  0.40642550  0.35238850  0.75482400  1
  H  956  1  0.41501650  0.51230650  0.78297100  1
  H  957  1  0.49530750  0.56390450  0.74111500  1
  H  958  1  0.45793150  0.54714950  0.67165400  1
  H  959  1  0.45703550  0.61854350  0.63035800  1
  H  960  1  0.63259750  0.67618650  0.59967300  1
  H  961  1  0.63489200  0.60630300  0.64074700  1
  H  962  1  0.64902150  0.50449050  0.67119900  1
  H  963  1  0.47184900  0.44498000  0.64066900  1
  H  964  1  0.47419600  0.37530300  0.59940700  1
  H  965  1  0.64998950  0.43335950  0.62969900  1
  H  967  1  0.74356800  0.67013900  0.81689800  1
  H  969  1  0.36571900  0.38209800  0.81780000  1
  H  971  1  0.52742300  0.68133700  0.56470000  1
  H  973  1  0.57999950  0.37025450  0.56431300  1
  H  999  1  0.07965150  0.37783850  0.08763000  1
  H  1000  1  0.11024600  0.45890800  0.04614500  1
  H  1001  1  0.92891450  0.38747550  0.11584900  1
  H  1002  1  0.95831200  0.46821200  0.07431100  1
  H  1003  1  0.99865100  0.59225400  0.04677800  1
  H  1004  1  0.02875800  0.67294300  0.08849600  1
  H  1005  1  0.18036850  0.66457950  0.11614200  1
  H  1006  1  0.15137550  0.58410850  0.07440100  1
  H  1007  1  0.17186000  0.62181300  0.00521100  1
  H  1008  1  0.24402850  0.62339250  0.96352540  1
  H  1009  1  0.12614150  0.44827350  0.93193190  1
  H  1010  1  0.05414250  0.44518950  0.97356790  1
  H  1011  1  0.93807200  0.43054300  0.00464000  1
  H  1012  1  0.05559900  0.60782800  0.97426890  1
  H  1013  1  0.98341600  0.60560900  0.93321990  1
  H  1014  1  0.86582100  0.42969700  0.96334390  1
  H  1016  1  0.00915800  0.33577900  0.15009700  1
  H  1018  1  0.09916350  0.71515850  0.15075500  1
  H  1020  1  0.23407650  0.55134850  0.89650300  1
  H  1022  1  0.87231500  0.49965000  0.89818800  1
  H  1048  1  0.38076900  0.00062900  0.42037500  1
  H  1049  1  0.43120350  0.97016450  0.37876200  1
  H  1050  1  0.54126600  0.15089700  0.44903050  1
  H  1051  1  0.59256950  0.12162650  0.40737600  1
  H  1052  1  0.67652850  0.08104250  0.37911700  1
  H  1053  1  0.72698200  0.05070500  0.42079400  1
  H  1054  1  0.56656150  0.90025250  0.44933200  1
  H  1055  1  0.51522900  0.92943700  0.40762900  1
  H  1056  1  0.53258500  0.90826200  0.33845000  1
  H  1057  1  0.46186950  0.83573550  0.29702200  1
  H  1058  1  0.40475950  0.95345050  0.26475700  1
  H  1059  1  0.47377300  0.02581200  0.30618600  1
  H  1060  1  0.57511900  0.14228200  0.33777300  1
  H  1061  1  0.63464250  0.02479750  0.30679000  1
  H  1062  1  0.70429150  0.09706050  0.26561800  1
  H  1063  1  0.64624500  0.21461800  0.29640300  1
  H  1065  1  0.40946300  0.07082800  0.48316700  1
  H  1067  1  0.69880500  0.98066400  0.48333300  1
  H  1069  1  0.39982650  0.84565350  0.22982300  1
  H  1071  1  0.70913050  0.20711350  0.23063900  1
  H  1078  1  0.48673700  0.32055400  0.52728800  1
  H  1079  1  0.49826150  0.18695850  0.58608300  1
  H  1080  1  0.46228500  0.12535600  0.53255200  1
  H  1081  1  0.44863800  0.25838900  0.47393200  1
  H  1092  1  0.91619650  0.59309150  0.86112700  1
  H  1093  1  0.77114450  0.58163950  0.91997490  1
  H  1094  1  0.74537850  0.61741950  0.86639800  1
  H  1095  1  0.89200000  0.63103000  0.80773900  1
  H  1106  1  0.75929350  0.16381850  0.19418400  1
  H  1107  1  0.89256250  0.30961450  0.25267400  1
  H  1108  1  0.95436400  0.33478600  0.19925200  1
  H  1109  1  0.82165900  0.18746600  0.14095600  1
  H  1120  1  0.62050800  0.73075900  0.52788800  1
  H  1121  1  0.60975800  0.86496900  0.58645700  1
  H  1122  1  0.64612000  0.92642100  0.53290500  1
  H  1123  1  0.65895400  0.79277600  0.47449500  1
  H  1134  1  0.19177500  0.45761800  0.86155200  1
  H  1135  1  0.33975050  0.47406950  0.91935290  1
  H  1136  1  0.36450100  0.43649000  0.86628000  1
  H  1137  1  0.21508750  0.41801750  0.80864500  1
  H  1148  1  0.34847750  0.88823450  0.19519000  1
  H  1149  1  0.21674700  0.74006200  0.25273600  1
  H  1150  1  0.15459200  0.71550200  0.19955300  1
  H  1151  1  0.28574750  0.86507250  0.14219100  1
  H  1874  1  0.70091700  0.69823500  0.44557200  1
  H  1875  1  0.61992200  0.64787400  0.40404000  1
  H  1876  1  0.69214050  0.53797550  0.47293400  1
  H  1877  1  0.61147050  0.48674550  0.43132300  1
  H  1878  1  0.48703850  0.40310750  0.40368200  1
  H  1879  1  0.40642550  0.35238850  0.44542600  1
  H  1880  1  0.41501650  0.51230650  0.47357300  1
  H  1881  1  0.49530750  0.56390450  0.43171700  1
  H  1882  1  0.45793150  0.54714950  0.36225600  1
  H  1883  1  0.45703550  0.61854350  0.32096000  1
  H  1884  1  0.63259750  0.67618650  0.29027500  1
  H  1885  1  0.63489200  0.60630300  0.33134900  1
  H  1886  1  0.64902150  0.50449050  0.36180100  1
  H  1887  1  0.47184900  0.44498000  0.33127100  1
  H  1888  1  0.47419600  0.37530300  0.29000900  1
  H  1889  1  0.64998950  0.43335950  0.32030100  1
  H  1891  1  0.74356800  0.67013900  0.50750000  1
  H  1893  1  0.36571900  0.38209800  0.50840200  1
  H  1895  1  0.52742300  0.68133700  0.25530200  1
  H  1897  1  0.57999950  0.37025450  0.25491500  1
  H  1923  1  0.07965150  0.37783850  0.77823200  1
  H  1924  1  0.11024600  0.45890800  0.73674700  1
  H  1925  1  0.92891450  0.38747550  0.80645100  1
  H  1926  1  0.95831200  0.46821200  0.76491300  1
  H  1927  1  0.99865100  0.59225400  0.73738000  1
  H  1928  1  0.02875800  0.67294300  0.77909800  1
  H  1929  1  0.18036850  0.66457950  0.80674400  1
  H  1930  1  0.15137550  0.58410850  0.76500300  1
  H  1931  1  0.17186000  0.62181300  0.69581300  1
  H  1932  1  0.24402850  0.62339250  0.65412750  1
  H  1933  1  0.12614150  0.44827350  0.62253400  1
  H  1934  1  0.05414250  0.44518950  0.66417000  1
  H  1935  1  0.93807200  0.43054300  0.69524200  1
  H  1936  1  0.05559900  0.60782800  0.66487100  1
  H  1937  1  0.98341600  0.60560900  0.62382200  1
  H  1938  1  0.86582100  0.42969700  0.65394600  1
  H  1940  1  0.00915800  0.33577900  0.84069900  1
  H  1942  1  0.09916350  0.71515850  0.84135700  1
  H  1944  1  0.23407650  0.55134850  0.58710500  1
  H  1946  1  0.87231500  0.49965000  0.58879000  1
  H  1972  1  0.38076900  0.00062900  0.11097700  1
  H  1973  1  0.43120350  0.97016450  0.06936400  1
  H  1974  1  0.54126600  0.15089700  0.13963250  1
  H  1975  1  0.59256950  0.12162650  0.09797800  1
  H  1976  1  0.67652850  0.08104250  0.06971900  1
  H  1977  1  0.72698200  0.05070500  0.11139600  1
  H  1978  1  0.56656150  0.90025250  0.13993400  1
  H  1979  1  0.51522900  0.92943700  0.09823100  1
  H  1980  1  0.53258500  0.90826200  0.02905200  1
  H  1981  1  0.46186950  0.83573550  0.98762380  1
  H  1982  1  0.40475950  0.95345050  0.95535880  1
  H  1983  1  0.47377300  0.02581200  0.99678778  1
  H  1984  1  0.57511900  0.14228200  0.02837500  1
  H  1985  1  0.63464250  0.02479750  0.99739178  1
  H  1986  1  0.70429150  0.09706050  0.95621980  1
  H  1987  1  0.64624500  0.21461800  0.98700480  1
  H  1989  1  0.40946300  0.07082800  0.17376900  1
  H  1991  1  0.69880500  0.98066400  0.17393500  1
  H  1993  1  0.39982650  0.84565350  0.92042480  1
  H  1995  1  0.70913050  0.20711350  0.92124080  1
  H  2002  1  0.48673700  0.32055400  0.21789000  1
  H  2003  1  0.49826150  0.18695850  0.27668500  1
  H  2004  1  0.46228500  0.12535600  0.22315400  1
  H  2005  1  0.44863800  0.25838900  0.16453400  1
  H  2016  1  0.91619650  0.59309150  0.55172900  1
  H  2017  1  0.77114450  0.58163950  0.61057700  1
  H  2018  1  0.74537850  0.61741950  0.55700000  1
  H  2019  1  0.89200000  0.63103000  0.49834100  1
  H  2030  1  0.75929350  0.16381850  0.88478600  1
  H  2031  1  0.89256250  0.30961450  0.94327580  1
  H  2032  1  0.95436400  0.33478600  0.88985400  1
  H  2033  1  0.82165900  0.18746600  0.83155800  1
  H  2044  1  0.62050800  0.73075900  0.21849000  1
  H  2045  1  0.60975800  0.86496900  0.27705900  1
  H  2046  1  0.64612000  0.92642100  0.22350700  1
  H  2047  1  0.65895400  0.79277600  0.16509700  1
  H  2058  1  0.19177500  0.45761800  0.55215400  1
  H  2059  1  0.33975050  0.47406950  0.60995500  1
  H  2060  1  0.36450100  0.43649000  0.55688200  1
  H  2061  1  0.21508750  0.41801750  0.49924700  1
  H  2072  1  0.34847750  0.88823450  0.88579200  1
  H  2073  1  0.21674700  0.74006200  0.94333780  1
  H  2074  1  0.15459200  0.71550200  0.89015500  1
  H  2075  1  0.28574750  0.86507250  0.83279300  1
  N  42  1  0.75163000  0.65250900  0.10469400  1
  N  44  1  0.35597750  0.39758050  0.10519700  1
  N  46  1  0.54566750  0.69597050  0.89859200  1
  N  48  1  0.56121250  0.35577850  0.89808800  1
  N  91  1  0.98363100  0.32757500  0.43778900  1
  N  93  1  0.12490650  0.72360350  0.43851800  1
  N  95  1  0.23277250  0.53563050  0.23093700  1
  N  97  1  0.87685600  0.51858100  0.23193500  1
  N  140  1  0.42665500  0.09635400  0.77084500  1
  N  142  1  0.68112200  0.95485000  0.77117700  1
  N  144  1  0.38530700  0.84659600  0.56428500  1
  N  146  1  0.72374100  0.20366000  0.56457800  1
  N  966  1  0.75163000  0.65250900  0.79529600  1
  N  968  1  0.35597750  0.39758050  0.79579900  1
  N  970  1  0.54566750  0.69597050  0.58919400  1
  N  972  1  0.56121250  0.35577850  0.58869000  1
  N  1015  1  0.98363100  0.32757500  0.12839100  1
  N  1017  1  0.12490650  0.72360350  0.12912000  1
  N  1019  1  0.23277250  0.53563050  0.92153890  1
  N  1021  1  0.87685600  0.51858100  0.92253690  1
  N  1064  1  0.42665500  0.09635400  0.46144700  1
  N  1066  1  0.68112200  0.95485000  0.46177900  1
  N  1068  1  0.38530700  0.84659600  0.25488700  1
  N  1070  1  0.72374100  0.20366000  0.25518000  1
  N  1890  1  0.75163000  0.65250900  0.48589800  1
  N  1892  1  0.35597750  0.39758050  0.48640100  1
  N  1894  1  0.54566750  0.69597050  0.27979600  1
  N  1896  1  0.56121250  0.35577850  0.27929200  1
  N  1939  1  0.98363100  0.32757500  0.81899300  1
  N  1941  1  0.12490650  0.72360350  0.81972200  1
  N  1943  1  0.23277250  0.53563050  0.61214100  1
  N  1945  1  0.87685600  0.51858100  0.61313900  1
  N  1988  1  0.42665500  0.09635400  0.15204900  1
  N  1990  1  0.68112200  0.95485000  0.15238100  1
  N  1992  1  0.38530700  0.84659600  0.94548880  1
  N  1994  1  0.72374100  0.20366000  0.94578180  1
  O  160  1  0.45380550  0.18411850  0.74016500  1
  O  161  1  0.49578350  0.27616250  0.93596200  1
  O  174  1  0.81203750  0.62490450  0.07411700  1
  O  175  1  0.86311700  0.58431000  0.26978600  1
  O  188  1  0.89567300  0.26717500  0.40716700  1
  O  189  1  0.80327850  0.21860250  0.60276300  1
  O  202  1  0.65386300  0.86700100  0.74061350  1
  O  203  1  0.61057050  0.77550950  0.93663900  1
  O  216  1  0.29400050  0.42279150  0.07439500  1
  O  217  1  0.25078250  0.47397650  0.27003900  1
  O  230  1  0.21274300  0.78482200  0.40801400  1
  O  231  1  0.30588050  0.82897150  0.60352000  1
  O  1084  1  0.45380550  0.18411850  0.43076700  1
  O  1085  1  0.49578350  0.27616250  0.62656400  1
  O  1098  1  0.81203750  0.62490450  0.76471900  1
  O  1099  1  0.86311700  0.58431000  0.96038790  1
  O  1112  1  0.89567300  0.26717500  0.09776900  1
  O  1113  1  0.80327850  0.21860250  0.29336500  1
  O  1126  1  0.65386300  0.86700100  0.43121550  1
  O  1127  1  0.61057050  0.77550950  0.62724100  1
  O  1140  1  0.29400050  0.42279150  0.76499700  1
  O  1141  1  0.25078250  0.47397650  0.96064090  1
  O  1154  1  0.21274300  0.78482200  0.09861600  1
  O  1155  1  0.30588050  0.82897150  0.29412200  1
  O  2008  1  0.45380550  0.18411850  0.12136900  1
  O  2009  1  0.49578350  0.27616250  0.31716600  1
  O  2022  1  0.81203750  0.62490450  0.45532100  1
  O  2023  1  0.86311700  0.58431000  0.65099000  1
  O  2036  1  0.89567300  0.26717500  0.78837100  1
  O  2037  1  0.80327850  0.21860250  0.98396680  1
  O  2050  1  0.65386300  0.86700100  0.12181750  1
  O  2051  1  0.61057050  0.77550950  0.31784300  1
  O  2064  1  0.29400050  0.42279150  0.45559900  1
  O  2065  1  0.25078250  0.47397650  0.65124300  1
  O  2078  1  0.21274300  0.78482200  0.78921800  1
  O  2079  1  0.30588050  0.82897150  0.98472380  1
  Si  7  1  0.55338550  0.52555950  0.00089400  1
  Si  56  1  0.05485150  0.52611250  0.33424500  1
  Si  105  1  0.55392500  0.02541200  0.66707000  1
  Si  931  1  0.55338550  0.52555950  0.69149600  1
  Si  980  1  0.05485150  0.52611250  0.02484700  1
  Si  1029  1  0.55392500  0.02541200  0.35767200  1
  Si  1855  1  0.55338550  0.52555950  0.38209800  1
  Si  1904  1  0.05485150  0.52611250  0.71544900  1
  Si  1953  1  0.55392500  0.02541200  0.04827400  1
