# generated using pymatgen
data_Mn3H24C38(N3O2)4
_symmetry_space_group_name_H-M   'P 1'
_cell_length_a   11.72883000
_cell_length_b   11.76714000
_cell_length_c   11.89647000
_cell_angle_alpha   65.30313000
_cell_angle_beta   80.11565000
_cell_angle_gamma   72.31253000
_symmetry_Int_Tables_number   1
_chemical_formula_structural   Mn3H24C38(N3O2)4
_chemical_formula_sum   'Mn3 H24 C38 N12 O8'
_cell_volume   1419.29305069
_cell_formula_units_Z   1
loop_
 _symmetry_equiv_pos_site_id
 _symmetry_equiv_pos_as_xyz
  1  'x, y, z'
loop_
 _atom_site_type_symbol
 _atom_site_label
 _atom_site_symmetry_multiplicity
 _atom_site_fract_x
 _atom_site_fract_y
 _atom_site_fract_z
 _atom_site_occupancy
  Mn  Mn1  1  0.99918000  0.00135000  0.99988000  1.0
  Mn  Mn2  1  0.00014000  0.49962000  0.50055000  1.0
  Mn  Mn3  1  0.99988000  0.99955000  0.50039000  1.0
  H  H1  1  0.25771000  0.80229000  0.04214000  1.0
  H  H2  1  0.47032000  0.79332000  0.04157000  1.0
  H  H3  1  0.35747000  0.20396000  0.96930000  1.0
  H  H4  1  0.15026000  0.19441000  0.97146000  1.0
  H  H5  1  0.76971000  0.46131000  0.67160000  1.0
  H  H6  1  0.55051000  0.56142000  0.67049000  1.0
  H  H7  1  0.58820000  0.72842000  0.27032000  1.0
  H  H8  1  0.80622000  0.62231000  0.28871000  1.0
  H  H9  1  0.36506000  0.58722000  0.64088000  1.0
  H  H10  1  0.15562000  0.72291000  0.63797000  1.0
  H  H11  1  0.22214000  0.00426000  0.29938000  1.0
  H  H12  1  0.43514000  0.88350000  0.28855000  1.0
  H  H13  1  0.74114000  0.19913000  0.95666000  1.0
  H  H14  1  0.52883000  0.20695000  0.95855000  1.0
  H  H15  1  0.64283000  0.79619000  0.03138000  1.0
  H  H16  1  0.85008000  0.80689000  0.02753000  1.0
  H  H17  1  0.22999000  0.53845000  0.32889000  1.0
  H  H18  1  0.44920000  0.43873000  0.32964000  1.0
  H  H19  1  0.41207000  0.27147000  0.72988000  1.0
  H  H20  1  0.19410000  0.37747000  0.71184000  1.0
  H  H21  1  0.63520000  0.41290000  0.35933000  1.0
  H  H22  1  0.84427000  0.27634000  0.36175000  1.0
  H  H23  1  0.77755000  0.99535000  0.70049000  1.0
  H  H24  1  0.56482000  0.11674000  0.71166000  1.0
  C  C1  1  0.98243000  0.88716000  0.27022000  1.0
  C  C2  1  0.97709000  0.77917000  0.37941000  1.0
  C  C3  1  0.96348000  0.02819000  0.23458000  1.0
  C  C4  1  0.94784000  0.75329000  0.51303000  1.0
  C  C5  1  0.28435000  0.88929000  0.02536000  1.0
  C  C6  1  0.40370000  0.88532000  0.02511000  1.0
  C  C7  1  0.43762000  0.99934000  0.00235000  1.0
  C  C8  1  0.34139000  0.11229000  0.98433000  1.0
  C  C9  1  0.22443000  0.10799000  0.98577000  1.0
  C  C10  1  0.72563000  0.51978000  0.58452000  1.0
  C  C11  1  0.60279000  0.57553000  0.58314000  1.0
  C  C12  1  0.54857000  0.65492000  0.46964000  1.0
  C  C13  1  0.62389000  0.66976000  0.36155000  1.0
  C  C14  1  0.74599000  0.61029000  0.37104000  1.0
  C  C15  1  0.42062000  0.72454000  0.46593000  1.0
  C  C16  1  0.33826000  0.67979000  0.56388000  1.0
  C  C17  1  0.22068000  0.75398000  0.56230000  1.0
  C  C18  1  0.25760000  0.91113000  0.37287000  1.0
  C  C19  1  0.37671000  0.84256000  0.36730000  1.0
  C  C20  1  0.01811000  0.11218000  0.72970000  1.0
  C  C21  1  0.02309000  0.22021000  0.62056000  1.0
  C  C22  1  0.03690000  0.97115000  0.76560000  1.0
  C  C23  1  0.05221000  0.24618000  0.48680000  1.0
  C  C24  1  0.71494000  0.11181000  0.97373000  1.0
  C  C25  1  0.59568000  0.11512000  0.97493000  1.0
  C  C26  1  0.56216000  0.00071000  0.99808000  1.0
  C  C27  1  0.65866000  0.88807000  0.01602000  1.0
  C  C28  1  0.77562000  0.89303000  0.01349000  1.0
  C  C29  1  0.27421000  0.48007000  0.41589000  1.0
  C  C30  1  0.39708000  0.42451000  0.41710000  1.0
  C  C31  1  0.45150000  0.34518000  0.53049000  1.0
  C  C32  1  0.37627000  0.33014000  0.63871000  1.0
  C  C33  1  0.25419000  0.38952000  0.62940000  1.0
  C  C34  1  0.57941000  0.27555000  0.53414000  1.0
  C  C35  1  0.66184000  0.32019000  0.43621000  1.0
  C  C36  1  0.77921000  0.24554000  0.43753000  1.0
  C  C37  1  0.74217000  0.08854000  0.62703000  1.0
  C  C38  1  0.62325000  0.15751000  0.63282000  1.0
  N  N1  1  0.01251000  0.84308000  0.17672000  1.0
  N  N2  1  0.02588000  0.71509000  0.22248000  1.0
  N  N3  1  0.00403000  0.67618000  0.34540000  1.0
  N  N4  1  0.19402000  0.99874000  0.00473000  1.0
  N  N5  1  0.79778000  0.53683000  0.48055000  1.0
  N  N6  1  0.18023000  0.86918000  0.46907000  1.0
  N  N7  1  0.98855000  0.15609000  0.82324000  1.0
  N  N8  1  0.97502000  0.28409000  0.77776000  1.0
  N  N9  1  0.99632000  0.32311000  0.65477000  1.0
  N  N10  1  0.80567000  0.00283000  0.99360000  1.0
  N  N11  1  0.20219000  0.46303000  0.52001000  1.0
  N  N12  1  0.81938000  0.13002000  0.53050000  1.0
  O  O1  1  0.95429000  0.09850000  0.11835000  1.0
  O  O2  1  0.95880000  0.07472000  0.31437000  1.0
  O  O3  1  0.94839000  0.63574000  0.58377000  1.0
  O  O4  1  0.92437000  0.84356000  0.55204000  1.0
  O  O5  1  0.04579000  0.90111000  0.88158000  1.0
  O  O6  1  0.04157000  0.92505000  0.68526000  1.0
  O  O7  1  0.05154000  0.36376000  0.41628000  1.0
  O  O8  1  0.07574000  0.15579000  0.44797000  1.0
