# generated using pymatgen
data_YH2C7(NO3)2
_symmetry_space_group_name_H-M   'P 1'
_cell_length_a   9.00009000
_cell_length_b   16.06913000
_cell_length_c   25.59105000
_cell_angle_alpha   89.91209000
_cell_angle_beta   96.75661000
_cell_angle_gamma   89.95925000
_symmetry_Int_Tables_number   1
_chemical_formula_structural   YH2C7(NO3)2
_chemical_formula_sum   'Y12 H24 C84 N24 O72'
_cell_volume   3675.36004815
_cell_formula_units_Z   12
loop_
 _symmetry_equiv_pos_site_id
 _symmetry_equiv_pos_as_xyz
  1  'x, y, z'
loop_
 _atom_site_type_symbol
 _atom_site_label
 _atom_site_symmetry_multiplicity
 _atom_site_fract_x
 _atom_site_fract_y
 _atom_site_fract_z
 _atom_site_occupancy
  Y  Y1  1  0.86828000  0.66697000  0.00470000  1.0
  Y  Y2  1  0.36829000  0.83960000  0.83829000  1.0
  Y  Y3  1  0.36687000  0.82769000  0.17275000  1.0
  Y  Y4  1  0.63275000  0.16668000  0.49524000  1.0
  Y  Y5  1  0.13075000  0.33861000  0.66014000  1.0
  Y  Y6  1  0.13463000  0.32987000  0.32781000  1.0
  Y  Y7  1  0.13173000  0.33303000  0.99530000  1.0
  Y  Y8  1  0.63172000  0.16039000  0.16171000  1.0
  Y  Y9  1  0.63315000  0.17231000  0.82725000  1.0
  Y  Y10  1  0.36726000  0.83332000  0.50476000  1.0
  Y  Y11  1  0.86926000  0.66138000  0.33986000  1.0
  Y  Y12  1  0.86538000  0.67013000  0.67219000  1.0
  H  H1  1  0.28139000  0.61170000  0.00527000  1.0
  H  H2  1  0.68948000  0.74044000  0.11899000  1.0
  H  H3  1  0.78071000  0.89390000  0.84183000  1.0
  H  H4  1  0.18858000  0.75765000  0.95191000  1.0
  H  H5  1  0.77787000  0.88038000  0.17334000  1.0
  H  H6  1  0.18805000  0.75008000  0.28571000  1.0
  H  H7  1  0.22108000  0.11129000  0.49408000  1.0
  H  H8  1  0.81226000  0.24291000  0.38183000  1.0
  H  H9  1  0.71787000  0.39254000  0.65831000  1.0
  H  H10  1  0.30952000  0.25919000  0.54731000  1.0
  H  H11  1  0.72355000  0.38249000  0.32662000  1.0
  H  H12  1  0.31329000  0.25215000  0.21485000  1.0
  H  H13  1  0.71862000  0.38830000  0.99473000  1.0
  H  H14  1  0.31053000  0.25956000  0.88101000  1.0
  H  H15  1  0.21931000  0.10610000  0.15817000  1.0
  H  H16  1  0.81143000  0.24234000  0.04808000  1.0
  H  H17  1  0.22214000  0.11962000  0.82666000  1.0
  H  H18  1  0.81196000  0.24992000  0.71428000  1.0
  H  H19  1  0.77894000  0.88871000  0.50591000  1.0
  H  H20  1  0.18775000  0.75708000  0.61817000  1.0
  H  H21  1  0.28215000  0.60746000  0.34169000  1.0
  H  H22  1  0.69049000  0.74081000  0.45269000  1.0
  H  H23  1  0.27646000  0.61751000  0.67337000  1.0
  H  H24  1  0.68673000  0.74784000  0.78515000  1.0
  C  C1  1  0.51939000  0.63010000  0.02150000  1.0
  C  C2  1  0.19174000  0.70962000  0.08840000  1.0
  C  C3  1  0.37106000  0.64041000  0.03130000  1.0
  C  C4  1  0.34556000  0.68954000  0.07388000  1.0
  C  C5  1  0.55535000  0.58286000  0.97271000  1.0
  C  C6  1  0.59833000  0.71125000  0.09379000  1.0
  C  C7  1  0.97597000  0.48892000  0.02749000  1.0
  C  C8  1  0.01853000  0.87419000  0.85733000  1.0
  C  C9  1  0.69083000  0.79051000  0.92289000  1.0
  C  C10  1  0.87014000  0.86315000  0.86698000  1.0
  C  C11  1  0.84448000  0.81096000  0.90817000  1.0
  C  C12  1  0.05317000  0.92436000  0.80952000  1.0
  C  C13  1  0.09758000  0.78830000  0.92736000  1.0
  C  C14  1  0.47867000  0.01657000  0.86024000  1.0
  C  C15  1  0.52177000  0.99564000  0.80427000  1.0
  C  C16  1  0.01624000  0.86226000  0.18918000  1.0
  C  C17  1  0.69034000  0.78074000  0.25675000  1.0
  C  C18  1  0.86804000  0.85135000  0.19909000  1.0
  C  C19  1  0.84331000  0.80138000  0.24149000  1.0
  C  C20  1  0.05202000  0.91030000  0.14054000  1.0
  C  C21  1  0.09648000  0.77976000  0.26089000  1.0
  C  C22  1  0.98304000  0.13046000  0.47839000  1.0
  C  C23  1  0.30953000  0.20923000  0.40995000  1.0
  C  C24  1  0.13128000  0.14052000  0.46828000  1.0
  C  C25  1  0.15642000  0.18991000  0.42567000  1.0
  C  C26  1  0.94741000  0.08295000  0.52722000  1.0
  C  C27  1  0.90349000  0.21285000  0.40660000  1.0
  C  C28  1  0.52535000  0.98880000  0.47267000  1.0
  C  C29  1  0.47983000  0.37392000  0.64259000  1.0
  C  C30  1  0.80767000  0.29043000  0.57701000  1.0
  C  C31  1  0.62815000  0.36279000  0.63284000  1.0
  C  C32  1  0.65371000  0.31128000  0.59131000  1.0
  C  C33  1  0.44441000  0.42250000  0.69108000  1.0
  C  C34  1  0.40083000  0.28937000  0.57189000  1.0
  C  C35  1  0.02035000  0.51540000  0.63842000  1.0
  C  C36  1  0.97373000  0.49276000  0.69370000  1.0
  C  C37  1  0.48530000  0.36403000  0.31116000  1.0
  C  C38  1  0.81167000  0.28210000  0.24399000  1.0
  C  C39  1  0.63345000  0.35322000  0.30107000  1.0
  C  C40  1  0.65831000  0.30267000  0.25904000  1.0
  C  C41  1  0.45073000  0.41093000  0.36032000  1.0
  C  C42  1  0.40500000  0.28155000  0.23967000  1.0
  C  C43  1  0.48062000  0.36989000  0.97850000  1.0
  C  C44  1  0.80827000  0.29037000  0.91160000  1.0
  C  C45  1  0.62895000  0.35959000  0.96870000  1.0
  C  C46  1  0.65445000  0.31045000  0.92612000  1.0
  C  C47  1  0.44466000  0.41714000  0.02729000  1.0
  C  C48  1  0.40168000  0.28875000  0.90621000  1.0
  C  C49  1  0.02404000  0.51108000  0.97251000  1.0
  C  C50  1  0.98148000  0.12580000  0.14266000  1.0
  C  C51  1  0.30918000  0.20949000  0.07711000  1.0
  C  C52  1  0.12987000  0.13684000  0.13301000  1.0
  C  C53  1  0.15553000  0.18903000  0.09183000  1.0
  C  C54  1  0.94685000  0.07564000  0.19048000  1.0
  C  C55  1  0.90243000  0.21169000  0.07263000  1.0
  C  C56  1  0.52135000  0.98342000  0.13976000  1.0
  C  C57  1  0.47824000  0.00435000  0.19573000  1.0
  C  C58  1  0.98377000  0.13773000  0.81082000  1.0
  C  C59  1  0.30967000  0.21925000  0.74325000  1.0
  C  C60  1  0.13197000  0.14865000  0.80091000  1.0
  C  C61  1  0.15670000  0.19862000  0.75851000  1.0
  C  C62  1  0.94799000  0.08970000  0.85946000  1.0
  C  C63  1  0.90353000  0.22024000  0.73911000  1.0
  C  C64  1  0.01697000  0.86954000  0.52161000  1.0
  C  C65  1  0.69048000  0.79076000  0.59005000  1.0
  C  C66  1  0.86873000  0.85947000  0.53171000  1.0
  C  C67  1  0.84359000  0.81009000  0.57433000  1.0
  C  C68  1  0.05260000  0.91704000  0.47278000  1.0
  C  C69  1  0.09652000  0.78715000  0.59340000  1.0
  C  C70  1  0.47466000  0.01120000  0.52733000  1.0
  C  C71  1  0.52019000  0.62608000  0.35741000  1.0
  C  C72  1  0.19235000  0.70956000  0.42299000  1.0
  C  C73  1  0.37186000  0.63721000  0.36716000  1.0
  C  C74  1  0.34630000  0.68871000  0.40869000  1.0
  C  C75  1  0.55560000  0.57750000  0.30892000  1.0
  C  C76  1  0.59918000  0.71063000  0.42811000  1.0
  C  C77  1  0.97966000  0.48459000  0.36158000  1.0
  C  C78  1  0.02628000  0.50723000  0.30629000  1.0
  C  C79  1  0.51471000  0.63597000  0.68883000  1.0
  C  C80  1  0.18834000  0.71790000  0.75601000  1.0
  C  C81  1  0.36656000  0.64677000  0.69893000  1.0
  C  C82  1  0.34171000  0.69732000  0.74096000  1.0
  C  C83  1  0.54928000  0.58907000  0.63967000  1.0
  C  C84  1  0.59501000  0.71844000  0.76032000  1.0
  N  N1  1  0.63320000  0.66590000  0.05289000  1.0
  N  N2  1  0.45941000  0.72483000  0.10570000  1.0
  N  N3  1  0.13272000  0.83689000  0.88782000  1.0
  N  N4  1  0.95863000  0.77325000  0.93875000  1.0
  N  N5  1  0.13069000  0.82630000  0.22035000  1.0
  N  N6  1  0.95789000  0.76556000  0.27283000  1.0
  N  N7  1  0.86888000  0.16670000  0.44727000  1.0
  N  N8  1  0.04214000  0.22616000  0.39441000  1.0
  N  N9  1  0.36590000  0.33737000  0.61164000  1.0
  N  N10  1  0.53976000  0.27419000  0.56045000  1.0
  N  N11  1  0.37081000  0.32853000  0.27998000  1.0
  N  N12  1  0.54363000  0.26642000  0.22800000  1.0
  N  N13  1  0.36681000  0.33409000  0.94711000  1.0
  N  N14  1  0.54060000  0.27516000  0.89429000  1.0
  N  N15  1  0.86730000  0.16310000  0.11218000  1.0
  N  N16  1  0.04139000  0.22675000  0.06124000  1.0
  N  N17  1  0.86932000  0.17369000  0.77965000  1.0
  N  N18  1  0.04212000  0.23443000  0.72717000  1.0
  N  N19  1  0.13113000  0.83330000  0.55273000  1.0
  N  N20  1  0.95787000  0.77383000  0.60558000  1.0
  N  N21  1  0.63412000  0.66262000  0.38836000  1.0
  N  N22  1  0.46025000  0.72581000  0.43954000  1.0
  N  N23  1  0.62920000  0.67147000  0.72002000  1.0
  N  N24  1  0.45638000  0.73358000  0.77200000  1.0
  O  O1  1  0.69548000  0.58357000  0.96541000  1.0
  O  O2  1  0.08135000  0.70447000  0.05290000  1.0
  O  O3  1  0.92470000  0.54705000  0.05306000  1.0
  O  O4  1  0.18538000  0.73327000  0.13514000  1.0
  O  O5  1  0.99145000  0.41321000  0.04214000  1.0
  O  O6  1  0.45093000  0.54978000  0.94462000  1.0
  O  O7  1  0.19269000  0.92457000  0.80153000  1.0
  O  O8  1  0.57813000  0.79982000  0.88862000  1.0
  O  O9  1  0.42937000  0.95812000  0.88617000  1.0
  O  O10  1  0.57085000  0.05417000  0.77827000  1.0
  O  O11  1  0.68726000  0.76269000  0.96891000  1.0
  O  O12  1  0.50434000  0.92027000  0.78937000  1.0
  O  O13  1  0.49567000  0.09185000  0.87532000  1.0
  O  O14  1  0.94746000  0.95865000  0.78265000  1.0
  O  O15  1  0.19309000  0.91216000  0.13464000  1.0
  O  O16  1  0.57789000  0.78737000  0.22220000  1.0
  O  O17  1  0.68739000  0.75522000  0.30340000  1.0
  O  O18  1  0.94740000  0.94130000  0.11136000  1.0
  O  O19  1  0.80720000  0.08359000  0.53450000  1.0
  O  O20  1  0.42223000  0.20413000  0.44453000  1.0
  O  O21  1  0.57833000  0.04667000  0.44728000  1.0
  O  O22  1  0.31222000  0.23253000  0.36285000  1.0
  O  O23  1  0.51032000  0.91308000  0.45809000  1.0
  O  O24  1  0.05206000  0.04987000  0.55533000  1.0
  O  O25  1  0.30413000  0.42380000  0.69818000  1.0
  O  O26  1  0.91902000  0.29970000  0.61170000  1.0
  O  O27  1  0.06814000  0.45754000  0.61173000  1.0
  O  O28  1  0.92031000  0.55017000  0.71936000  1.0
  O  O29  1  0.81391000  0.26236000  0.53126000  1.0
  O  O30  1  0.99200000  0.41731000  0.70855000  1.0
  O  O31  1  0.00707000  0.59155000  0.62461000  1.0
  O  O32  1  0.54984000  0.45436000  0.71932000  1.0
  O  O33  1  0.31065000  0.41173000  0.36765000  1.0
  O  O34  1  0.92487000  0.29147000  0.27795000  1.0
  O  O35  1  0.81507000  0.25420000  0.19804000  1.0
  O  O36  1  0.55659000  0.44193000  0.38882000  1.0
  O  O37  1  0.30453000  0.41642000  0.03459000  1.0
  O  O38  1  0.91866000  0.29553000  0.94709000  1.0
  O  O39  1  0.07531000  0.45295000  0.94694000  1.0
  O  O40  1  0.81463000  0.26672000  0.86486000  1.0
  O  O41  1  0.00856000  0.58679000  0.95786000  1.0
  O  O42  1  0.54908000  0.45022000  0.05538000  1.0
  O  O43  1  0.80733000  0.07543000  0.19847000  1.0
  O  O44  1  0.42188000  0.20017000  0.11138000  1.0
  O  O45  1  0.57064000  0.04187000  0.11382000  1.0
  O  O46  1  0.42916000  0.94582000  0.22173000  1.0
  O  O47  1  0.31276000  0.23730000  0.03109000  1.0
  O  O48  1  0.49567000  0.07973000  0.21063000  1.0
  O  O49  1  0.50434000  0.90815000  0.12468000  1.0
  O  O50  1  0.05256000  0.04135000  0.21735000  1.0
  O  O51  1  0.80692000  0.08783000  0.86535000  1.0
  O  O52  1  0.42212000  0.21262000  0.77780000  1.0
  O  O53  1  0.31262000  0.24478000  0.69660000  1.0
  O  O54  1  0.05261000  0.05870000  0.88864000  1.0
  O  O55  1  0.19282000  0.91640000  0.46549000  1.0
  O  O56  1  0.57778000  0.79586000  0.55546000  1.0
  O  O57  1  0.42168000  0.95333000  0.55272000  1.0
  O  O58  1  0.68780000  0.76746000  0.63714000  1.0
  O  O59  1  0.48969000  0.08692000  0.54191000  1.0
  O  O60  1  0.94795000  0.95013000  0.44467000  1.0
  O  O61  1  0.69588000  0.57619000  0.30181000  1.0
  O  O62  1  0.08099000  0.70030000  0.38830000  1.0
  O  O63  1  0.93187000  0.54245000  0.38826000  1.0
  O  O64  1  0.07970000  0.44983000  0.28064000  1.0
  O  O65  1  0.18610000  0.73763000  0.46874000  1.0
  O  O66  1  0.00801000  0.58269000  0.29145000  1.0
  O  O67  1  0.99294000  0.40845000  0.37539000  1.0
  O  O68  1  0.45017000  0.54563000  0.28067000  1.0
  O  O69  1  0.68936000  0.58827000  0.63234000  1.0
  O  O70  1  0.07514000  0.70853000  0.72205000  1.0
  O  O71  1  0.18494000  0.74579000  0.80196000  1.0
  O  O72  1  0.44342000  0.55806000  0.61118000  1.0
