# generated using pymatgen
data_Cu2H11C22NO8
_symmetry_space_group_name_H-M   'P 1'
_cell_length_a   18.59690522
_cell_length_b   18.60746000
_cell_length_c   24.16979000
_cell_angle_alpha   90.00000000
_cell_angle_beta   90.00000000
_cell_angle_gamma   119.98148681
_symmetry_Int_Tables_number   1
_chemical_formula_structural   Cu2H11C22NO8
_chemical_formula_sum   'Cu12 H66 C132 N6 O48'
_cell_volume   7244.56424902
_cell_formula_units_Z   6
loop_
 _symmetry_equiv_pos_site_id
 _symmetry_equiv_pos_as_xyz
  1  'x, y, z'
loop_
 _atom_site_type_symbol
 _atom_site_label
 _atom_site_symmetry_multiplicity
 _atom_site_fract_x
 _atom_site_fract_y
 _atom_site_fract_z
 _atom_site_occupancy
  Cu  Cu0  1  0.52224000  0.04447000  0.04088000  1
  Cu  Cu1  1  0.95549000  0.47776000  0.04087000  1
  Cu  Cu2  1  0.52227000  0.47776000  0.04087000  1
  Cu  Cu3  1  0.47776000  0.95552000  0.54088000  1
  Cu  Cu4  1  0.04451000  0.52224000  0.54087000  1
  Cu  Cu5  1  0.47773000  0.52224000  0.54087000  1
  Cu  Cu6  1  0.04451000  0.52224000  0.95913000  1
  Cu  Cu7  1  0.47776000  0.95552000  0.95912000  1
  Cu  Cu8  1  0.47773000  0.52224000  0.95913000  1
  Cu  Cu9  1  0.95549000  0.47776000  0.45913000  1
  Cu  Cu10  1  0.52224000  0.04447000  0.45912000  1
  Cu  Cu11  1  0.52227000  0.47776000  0.45913000  1
  H  H12  1  0.29678000  0.93506000  0.14031000  1
  H  H13  1  0.06484000  0.36170000  0.14033000  1
  H  H14  1  0.63831000  0.70320000  0.14034000  1
  H  H15  1  0.70322000  0.06494000  0.64031000  1
  H  H16  1  0.93515000  0.63829000  0.64032000  1
  H  H17  1  0.36169000  0.29680000  0.64034000  1
  H  H18  1  0.93511000  0.29680000  0.85966000  1
  H  H19  1  0.36172000  0.06494000  0.85969000  1
  H  H20  1  0.70314000  0.63829000  0.85968000  1
  H  H21  1  0.06489000  0.70320000  0.35966000  1
  H  H22  1  0.63828000  0.93506000  0.35969000  1
  H  H23  1  0.29686000  0.36171000  0.35968000  1
  H  H24  1  0.70322000  0.06494000  0.85969000  1
  H  H25  1  0.93515000  0.63829000  0.85968000  1
  H  H26  1  0.36169000  0.29680000  0.85966000  1
  H  H27  1  0.29678000  0.93506000  0.35969000  1
  H  H28  1  0.06485000  0.36171000  0.35968000  1
  H  H29  1  0.63831000  0.70320000  0.35966000  1
  H  H30  1  0.06489000  0.70320000  0.14034000  1
  H  H31  1  0.63828000  0.93506000  0.14031000  1
  H  H32  1  0.29686000  0.36171000  0.14032000  1
  H  H33  1  0.93511000  0.29680000  0.64034000  1
  H  H34  1  0.36172000  0.06494000  0.64031000  1
  H  H35  1  0.70314000  0.63829000  0.64032000  1
  H  H36  1  0.23803000  0.76200000  0.00642000  1
  H  H37  1  0.23486000  0.76513000  0.21397000  1
  H  H38  1  0.09393000  0.90606000  0.16089000  1
  H  H39  1  0.23801000  0.47602000  0.00644000  1
  H  H40  1  0.23482000  0.46965000  0.21397000  1
  H  H41  1  0.09396000  0.18792000  0.16089000  1
  H  H42  1  0.52397000  0.76200000  0.00642000  1
  H  H43  1  0.53027000  0.76513000  0.21397000  1
  H  H44  1  0.81213000  0.90606000  0.16089000  1
  H  H45  1  0.76197000  0.23800000  0.50642000  1
  H  H46  1  0.76514000  0.23487000  0.71397000  1
  H  H47  1  0.90607000  0.09394000  0.66089000  1
  H  H48  1  0.76199000  0.52398000  0.50644000  1
  H  H49  1  0.76517000  0.53034000  0.71397000  1
  H  H50  1  0.90604000  0.81208000  0.66089000  1
  H  H51  1  0.47603000  0.23800000  0.50642000  1
  H  H52  1  0.46973000  0.23486000  0.71397000  1
  H  H53  1  0.18786000  0.09393000  0.66089000  1
  H  H54  1  0.76197000  0.23800000  0.99358000  1
  H  H55  1  0.76514000  0.23487000  0.78603000  1
  H  H56  1  0.90607000  0.09394000  0.83911000  1
  H  H57  1  0.47603000  0.23800000  0.99358000  1
  H  H58  1  0.46973000  0.23486000  0.78603000  1
  H  H59  1  0.18786000  0.09393000  0.83911000  1
  H  H60  1  0.76199000  0.52398000  0.99356000  1
  H  H61  1  0.76517000  0.53034000  0.78603000  1
  H  H62  1  0.90604000  0.81208000  0.83911000  1
  H  H63  1  0.23803000  0.76200000  0.49358000  1
  H  H64  1  0.23486000  0.76513000  0.28603000  1
  H  H65  1  0.09393000  0.90606000  0.33911000  1
  H  H66  1  0.52397000  0.76200000  0.49358000  1
  H  H67  1  0.53027000  0.76513000  0.28603000  1
  H  H68  1  0.81213000  0.90606000  0.33911000  1
  H  H69  1  0.23801000  0.47602000  0.49356000  1
  H  H70  1  0.23482000  0.46965000  0.28603000  1
  H  H71  1  0.09396000  0.18792000  0.33911000  1
  H  H72  1  0.05471000  0.94528000  0.25000000  1
  H  H73  1  0.05477000  0.10954000  0.25000000  1
  H  H74  1  0.89057000  0.94528000  0.25000000  1
  H  H75  1  0.94529000  0.05472000  0.75000000  1
  H  H76  1  0.94523000  0.89046000  0.75000000  1
  H  H77  1  0.10942000  0.05470000  0.75000000  1
  C  C78  1  0.27575000  0.85432000  0.07076000  1
  C  C79  1  0.35817000  0.90979000  0.04473000  1
  C  C80  1  0.25376000  0.87616000  0.12096000  1
  C  C81  1  0.14563000  0.42140000  0.07078000  1
  C  C82  1  0.09018000  0.44838000  0.04474000  1
  C  C83  1  0.12378000  0.37757000  0.12096000  1
  C  C84  1  0.57858000  0.72423000  0.07077000  1
  C  C85  1  0.55162000  0.64182000  0.04474000  1
  C  C86  1  0.62241000  0.74622000  0.12097000  1
  C  C87  1  0.72425000  0.14568000  0.57076000  1
  C  C88  1  0.64183000  0.09021000  0.54473000  1
  C  C89  1  0.74624000  0.12384000  0.62096000  1
  C  C90  1  0.85437000  0.57860000  0.57078000  1
  C  C91  1  0.90982000  0.55162000  0.54475000  1
  C  C92  1  0.87621000  0.62241000  0.62096000  1
  C  C93  1  0.42142000  0.27576000  0.57077000  1
  C  C94  1  0.44838000  0.35818000  0.54474000  1
  C  C95  1  0.37759000  0.25378000  0.62097000  1
  C  C96  1  0.85434000  0.27576000  0.92923000  1
  C  C97  1  0.90980000  0.35818000  0.95526000  1
  C  C98  1  0.87619000  0.25378000  0.87903000  1
  C  C99  1  0.42143000  0.14568000  0.92924000  1
  C  C100  1  0.44838000  0.09021000  0.95527000  1
  C  C101  1  0.37760000  0.12384000  0.87904000  1
  C  C102  1  0.72423000  0.57859000  0.92922000  1
  C  C103  1  0.64180000  0.55162000  0.95525000  1
  C  C104  1  0.74621000  0.62242000  0.87904000  1
  C  C105  1  0.14565000  0.72423000  0.42923000  1
  C  C106  1  0.09020000  0.64182000  0.45526000  1
  C  C107  1  0.12381000  0.74622000  0.37903000  1
  C  C108  1  0.57857000  0.85432000  0.42924000  1
  C  C109  1  0.55162000  0.90979000  0.45527000  1
  C  C110  1  0.62240000  0.87616000  0.37904000  1
  C  C111  1  0.27577000  0.42140000  0.42922000  1
  C  C112  1  0.35820000  0.44838000  0.45526000  1
  C  C113  1  0.25379000  0.37758000  0.37904000  1
  C  C114  1  0.72425000  0.14568000  0.92924000  1
  C  C115  1  0.64183000  0.09021000  0.95527000  1
  C  C116  1  0.74624000  0.12384000  0.87904000  1
  C  C117  1  0.85437000  0.57860000  0.92922000  1
  C  C118  1  0.90982000  0.55162000  0.95525000  1
  C  C119  1  0.87621000  0.62241000  0.87904000  1
  C  C120  1  0.42142000  0.27576000  0.92923000  1
  C  C121  1  0.44838000  0.35818000  0.95526000  1
  C  C122  1  0.37759000  0.25378000  0.87903000  1
  C  C123  1  0.27575000  0.85432000  0.42924000  1
  C  C124  1  0.35817000  0.90979000  0.45527000  1
  C  C125  1  0.25376000  0.87616000  0.37904000  1
  C  C126  1  0.14563000  0.42140000  0.42922000  1
  C  C127  1  0.09018000  0.44838000  0.45526000  1
  C  C128  1  0.12378000  0.37757000  0.37904000  1
  C  C129  1  0.57858000  0.72423000  0.42923000  1
  C  C130  1  0.55162000  0.64182000  0.45526000  1
  C  C131  1  0.62241000  0.74622000  0.37903000  1
  C  C132  1  0.14565000  0.72423000  0.07077000  1
  C  C133  1  0.09020000  0.64182000  0.04474000  1
  C  C134  1  0.12381000  0.74622000  0.12097000  1
  C  C135  1  0.57857000  0.85432000  0.07076000  1
  C  C136  1  0.55162000  0.90979000  0.04473000  1
  C  C137  1  0.62240000  0.87616000  0.12096000  1
  C  C138  1  0.27577000  0.42140000  0.07078000  1
  C  C139  1  0.35820000  0.44838000  0.04474000  1
  C  C140  1  0.25379000  0.37758000  0.12096000  1
  C  C141  1  0.85434000  0.27576000  0.57077000  1
  C  C142  1  0.90980000  0.35818000  0.54474000  1
  C  C143  1  0.87619000  0.25378000  0.62097000  1
  C  C144  1  0.42143000  0.14568000  0.57076000  1
  C  C145  1  0.44838000  0.09021000  0.54473000  1
  C  C146  1  0.37760000  0.12384000  0.62096000  1
  C  C147  1  0.72423000  0.57859000  0.57078000  1
  C  C148  1  0.64180000  0.55162000  0.54475000  1
  C  C149  1  0.74621000  0.62242000  0.62096000  1
  C  C150  1  0.22115000  0.77884000  0.04532000  1
  C  C151  1  0.17712000  0.82283000  0.14608000  1
  C  C152  1  0.15384000  0.84612000  0.19941000  1
  C  C153  1  0.11043000  0.88956000  0.20016000  1
  C  C154  1  0.22114000  0.44229000  0.04532000  1
  C  C155  1  0.17714000  0.35428000  0.14608000  1
  C  C156  1  0.15386000  0.30772000  0.19941000  1
  C  C157  1  0.11046000  0.22092000  0.20016000  1
  C  C158  1  0.55769000  0.77884000  0.04532000  1
  C  C159  1  0.64571000  0.82284000  0.14608000  1
  C  C160  1  0.69228000  0.84612000  0.19941000  1
  C  C161  1  0.77913000  0.88956000  0.20016000  1
  C  C162  1  0.77884000  0.22115000  0.54532000  1
  C  C163  1  0.82287000  0.17716000  0.64608000  1
  C  C164  1  0.84616000  0.15388000  0.69941000  1
  C  C165  1  0.88957000  0.11044000  0.70015000  1
  C  C166  1  0.77885000  0.55770000  0.54532000  1
  C  C167  1  0.82286000  0.64572000  0.64608000  1
  C  C168  1  0.84614000  0.69228000  0.69941000  1
  C  C169  1  0.88954000  0.77908000  0.70015000  1
  C  C170  1  0.44231000  0.22115000  0.54532000  1
  C  C171  1  0.35429000  0.17716000  0.64608000  1
  C  C172  1  0.30772000  0.15388000  0.69941000  1
  C  C173  1  0.22087000  0.11044000  0.70015000  1
  C  C174  1  0.77885000  0.22116000  0.95468000  1
  C  C175  1  0.82287000  0.17716000  0.85392000  1
  C  C176  1  0.84616000  0.15388000  0.80059000  1
  C  C177  1  0.88957000  0.11044000  0.79985000  1
  C  C178  1  0.44231000  0.22115000  0.95468000  1
  C  C179  1  0.35429000  0.17716000  0.85392000  1
  C  C180  1  0.30772000  0.15388000  0.80059000  1
  C  C181  1  0.22087000  0.11044000  0.79985000  1
  C  C182  1  0.77885000  0.55770000  0.95468000  1
  C  C183  1  0.82286000  0.64572000  0.85392000  1
  C  C184  1  0.84614000  0.69228000  0.80059000  1
  C  C185  1  0.88954000  0.77908000  0.79985000  1
  C  C186  1  0.22115000  0.77884000  0.45469000  1
  C  C187  1  0.17712000  0.82283000  0.35392000  1
  C  C188  1  0.15384000  0.84612000  0.30059000  1
  C  C189  1  0.11043000  0.88956000  0.29985000  1
  C  C190  1  0.55769000  0.77884000  0.45469000  1
  C  C191  1  0.64571000  0.82284000  0.35392000  1
  C  C192  1  0.69228000  0.84612000  0.30059000  1
  C  C193  1  0.77913000  0.88956000  0.29985000  1
  C  C194  1  0.22114000  0.44229000  0.45468000  1
  C  C195  1  0.17714000  0.35428000  0.35392000  1
  C  C196  1  0.15386000  0.30772000  0.30059000  1
  C  C197  1  0.11046000  0.22092000  0.29985000  1
  C  C198  1  0.17612000  0.82385000  0.25000000  1
  C  C199  1  0.08846000  0.91155000  0.25000000  1
  C  C200  1  0.17612000  0.35224000  0.25000000  1
  C  C201  1  0.08849000  0.17698000  0.25000000  1
  C  C202  1  0.64773000  0.82385000  0.25000000  1
  C  C203  1  0.82309000  0.91155000  0.25000000  1
  C  C204  1  0.82388000  0.17614000  0.75000000  1
  C  C205  1  0.91154000  0.08845000  0.75000000  1
  C  C206  1  0.82388000  0.64776000  0.75000000  1
  C  C207  1  0.91151000  0.82302000  0.75000000  1
  C  C208  1  0.35226000  0.17614000  0.75000000  1
  C  C209  1  0.17691000  0.08845000  0.75000000  1
  N  N210  1  0.21896000  0.78104000  0.25000000  1
  N  N211  1  0.21892000  0.43784000  0.25000000  1
  N  N212  1  0.56208000  0.78104000  0.25000000  1
  N  N213  1  0.78104000  0.21896000  0.75000000  1
  N  N214  1  0.78108000  0.56215000  0.75000000  1
  N  N215  1  0.43792000  0.21896000  0.75000000  1
  O  O216  1  0.41092000  0.97252000  0.07276000  1
  O  O217  1  0.37001000  0.88938000  0.99642000  1
  O  O218  1  0.02742000  0.43841000  0.07277000  1
  O  O219  1  0.11063000  0.48064000  0.99645000  1
  O  O220  1  0.56160000  0.58907000  0.07277000  1
  O  O221  1  0.51936000  0.62999000  0.99644000  1
  O  O222  1  0.58908000  0.02748000  0.57276000  1
  O  O223  1  0.62999000  0.11062000  0.49642000  1
  O  O224  1  0.97258000  0.56159000  0.57277000  1
  O  O225  1  0.88936000  0.51935000  0.49645000  1
  O  O226  1  0.43840000  0.41093000  0.57277000  1
  O  O227  1  0.48063000  0.37000000  0.49643000  1
  O  O228  1  0.97253000  0.41093000  0.92723000  1
  O  O229  1  0.88937000  0.37000000  0.00357000  1
  O  O230  1  0.43840000  0.02748000  0.92724000  1
  O  O231  1  0.48063000  0.11061000  0.00358000  1
  O  O232  1  0.58901000  0.56159000  0.92723000  1
  O  O233  1  0.62999000  0.51935000  0.00355000  1
  O  O234  1  0.02746000  0.58906000  0.42723000  1
  O  O235  1  0.11063000  0.62999000  0.50356000  1
  O  O236  1  0.56160000  0.97252000  0.42724000  1
  O  O237  1  0.51937000  0.88938000  0.50358000  1
  O  O238  1  0.41099000  0.43841000  0.42723000  1
  O  O239  1  0.37001000  0.48064000  0.50355000  1
  O  O240  1  0.58908000  0.02748000  0.92724000  1
  O  O241  1  0.62999000  0.11062000  0.00358000  1
  O  O242  1  0.97258000  0.56159000  0.92723000  1
  O  O243  1  0.88936000  0.51935000  0.00355000  1
  O  O244  1  0.43840000  0.41093000  0.92723000  1
  O  O245  1  0.48063000  0.37000000  0.00357000  1
  O  O246  1  0.41092000  0.97252000  0.42724000  1
  O  O247  1  0.37001000  0.88938000  0.50358000  1
  O  O248  1  0.02742000  0.43841000  0.42723000  1
  O  O249  1  0.11063000  0.48064000  0.50355000  1
  O  O250  1  0.56160000  0.58907000  0.42723000  1
  O  O251  1  0.51936000  0.62999000  0.50356000  1
  O  O252  1  0.02746000  0.58906000  0.07277000  1
  O  O253  1  0.11063000  0.62999000  0.99644000  1
  O  O254  1  0.56160000  0.97252000  0.07276000  1
  O  O255  1  0.51937000  0.88938000  0.99642000  1
  O  O256  1  0.41099000  0.43841000  0.07277000  1
  O  O257  1  0.37001000  0.48064000  0.99645000  1
  O  O258  1  0.97253000  0.41093000  0.57277000  1
  O  O259  1  0.88937000  0.37000000  0.49643000  1
  O  O260  1  0.43840000  0.02748000  0.57276000  1
  O  O261  1  0.48063000  0.11061000  0.49642000  1
  O  O262  1  0.58901000  0.56159000  0.57277000  1
  O  O263  1  0.62999000  0.51935000  0.49645000  1
