# generated using pymatgen
data_H28C49N4
_symmetry_space_group_name_H-M   'P 1'
_cell_length_a   12.10858333
_cell_length_b   12.10856667
_cell_length_c   36.32640000
_cell_angle_alpha   90.06980000
_cell_angle_beta   90.03489984
_cell_angle_gamma   60.00013660
_symmetry_Int_Tables_number   1
_chemical_formula_structural   H28C49N4
_chemical_formula_sum   'H84 C147 N12'
_cell_volume   4612.53144840
_cell_formula_units_Z   3
loop_
 _symmetry_equiv_pos_site_id
 _symmetry_equiv_pos_as_xyz
  1  'x, y, z'
loop_
 _atom_site_type_symbol
 _atom_site_label
 _atom_site_symmetry_multiplicity
 _atom_site_fract_x
 _atom_site_fract_y
 _atom_site_fract_z
 _atom_site_occupancy
  C  1  1  0.88687000  0.01531300  0.10735000  1
  C  2  1  0.81950100  0.95948100  0.09178000  1
  C  3  1  0.74741200  0.00938900  0.05939000  1
  C  4  1  0.73472300  0.11979600  0.04165400  1
  C  5  1  0.80649900  0.17156700  0.05722400  1
  C  6  1  0.87971700  0.12206067  0.08934700  1
  C  7  1  0.65693700  0.17766833  0.00650300  1
  C  8  1  0.76193000  0.13455833  0.97736300  1
  C  9  1  0.81327000  0.21155533  0.96551000  1
  C  10  1  0.90197100  0.17399300  0.93649900  1
  C  11  1  0.94493000  0.05608167  0.91841700  1
  C  12  1  0.90563300  0.97267500  0.93264300  1
  C  13  1  0.81880900  0.01043667  0.96199400  1
  C  14  1  0.55587600  0.14010733  0.99933900  1
  C  15  1  0.56822700  0.32137067  0.00687700  1
  C  16  1  0.51466200  0.38670567  0.97326967  1
  C  17  1  0.42705300  0.51755267  0.97235700  1
  C  18  1  0.39017100  0.58765367  0.00542900  1
  C  19  1  0.42932700  0.52273233  0.03939400  1
  C  20  1  0.51734700  0.39136800  0.03993300  1
  C  21  1  0.47073900  0.15077333  0.02792000  1
  C  22  1  0.38312300  0.10854200  0.02307500  1
  C  23  1  0.37926300  0.05408767  0.98912600  1
  C  24  1  0.44161000  0.06891833  0.95839800  1
  C  25  1  0.52738300  0.11349733  0.96356800  1
  C  42  1  0.01803600  0.10862633  0.44075800  1
  C  43  1  0.96200100  0.23182100  0.42525700  1
  C  44  1  0.01162800  0.25400800  0.39282100  1
  C  45  1  0.12204700  0.15635200  0.37501300  1
  C  46  1  0.17396100  0.03279300  0.39051400  1
  C  47  1  0.12465500  0.00903333  0.42265300  1
  C  48  1  0.17975500  0.17628433  0.33984300  1
  C  49  1  0.13649000  0.11446033  0.31069000  1
  C  50  1  0.21327500  0.98601767  0.29882500  1
  C  51  1  0.17562100  0.93486033  0.26981100  1
  C  52  1  0.05777300  0.00983367  0.25174700  1
  C  53  1  0.97458800  0.13272667  0.26597100  1
  C  54  1  0.01243600  0.18183700  0.29531800  1
  C  55  1  0.14219800  0.31486933  0.33272900  1
  C  56  1  0.32345100  0.12121067  0.34017000  1
  C  57  1  0.38890800  0.10901733  0.30654400  1
  C  58  1  0.51970100  0.06611033  0.30557500  1
  C  59  1  0.58980200  0.03307300  0.33863100  1
  C  60  1  0.52481800  0.05881733  0.37259300  1
  C  61  1  0.39338600  0.10265200  0.37319900  1
  C  62  1  0.15272900  0.38951800  0.36133100  1
  C  63  1  0.11041200  0.51936767  0.35649400  1
  C  64  1  0.05650000  0.57747667  0.32252500  1
  C  65  1  0.07150600  0.50003400  0.29181400  1
  C  66  1  0.11613000  0.36968767  0.29695100  1
  C  83  1  0.11080900  0.88483500  0.77406900  1
  C  84  1  0.23405000  0.81763200  0.75855700  1
  C  85  1  0.25634000  0.74560667  0.72612000  1
  C  86  1  0.15874700  0.73271533  0.70831100  1
  C  87  1  0.03514400  0.80443667  0.72381500  1
  C  88  1  0.01123700  0.87784400  0.75593500  1
  C  89  1  0.17886000  0.65486233  0.67313000  1
  C  90  1  0.11738900  0.75975833  0.64397500  1
  C  91  1  0.98895300  0.81159333  0.63211500  1
  C  92  1  0.93798800  0.90034667  0.60313600  1
  C  93  1  0.01324000  0.94286800  0.58509200  1
  C  94  1  0.13611800  0.90304700  0.59931300  1
  C  95  1  0.18501400  0.81616500  0.62863300  1
  C  96  1  0.31747200  0.55367267  0.66608500  1
  C  97  1  0.12369200  0.56632167  0.67338800  1
  C  98  1  0.11169000  0.51291767  0.63973500  1
  C  99  1  0.06911100  0.42475367  0.63869200  1
  C  100  1  0.03569100  0.38807600  0.67172800  1
  C  101  1  0.06144900  0.42720767  0.70573400  1
  C  102  1  0.10494700  0.51508000  0.70638100  1
  C  103  1  0.39181600  0.46881467  0.69473100  1
  C  104  1  0.52163300  0.38091733  0.68996900  1
  C  105  1  0.58015700  0.37663200  0.65610600  1
  C  106  1  0.50314700  0.43886600  0.62530500  1
  C  107  1  0.37272500  0.52461133  0.63034800  1
  C  124  1  0.08876100  0.94297267  0.80951900  1
  C  125  1  0.98748600  0.06866100  0.81621100  1
  C  126  1  0.94574600  0.11087767  0.85284100  1
  C  127  1  0.00588800  0.02894867  0.88327400  1
  C  128  1  0.11298200  0.90756533  0.87630300  1
  C  129  1  0.15355400  0.86533633  0.84014200  1
  C  131  1  0.77943000  0.31040900  0.82938200  1
  C  132  1  0.82372100  0.26996000  0.79307300  1
  C  136  1  0.67346300  0.43225067  0.83578900  1
  C  137  1  0.61205500  0.51436100  0.80590300  1
  C  138  1  0.65678900  0.47499900  0.76979000  1
  C  139  1  0.76238900  0.35286933  0.76336100  1
  C  144  1  0.94500800  0.97917500  0.14277900  1
  C  145  1  0.07061400  0.95495033  0.14950100  1
  C  146  1  0.11274500  0.95441633  0.18614400  1
  C  147  1  0.03075200  0.97610233  0.21655700  1
  C  148  1  0.90942400  0.99031033  0.20957100  1
  C  149  1  0.86736300  0.99180833  0.17339300  1
  C  151  1  0.31220800  0.92158433  0.16274000  1
  C  152  1  0.27184200  0.91786767  0.12640800  1
  C  156  1  0.43395300  0.90590300  0.16917800  1
  C  157  1  0.51605000  0.88553800  0.13930200  1
  C  158  1  0.47677400  0.88029833  0.10316600  1
  C  159  1  0.35473500  0.89664600  0.09670500  1
  C  164  1  0.98226100  0.08654767  0.47621700  1
  C  165  1  0.95779000  0.98533667  0.48288800  1
  C  166  1  0.95745700  0.94365867  0.51950800  1
  C  167  1  0.97949000  0.00375167  0.54995500  1
  C  168  1  0.99399500  0.11068933  0.54300900  1
  C  169  1  0.99544800  0.15124833  0.50685600  1
  C  171  1  0.92396000  0.77741667  0.49603000  1
  C  172  1  0.92001300  0.82160833  0.45972500  1
  C  176  1  0.90803100  0.67151100  0.50242400  1
  C  177  1  0.88718400  0.61005100  0.47253100  1
  C  178  1  0.88172900  0.65467200  0.43642300  1
  C  179  1  0.89830200  0.76021467  0.43000900  1
  C  184  1  0.38014000  0.93807700  0.99189400  1
  C  185  1  0.49751500  0.82554800  0.99969200  1
  C  186  1  0.49806900  0.70993200  0.00520900  1
  C  187  1  0.38245800  0.70718900  0.00354300  1
  C  188  1  0.26696700  0.81896667  0.99513800  1
  C  189  1  0.26550500  0.93465000  0.98986300  1
  C  191  1  0.72518900  0.59980567  0.01396900  1
  C  192  1  0.72521200  0.71567833  0.00940500  1
  C  196  1  0.83999300  0.48579133  0.02086200  1
  C  197  1  0.95564000  0.48623500  0.02329800  1
  C  198  1  0.95638400  0.60121167  0.01911900  1
  C  199  1  0.84166900  0.71514833  0.01224300  1
  C  204  1  0.94045400  0.69262033  0.32524400  1
  C  205  1  0.82786800  0.68781500  0.33299100  1
  C  206  1  0.71214700  0.80290433  0.33841400  1
  C  207  1  0.70937700  0.92126333  0.33674300  1
  C  208  1  0.82118900  0.92495667  0.32838300  1
  C  209  1  0.93695900  0.81069767  0.32317700  1
  C  211  1  0.60204800  0.68590333  0.34716200  1
  C  212  1  0.71802600  0.56998700  0.34271600  1
  C  216  1  0.48799800  0.68512233  0.35399800  1
  C  217  1  0.48852000  0.56901833  0.35650500  1
  C  218  1  0.60360600  0.45328000  0.35244800  1
  C  219  1  0.71757800  0.45405467  0.34563400  1
  C  224  1  0.69525300  0.37773700  0.65851200  1
  C  225  1  0.69042400  0.49519700  0.66625000  1
  C  226  1  0.80551600  0.49592900  0.67154700  1
  C  227  1  0.92386000  0.38035933  0.66981000  1
  C  228  1  0.92759900  0.26473900  0.66152700  1
  C  229  1  0.81334500  0.26314600  0.65642600  1
  C  231  1  0.68849700  0.72305533  0.68035600  1
  C  232  1  0.57257600  0.72291500  0.67602300  1
  C  236  1  0.68769700  0.83795567  0.68715800  1
  C  237  1  0.57158300  0.95352367  0.68973700  1
  C  238  1  0.45585200  0.95410033  0.68578700  1
  C  239  1  0.45663400  0.83929967  0.67900400  1
  H  26  1  0.40560600  0.56309267  0.94739200  1
  H  27  1  0.54436800  0.34027967  0.94860600  1
  H  28  1  0.41025000  0.57265533  0.06358000  1
  H  29  1  0.54720500  0.34853400  0.06500900  1
  H  30  1  0.48079000  0.17726967  0.05387600  1
  H  31  1  0.34155100  0.09599067  0.04600600  1
  H  32  1  0.44354600  0.02629433  0.93383900  1
  H  33  1  0.57622800  0.11604933  0.94101100  1
  H  34  1  0.78602500  0.95089200  0.96910100  1
  H  35  1  0.93093200  0.88793533  0.91980800  1
  H  36  1  0.92877500  0.23686867  0.92716800  1
  H  37  1  0.78053200  0.30021900  0.97640000  1
  H  38  1  0.80165000  0.25055000  0.04591000  1
  H  39  1  0.70123300  0.96476367  0.04945300  1
  H  40  1  0.82110300  0.88287167  0.10422300  1
  H  41  1  0.92325500  0.16847367  0.10033600  1
  H  67  1  0.56531700  0.04148367  0.28061300  1
  H  68  1  0.34254000  0.12542667  0.28189000  1
  H  69  1  0.57469700  0.02911700  0.39680100  1
  H  70  1  0.35051500  0.11611500  0.39829600  1
  H  71  1  0.17904400  0.35315033  0.38729000  1
  H  72  1  0.09807300  0.57337667  0.37947500  1
  H  73  1  0.02956000  0.54023400  0.26716500  1
  H  74  1  0.11894300  0.31811600  0.27437500  1
  H  75  1  0.95305500  0.27427167  0.30241200  1
  H  76  1  0.88995100  0.19224300  0.25312900  1
  H  77  1  0.23842100  0.84511600  0.26045400  1
  H  78  1  0.30191300  0.93003800  0.30968800  1
  H  79  1  0.25302300  0.95872767  0.37916400  1
  H  80  1  0.96698300  0.34483433  0.38295500  1
  H  81  1  0.88548300  0.30680567  0.43778300  1
  H  82  1  0.17128800  0.91912867  0.43361700  1
  H  108  1  0.04405100  0.40424000  0.61371800  1
  H  109  1  0.12814500  0.54286433  0.61510300  1
  H  110  1  0.03110100  0.40766967  0.72991200  1
  H  111  1  0.11814200  0.54470533  0.73149533  1
  H  112  1  0.35512100  0.47888267  0.72065400  1
  H  113  1  0.57542700  0.33957133  0.71297400  1
  H  114  1  0.54359900  0.44026700  0.60066400  1
  H  115  1  0.32144800  0.57309600  0.60773100  1
  H  116  1  0.27743400  0.78302800  0.63574100  1
  H  117  1  0.19575800  0.92801500  0.58649300  1
  H  118  1  0.84820400  0.92747600  0.59379300  1
  H  119  1  0.93282400  0.77912000  0.64295900  1
  H  120  1  0.96109400  0.79945700  0.71244000  1
  H  121  1  0.34720200  0.69935667  0.71625500  1
  H  122  1  0.30900300  0.81924600  0.77108000  1
  H  123  1  0.92132400  0.92113000  0.76691800  1
  H  134  1  0.22417800  0.77266967  0.83638400  1
  H  135  1  0.15646300  0.84465400  0.89747700  1
  H  140  1  0.64112100  0.46149100  0.86200300  1
  H  141  1  0.53515100  0.60293533  0.81044000  1
  H  142  1  0.61201100  0.53510967  0.74822400  1
  H  143  1  0.79421000  0.32445200  0.73715400  1
  H  154  1  0.77462300  0.01411467  0.16964600  1
  H  155  1  0.84636900  0.00984967  0.23072300  1
  H  160  1  0.46313300  0.90890833  0.19541000  1
  H  161  1  0.60456000  0.87399600  0.14386300  1
  H  162  1  0.53685400  0.86525833  0.08160300  1
  H  163  1  0.32635100  0.89340033  0.07048400  1
  H  174  1  0.01756000  0.22180467  0.50311000  1
  H  175  1  0.01363100  0.15410800  0.56419500  1
  H  180  1  0.91121500  0.63924300  0.52863400  1
  H  181  1  0.87548300  0.53318933  0.47705700  1
  H  182  1  0.86630400  0.60984700  0.41485100  1
  H  183  1  0.89485200  0.79194133  0.40380700  1
  H  194  1  0.18075100  0.01579700  0.98451300  1
  H  195  1  0.18372200  0.81691467  0.99292300  1
  H  200  1  0.84024700  0.40239000  0.02412100  1
  H  201  1  0.03886700  0.40330467  0.02835500  1
  H  202  1  0.04021100  0.60204400  0.02117800  1
  H  203  1  0.84450600  0.79702467  0.00985900  1
  H  214  1  0.01813500  0.81429000  0.31786400  1
  H  215  1  0.81911900  0.01025200  0.32616900  1
  H  220  1  0.40451400  0.76827700  0.35716300  1
  H  221  1  0.40555400  0.56873367  0.36150200  1
  H  222  1  0.60448400  0.36862100  0.35454800  1
  H  223  1  0.79951800  0.36933733  0.34333300  1
  H  234  1  0.81694000  0.17829933  0.65120100  1
  H  235  1  0.01289900  0.18149333  0.65932200  1
  H  240  1  0.77084700  0.83834000  0.69024900  1
  H  241  1  0.57128800  0.03681133  0.69472600  1
  H  242  1  0.37118100  0.03787433  0.68794800  1
  H  243  1  0.37191400  0.84203867  0.67678300  1
  N  130  1  0.84198700  0.22906133  0.85738000  1
  N  133  1  0.92446700  0.15070000  0.78804800  1
  N  150  1  0.23085000  0.94014267  0.19072200  1
  N  153  1  0.15266300  0.93620033  0.12135100  1
  N  170  1  0.94293900  0.83997867  0.52403100  1
  N  173  1  0.93858800  0.92229900  0.45471500  1
  N  190  1  0.61228400  0.60259367  0.01177200  1
  N  193  1  0.61172200  0.82276967  0.00237700  1
  N  210  1  0.60478000  0.79603267  0.34492400  1
  N  213  1  0.82514700  0.57637467  0.33573000  1
  N  230  1  0.79864100  0.61021967  0.67803800  1
  N  233  1  0.57897800  0.60934300  0.66906900  1
