# generated using pymatgen
data_Nb3CuH3C5S3(N2Cl3)2
_symmetry_space_group_name_H-M   'P 1'
_cell_length_a   12.29038000
_cell_length_b   12.74989000
_cell_length_c   19.60238000
_cell_angle_alpha   89.96336000
_cell_angle_beta   86.87651000
_cell_angle_gamma   89.85033000
_symmetry_Int_Tables_number   1
_chemical_formula_structural   Nb3CuH3C5S3(N2Cl3)2
_chemical_formula_sum   'Nb12 Cu4 H12 C20 S12 N16 Cl24'
_cell_volume   3067.13827840
_cell_formula_units_Z   4
loop_
 _symmetry_equiv_pos_site_id
 _symmetry_equiv_pos_as_xyz
  1  'x, y, z'
loop_
 _atom_site_type_symbol
 _atom_site_label
 _atom_site_symmetry_multiplicity
 _atom_site_fract_x
 _atom_site_fract_y
 _atom_site_fract_z
 _atom_site_occupancy
  Nb  Nb0  1  0.11751000  0.11169000  0.92569000  1
  Nb  Nb1  1  0.14042000  0.86126000  0.99948000  1
  Nb  Nb2  1  0.93025000  0.91761000  0.89966000  1
  Nb  Nb3  1  0.38152000  0.61198000  0.57428000  1
  Nb  Nb4  1  0.36068000  0.36143000  0.50049000  1
  Nb  Nb5  1  0.57001000  0.41794000  0.60033000  1
  Nb  Nb6  1  0.88227000  0.88798000  0.07439000  1
  Nb  Nb7  1  0.85952000  0.13870000  0.00065000  1
  Nb  Nb8  1  0.06965000  0.08214000  0.10046000  1
  Nb  Nb9  1  0.61843000  0.38829000  0.42574000  1
  Nb  Nb10  1  0.63966000  0.63876000  0.49971000  1
  Nb  Nb11  1  0.43007000  0.58224000  0.39968000  1
  Cu  Cu12  1  0.53033000  0.25623000  0.85800000  1
  Cu  Cu13  1  0.96761000  0.75582000  0.64193000  1
  Cu  Cu14  1  0.46995000  0.74327000  0.14174000  1
  Cu  Cu15  1  0.03222000  0.24422000  0.35827000  1
  H  H16  1  0.58384000  0.87129000  0.87880000  1
  H  H17  1  0.47444000  0.87504000  0.94359000  1
  H  H18  1  0.61164000  0.90990000  0.96333000  1
  H  H19  1  0.91673000  0.37213000  0.62135000  1
  H  H20  1  0.02662000  0.37602000  0.55691000  1
  H  H21  1  0.88924000  0.41009000  0.53661000  1
  H  H22  1  0.41596000  0.12807000  0.12127000  1
  H  H23  1  0.52560000  0.12439000  0.05654000  1
  H  H24  1  0.38842000  0.08928000  0.03666000  1
  H  H25  1  0.08384000  0.62789000  0.37873000  1
  H  H26  1  0.97376000  0.62424000  0.44310000  1
  H  H27  1  0.11107000  0.58994000  0.46354000  1
  C  C28  1  0.29663000  0.25073000  0.83679000  1
  C  C29  1  0.34394000  0.70240000  0.02287000  1
  C  C30  1  0.83459000  0.81539000  0.76260000  1
  C  C31  1  0.52906000  0.02081000  0.90734000  1
  C  C32  1  0.55036000  0.91292000  0.92443000  1
  C  C33  1  0.20161000  0.75029000  0.66344000  1
  C  C34  1  0.15883000  0.20209000  0.47690000  1
  C  C35  1  0.66465000  0.31564000  0.73780000  1
  C  C36  1  0.97026000  0.52158000  0.59249000  1
  C  C37  1  0.95015000  0.41359000  0.57570000  1
  C  C38  1  0.70332000  0.74886000  0.16342000  1
  C  C39  1  0.65607000  0.29745000  0.97702000  1
  C  C40  1  0.16531000  0.18452000  0.23745000  1
  C  C41  1  0.47104000  0.97853000  0.09274000  1
  C  C42  1  0.44963000  0.08645000  0.07566000  1
  C  C43  1  0.79826000  0.24994000  0.33657000  1
  C  C44  1  0.84163000  0.79802000  0.52312000  1
  C  C45  1  0.33534000  0.68424000  0.26212000  1
  C  C46  1  0.02990000  0.47847000  0.40760000  1
  C  C47  1  0.05022000  0.58649000  0.42438000  1
  S  S48  1  0.39250000  0.31933000  0.79665000  1
  S  S49  1  0.44799000  0.63604000  0.04933000  1
  S  S50  1  0.79274000  0.76074000  0.69352000  1
  S  S51  1  0.10500000  0.81861000  0.70335000  1
  S  S52  1  0.05535000  0.13590000  0.45012000  1
  S  S53  1  0.70572000  0.25946000  0.80668000  1
  S  S54  1  0.60743000  0.68011000  0.20346000  1
  S  S55  1  0.55196000  0.36351000  0.95033000  1
  S  S56  1  0.20701000  0.23923000  0.30655000  1
  S  S57  1  0.89485000  0.18140000  0.29680000  1
  S  S58  1  0.94504000  0.86420000  0.55003000  1
  S  S59  1  0.29449000  0.73986000  0.19300000  1
  N  N60  1  0.22542000  0.20252000  0.86543000  1
  N  N61  1  0.26904000  0.75327000  0.00591000  1
  N  N62  1  0.86427000  0.85268000  0.81387000  1
  N  N63  1  0.51222000  0.10825000  0.89434000  1
  N  N64  1  0.27354000  0.70254000  0.63492000  1
  N  N65  1  0.23314000  0.25299000  0.49427000  1
  N  N66  1  0.63541000  0.35372000  0.68660000  1
  N  N67  1  0.98654000  0.60912000  0.60517000  1
  N  N68  1  0.77449000  0.79719000  0.13481000  1
  N  N69  1  0.73101000  0.24682000  0.99420000  1
  N  N70  1  0.13569000  0.14717000  0.18619000  1
  N  N71  1  0.48797000  0.89104000  0.10559000  1
  N  N72  1  0.72636000  0.29783000  0.36500000  1
  N  N73  1  0.76730000  0.74713000  0.50575000  1
  N  N74  1  0.36452000  0.64640000  0.31342000  1
  N  N75  1  0.01343000  0.39097000  0.39493000  1
  Cl  Cl76  1  0.97593000  0.25282000  0.92274000  1
  Cl  Cl77  1  0.19435000  0.19773000  0.02782000  1
  Cl  Cl78  1  0.26441000  0.97369000  0.92471000  1
  Cl  Cl79  1  0.04656000  0.03058000  0.82068000  1
  Cl  Cl80  1  0.21486000  0.94509000  0.10268000  1
  Cl  Cl81  1  0.07203000  0.77567000  0.89573000  1
  Cl  Cl82  1  0.52237000  0.75315000  0.57723000  1
  Cl  Cl83  1  0.30448000  0.69801000  0.47204000  1
  Cl  Cl84  1  0.23552000  0.47381000  0.57495000  1
  Cl  Cl85  1  0.45279000  0.53042000  0.67924000  1
  Cl  Cl86  1  0.28575000  0.44489000  0.39712000  1
  Cl  Cl87  1  0.42911000  0.27575000  0.60430000  1
  Cl  Cl88  1  0.02411000  0.74701000  0.07732000  1
  Cl  Cl89  1  0.80558000  0.80205000  0.97225000  1
  Cl  Cl90  1  0.73555000  0.02612000  0.07528000  1
  Cl  Cl91  1  0.95329000  0.96933000  0.17939000  1
  Cl  Cl92  1  0.78507000  0.05497000  0.89743000  1
  Cl  Cl93  1  0.92789000  0.22429000  0.10444000  1
  Cl  Cl94  1  0.47780000  0.24703000  0.42296000  1
  Cl  Cl95  1  0.69558000  0.30213000  0.52800000  1
  Cl  Cl96  1  0.76466000  0.52627000  0.42528000  1
  Cl  Cl97  1  0.54711000  0.46960000  0.32081000  1
  Cl  Cl98  1  0.71431000  0.55518000  0.60305000  1
  Cl  Cl99  1  0.57095000  0.72438000  0.39587000  1
