# generated using pymatgen
data_AlH12C22O5
_symmetry_space_group_name_H-M   'P 1'
_cell_length_a   13.16656000
_cell_length_b   15.86416000
_cell_length_c   30.19223000
_cell_angle_alpha   89.92936000
_cell_angle_beta   88.97337000
_cell_angle_gamma   88.42686000
_symmetry_Int_Tables_number   1
_chemical_formula_structural   AlH12C22O5
_chemical_formula_sum   'Al8 H96 C176 O40'
_cell_volume   6303.05412658
_cell_formula_units_Z   8
loop_
 _symmetry_equiv_pos_site_id
 _symmetry_equiv_pos_as_xyz
  1  'x, y, z'
loop_
 _atom_site_type_symbol
 _atom_site_label
 _atom_site_symmetry_multiplicity
 _atom_site_fract_x
 _atom_site_fract_y
 _atom_site_fract_z
 _atom_site_occupancy
  Al  Al1  1  0.86802000  0.99807000  0.25078000  1.0
  Al  Al2  1  0.63039000  0.00271000  0.74935000  1.0
  Al  Al3  1  0.87984000  0.00059000  0.75078000  1.0
  Al  Al4  1  0.61786000  0.99717000  0.24994000  1.0
  Al  Al5  1  0.36822000  0.99850000  0.25038000  1.0
  Al  Al6  1  0.38030000  0.99984000  0.74882000  1.0
  Al  Al7  1  0.11872000  0.99987000  0.24899000  1.0
  Al  Al8  1  0.12992000  0.99775000  0.74899000  1.0
  H  H1  1  0.75407000  0.71437000  0.04092000  1.0
  H  H2  1  0.74650000  0.49998000  0.15313000  1.0
  H  H3  1  0.76074000  0.96881000  0.69565000  1.0
  H  H4  1  0.75437000  0.71441000  0.95954000  1.0
  H  H5  1  0.74829000  0.50013000  0.84767000  1.0
  H  H6  1  0.73898000  0.28567000  0.95993000  1.0
  H  H7  1  0.73855000  0.28565000  0.04124000  1.0
  H  H8  1  0.00338000  0.71467000  0.53939000  1.0
  H  H9  1  0.00432000  0.50101000  0.65214000  1.0
  H  H10  1  0.00036000  0.71396000  0.45810000  1.0
  H  H11  1  0.99066000  0.49865000  0.34686000  1.0
  H  H12  1  0.98808000  0.28510000  0.45966000  1.0
  H  H13  1  0.99194000  0.28574000  0.54093000  1.0
  H  H14  1  0.84293000  0.69815000  0.39813000  1.0
  H  H15  1  0.84722000  0.82859000  0.35141000  1.0
  H  H16  1  0.64659000  0.63007000  0.35108000  1.0
  H  H17  1  0.64628000  0.76309000  0.30636000  1.0
  H  H18  1  0.90537000  0.76555000  0.18796000  1.0
  H  H19  1  0.59870000  0.82718000  0.15136000  1.0
  H  H20  1  0.59584000  0.69708000  0.10455000  1.0
  H  H21  1  0.90145000  0.63303000  0.14317000  1.0
  H  H22  1  0.89295000  0.17133000  0.14808000  1.0
  H  H23  1  0.89660000  0.30209000  0.10202000  1.0
  H  H24  1  0.59187000  0.36715000  0.14603000  1.0
  H  H25  1  0.58715000  0.23414000  0.19036000  1.0
  H  H26  1  0.64246000  0.16791000  0.35152000  1.0
  H  H27  1  0.83899000  0.36845000  0.35586000  1.0
  H  H28  1  0.83284000  0.23541000  0.31179000  1.0
  H  H29  1  0.64733000  0.29882000  0.39709000  1.0
  H  H30  1  0.66880000  0.76805000  0.68672000  1.0
  H  H31  1  0.85441000  0.82986000  0.64869000  1.0
  H  H32  1  0.66477000  0.63497000  0.64258000  1.0
  H  H33  1  0.85077000  0.70017000  0.60219000  1.0
  H  H34  1  0.85400000  0.37020000  0.64938000  1.0
  H  H35  1  0.85297000  0.23714000  0.69397000  1.0
  H  H36  1  0.65657000  0.17759000  0.65269000  1.0
  H  H37  1  0.66239000  0.30823000  0.60606000  1.0
  H  H38  1  0.89776000  0.17076000  0.85383000  1.0
  H  H39  1  0.89700000  0.30097000  0.90024000  1.0
  H  H40  1  0.59865000  0.23673000  0.80863000  1.0
  H  H41  1  0.59928000  0.36954000  0.85327000  1.0
  H  H42  1  0.60080000  0.82820000  0.85190000  1.0
  H  H43  1  0.90639000  0.76459000  0.80973000  1.0
  H  H44  1  0.90131000  0.63178000  0.85444000  1.0
  H  H45  1  0.59708000  0.69825000  0.89859000  1.0
  H  H46  1  0.24138000  0.96600000  0.30441000  1.0
  H  H47  1  0.26192000  0.71378000  0.03881000  1.0
  H  H48  1  0.25089000  0.50098000  0.15171000  1.0
  H  H49  1  0.26336000  0.71287000  0.95743000  1.0
  H  H50  1  0.25540000  0.49721000  0.84622000  1.0
  H  H51  1  0.24714000  0.28418000  0.95914000  1.0
  H  H52  1  0.24636000  0.28504000  0.04046000  1.0
  H  H53  1  0.50599000  0.96541000  0.80366000  1.0
  H  H54  1  0.51602000  0.71532000  0.53858000  1.0
  H  H55  1  0.51267000  0.50385000  0.65248000  1.0
  H  H56  1  0.50997000  0.71319000  0.45732000  1.0
  H  H57  1  0.49254000  0.49613000  0.34740000  1.0
  H  H58  1  0.49607000  0.28443000  0.46117000  1.0
  H  H59  1  0.50098000  0.28663000  0.54248000  1.0
  H  H60  1  0.34509000  0.69363000  0.39981000  1.0
  H  H61  1  0.34323000  0.82380000  0.35306000  1.0
  H  H62  1  0.14555000  0.62954000  0.35267000  1.0
  H  H63  1  0.15111000  0.76213000  0.30792000  1.0
  H  H64  1  0.40423000  0.76624000  0.18814000  1.0
  H  H65  1  0.10094000  0.82833000  0.14709000  1.0
  H  H66  1  0.10126000  0.69796000  0.10041000  1.0
  H  H67  1  0.40318000  0.63329000  0.14364000  1.0
  H  H68  1  0.39689000  0.17024000  0.14690000  1.0
  H  H69  1  0.40142000  0.30003000  0.10024000  1.0
  H  H70  1  0.10057000  0.37117000  0.14697000  1.0
  H  H71  1  0.09460000  0.23889000  0.19188000  1.0
  H  H72  1  0.13663000  0.16866000  0.35057000  1.0
  H  H73  1  0.34212000  0.36443000  0.35853000  1.0
  H  H74  1  0.33629000  0.23090000  0.31469000  1.0
  H  H75  1  0.14140000  0.29929000  0.39688000  1.0
  H  H76  1  0.15816000  0.76410000  0.68804000  1.0
  H  H77  1  0.36413000  0.83171000  0.64797000  1.0
  H  H78  1  0.15327000  0.63163000  0.64333000  1.0
  H  H79  1  0.36122000  0.70070000  0.60182000  1.0
  H  H80  1  0.35168000  0.36840000  0.64302000  1.0
  H  H81  1  0.34517000  0.23586000  0.68786000  1.0
  H  H82  1  0.15217000  0.17113000  0.64446000  1.0
  H  H83  1  0.15163000  0.30141000  0.59790000  1.0
  H  H84  1  0.40007000  0.16814000  0.84947000  1.0
  H  H85  1  0.40481000  0.29907000  0.89550000  1.0
  H  H86  1  0.09433000  0.23236000  0.81244000  1.0
  H  H87  1  0.10002000  0.36528000  0.85658000  1.0
  H  H88  1  0.10879000  0.82632000  0.85022000  1.0
  H  H89  1  0.41307000  0.76109000  0.80675000  1.0
  H  H90  1  0.40864000  0.62883000  0.85173000  1.0
  H  H91  1  0.10587000  0.69650000  0.89742000  1.0
  H  H92  1  0.73684000  0.03038000  0.30504000  1.0
  H  H93  1  0.00336000  0.03473000  0.80408000  1.0
  H  H94  1  0.99155000  0.03029000  0.19395000  1.0
  H  H95  1  0.25390000  0.03410000  0.69411000  1.0
  H  H96  1  0.49252000  0.03676000  0.19646000  1.0
  C  C1  1  0.75358000  0.88155000  0.19991000  1.0
  C  C2  1  0.75054000  0.65525000  0.02292000  1.0
  C  C3  1  0.74652000  0.50003000  0.02410000  1.0
  C  C4  1  0.74672000  0.57719000  0.09466000  1.0
  C  C5  1  0.74689000  0.57832000  0.04772000  1.0
  C  C6  1  0.74647000  0.49995000  0.11709000  1.0
  C  C7  1  0.83791000  0.74948000  0.16982000  1.0
  C  C8  1  0.83542000  0.67581000  0.14479000  1.0
  C  C9  1  0.66344000  0.71197000  0.12291000  1.0
  C  C10  1  0.66481000  0.78466000  0.14876000  1.0
  C  C11  1  0.75792000  0.88255000  0.80077000  1.0
  C  C12  1  0.75064000  0.65528000  0.97765000  1.0
  C  C13  1  0.74673000  0.50006000  0.97670000  1.0
  C  C14  1  0.74711000  0.57733000  0.90605000  1.0
  C  C15  1  0.74711000  0.57839000  0.95299000  1.0
  C  C16  1  0.74763000  0.50012000  0.88372000  1.0
  C  C17  1  0.74758000  0.11810000  0.80110000  1.0
  C  C18  1  0.74272000  0.34482000  0.97789000  1.0
  C  C19  1  0.74782000  0.42287000  0.90614000  1.0
  C  C20  1  0.74680000  0.42173000  0.95309000  1.0
  C  C21  1  0.74798000  0.19578000  0.82864000  1.0
  C  C22  1  0.74799000  0.34388000  0.87985000  1.0
  C  C23  1  0.75406000  0.80440000  0.82817000  1.0
  C  C24  1  0.83889000  0.74889000  0.82899000  1.0
  C  C25  1  0.83578000  0.67511000  0.85401000  1.0
  C  C26  1  0.74904000  0.65634000  0.87962000  1.0
  C  C27  1  0.66463000  0.71259000  0.87899000  1.0
  C  C28  1  0.66659000  0.78533000  0.85304000  1.0
  C  C29  1  0.73684000  0.11622000  0.19914000  1.0
  C  C30  1  0.74243000  0.34480000  0.02315000  1.0
  C  C31  1  0.74633000  0.42273000  0.09474000  1.0
  C  C32  1  0.74613000  0.42170000  0.04781000  1.0
  C  C33  1  0.73957000  0.19441000  0.17177000  1.0
  C  C34  1  0.65462000  0.24982000  0.17107000  1.0
  C  C35  1  0.65758000  0.32400000  0.14634000  1.0
  C  C36  1  0.74444000  0.34344000  0.12097000  1.0
  C  C37  1  0.82898000  0.28727000  0.12147000  1.0
  C  C38  1  0.82705000  0.21409000  0.14704000  1.0
  C  C39  1  0.75232000  0.80411000  0.17214000  1.0
  C  C40  1  0.74847000  0.65635000  0.12087000  1.0
  C  C41  1  0.66369000  0.25191000  0.82855000  1.0
  C  C42  1  0.66437000  0.32573000  0.85349000  1.0
  C  C43  1  0.83182000  0.28696000  0.88010000  1.0
  C  C44  1  0.83238000  0.21417000  0.85431000  1.0
  C  C45  1  0.00968000  0.88224000  0.69890000  1.0
  C  C46  1  0.99954000  0.65532000  0.52161000  1.0
  C  C47  1  0.99714000  0.50005000  0.52322000  1.0
  C  C48  1  0.99979000  0.57791000  0.59356000  1.0
  C  C49  1  0.99765000  0.57860000  0.54663000  1.0
  C  C50  1  0.00218000  0.50079000  0.61612000  1.0
  C  C51  1  0.00675000  0.80497000  0.67106000  1.0
  C  C52  1  0.60186000  0.75254000  0.66810000  1.0
  C  C53  1  0.59930000  0.67840000  0.64349000  1.0
  C  C54  1  0.51292000  0.65926000  0.61911000  1.0
  C  C55  1  0.91798000  0.71401000  0.62107000  1.0
  C  C56  1  0.91990000  0.78664000  0.64695000  1.0
  C  C57  1  0.00249000  0.88143000  0.29994000  1.0
  C  C58  1  0.99790000  0.65493000  0.47636000  1.0
  C  C59  1  0.99508000  0.49966000  0.47583000  1.0
  C  C60  1  0.99235000  0.57632000  0.40502000  1.0
  C  C61  1  0.99395000  0.57780000  0.45194000  1.0
  C  C62  1  0.99176000  0.49892000  0.38289000  1.0
  C  C63  1  0.99411000  0.65527000  0.37852000  1.0
  C  C64  1  0.98157000  0.11574000  0.30168000  1.0
  C  C65  1  0.99226000  0.34442000  0.47743000  1.0
  C  C66  1  0.99284000  0.42182000  0.40548000  1.0
  C  C67  1  0.99444000  0.42113000  0.45242000  1.0
  C  C68  1  0.99977000  0.80350000  0.32737000  1.0
  C  C69  1  0.58055000  0.74663000  0.32659000  1.0
  C  C70  1  0.58045000  0.67278000  0.35159000  1.0
  C  C71  1  0.91027000  0.71217000  0.37832000  1.0
  C  C72  1  0.91245000  0.78507000  0.35253000  1.0
  C  C73  1  0.00090000  0.11795000  0.69926000  1.0
  C  C74  1  0.99443000  0.34478000  0.52268000  1.0
  C  C75  1  0.00191000  0.42335000  0.59400000  1.0
  C  C76  1  0.99891000  0.42190000  0.54710000  1.0
  C  C77  1  0.50017000  0.19858000  0.67244000  1.0
  C  C78  1  0.91822000  0.25245000  0.67317000  1.0
  C  C79  1  0.91905000  0.32634000  0.64821000  1.0
  C  C80  1  0.00269000  0.34448000  0.62054000  1.0
  C  C81  1  0.59311000  0.29233000  0.62406000  1.0
  C  C82  1  0.59008000  0.21937000  0.64976000  1.0
  C  C83  1  0.48899000  0.19147000  0.33043000  1.0
  C  C84  1  0.90009000  0.25023000  0.33037000  1.0
  C  C85  1  0.90380000  0.32435000  0.35497000  1.0
  C  C86  1  0.99034000  0.34252000  0.37948000  1.0
  C  C87  1  0.57933000  0.28410000  0.37896000  1.0
  C  C88  1  0.57675000  0.21085000  0.35364000  1.0
  C  C89  1  0.25317000  0.88281000  0.19793000  1.0
  C  C90  1  0.25844000  0.65445000  0.02098000  1.0
  C  C91  1  0.25444000  0.49923000  0.02267000  1.0
  C  C92  1  0.25225000  0.57744000  0.09298000  1.0
  C  C93  1  0.25407000  0.57786000  0.04603000  1.0
  C  C94  1  0.25199000  0.50047000  0.11565000  1.0
  C  C95  1  0.33813000  0.75015000  0.16911000  1.0
  C  C96  1  0.33728000  0.67627000  0.14421000  1.0
  C  C97  1  0.16742000  0.71281000  0.11975000  1.0
  C  C98  1  0.16706000  0.78567000  0.14556000  1.0
  C  C99  1  0.26369000  0.87976000  0.79856000  1.0
  C  C100  1  0.25924000  0.65393000  0.97571000  1.0
  C  C101  1  0.25506000  0.49870000  0.97525000  1.0
  C  C102  1  0.25553000  0.57514000  0.90433000  1.0
  C  C103  1  0.25561000  0.57676000  0.95128000  1.0
  C  C104  1  0.25544000  0.49760000  0.88226000  1.0
  C  C105  1  0.24426000  0.11425000  0.80109000  1.0
  C  C106  1  0.25078000  0.34351000  0.97694000  1.0
  C  C107  1  0.25513000  0.42059000  0.90493000  1.0
  C  C108  1  0.25477000  0.42011000  0.95188000  1.0
  C  C109  1  0.24666000  0.19213000  0.82858000  1.0
  C  C110  1  0.25270000  0.34103000  0.87905000  1.0
  C  C111  1  0.26148000  0.80188000  0.82612000  1.0
  C  C112  1  0.34609000  0.74612000  0.82654000  1.0
  C  C113  1  0.34333000  0.67241000  0.85166000  1.0
  C  C114  1  0.25717000  0.65402000  0.87774000  1.0
  C  C115  1  0.17296000  0.71059000  0.87745000  1.0
  C  C116  1  0.17442000  0.78321000  0.85141000  1.0
  C  C117  1  0.24088000  0.11813000  0.19926000  1.0
  C  C118  1  0.25037000  0.34402000  0.02221000  1.0
  C  C119  1  0.25314000  0.42289000  0.09361000  1.0
  C  C120  1  0.25385000  0.42118000  0.04665000  1.0
  C  C121  1  0.24496000  0.19612000  0.17187000  1.0
  C  C122  1  0.16146000  0.25309000  0.17184000  1.0
  C  C123  1  0.16511000  0.32680000  0.14678000  1.0
  C  C124  1  0.25101000  0.34419000  0.12031000  1.0
  C  C125  1  0.33430000  0.28669000  0.12035000  1.0
  C  C126  1  0.33188000  0.21401000  0.14631000  1.0
  C  C127  1  0.25273000  0.80510000  0.17018000  1.0
  C  C128  1  0.25223000  0.65688000  0.11901000  1.0
  C  C129  1  0.16196000  0.24776000  0.83061000  1.0
  C  C130  1  0.16547000  0.32187000  0.85523000  1.0
  C  C131  1  0.33691000  0.28450000  0.87726000  1.0
  C  C132  1  0.33450000  0.21128000  0.85184000  1.0
  C  C133  1  0.51852000  0.88602000  0.69692000  1.0
  C  C134  1  0.51091000  0.65573000  0.52113000  1.0
  C  C135  1  0.50685000  0.50057000  0.52355000  1.0
  C  C136  1  0.51077000  0.57960000  0.59344000  1.0
  C  C137  1  0.50865000  0.57949000  0.54654000  1.0
  C  C138  1  0.51150000  0.50296000  0.61645000  1.0
  C  C139  1  0.51698000  0.80802000  0.66958000  1.0
  C  C140  1  0.09114000  0.74897000  0.66938000  1.0
  C  C141  1  0.08807000  0.67533000  0.64439000  1.0
  C  C142  1  0.00182000  0.65709000  0.61969000  1.0
  C  C143  1  0.42848000  0.71556000  0.62042000  1.0
  C  C144  1  0.42988000  0.78872000  0.64588000  1.0
  C  C145  1  0.49550000  0.87925000  0.29976000  1.0
  C  C146  1  0.50762000  0.65454000  0.47591000  1.0
  C  C147  1  0.50367000  0.49929000  0.47622000  1.0
  C  C148  1  0.49733000  0.57464000  0.40515000  1.0
  C  C149  1  0.50189000  0.57697000  0.45197000  1.0
  C  C150  1  0.49570000  0.49693000  0.38339000  1.0
  C  C151  1  0.49597000  0.65326000  0.37843000  1.0
  C  C152  1  0.48613000  0.11373000  0.30286000  1.0
  C  C153  1  0.50035000  0.34407000  0.47864000  1.0
  C  C154  1  0.49817000  0.42024000  0.40634000  1.0
  C  C155  1  0.50180000  0.42036000  0.45324000  1.0
  C  C156  1  0.49485000  0.80125000  0.32711000  1.0
  C  C157  1  0.08399000  0.74733000  0.32766000  1.0
  C  C158  1  0.08057000  0.67345000  0.35260000  1.0
  C  C159  1  0.41070000  0.70865000  0.37912000  1.0
  C  C160  1  0.40956000  0.78142000  0.35321000  1.0
  C  C161  1  0.49684000  0.12029000  0.69953000  1.0
  C  C162  1  0.50302000  0.34529000  0.52387000  1.0
  C  C163  1  0.50976000  0.42529000  0.59469000  1.0
  C  C164  1  0.50757000  0.42292000  0.54783000  1.0
  C  C165  1  0.00241000  0.19620000  0.67191000  1.0
  C  C166  1  0.41416000  0.25246000  0.66991000  1.0
  C  C167  1  0.41812000  0.32628000  0.64494000  1.0
  C  C168  1  0.50726000  0.34667000  0.62145000  1.0
  C  C169  1  0.08647000  0.28752000  0.61910000  1.0
  C  C170  1  0.08691000  0.21466000  0.64499000  1.0
  C  C171  1  0.98411000  0.19389000  0.32891000  1.0
  C  C172  1  0.40410000  0.24689000  0.33259000  1.0
  C  C173  1  0.40768000  0.32113000  0.35709000  1.0
  C  C174  1  0.49507000  0.34053000  0.38074000  1.0
  C  C175  1  0.07397000  0.28536000  0.37817000  1.0
  C  C176  1  0.07151000  0.21234000  0.35263000  1.0
  O  O1  1  0.83760000  0.89994000  0.21743000  1.0
  O  O2  1  0.75665000  0.00378000  0.72197000  1.0
  O  O3  1  0.67494000  0.92526000  0.79572000  1.0
  O  O4  1  0.83065000  0.07447000  0.79746000  1.0
  O  O5  1  0.84429000  0.90127000  0.78437000  1.0
  O  O6  1  0.65054000  0.09617000  0.21549000  1.0
  O  O7  1  0.67050000  0.92444000  0.20425000  1.0
  O  O8  1  0.82042000  0.07479000  0.20440000  1.0
  O  O9  1  0.66435000  0.10010000  0.78300000  1.0
  O  O10  1  0.60390000  0.90510000  0.71335000  1.0
  O  O11  1  0.91991000  0.92423000  0.29578000  1.0
  O  O12  1  0.56953000  0.07093000  0.29765000  1.0
  O  O13  1  0.58014000  0.89920000  0.28229000  1.0
  O  O14  1  0.91615000  0.09992000  0.71747000  1.0
  O  O15  1  0.92677000  0.92539000  0.70435000  1.0
  O  O16  1  0.58006000  0.07887000  0.70464000  1.0
  O  O17  1  0.89526000  0.09564000  0.28646000  1.0
  O  O18  1  0.24136000  0.00017000  0.27778000  1.0
  O  O19  1  0.33726000  0.90078000  0.21551000  1.0
  O  O20  1  0.18027000  0.92088000  0.79339000  1.0
  O  O21  1  0.32698000  0.07159000  0.79590000  1.0
  O  O22  1  0.34983000  0.90020000  0.78204000  1.0
  O  O23  1  0.15439000  0.09885000  0.21557000  1.0
  O  O24  1  0.16994000  0.92569000  0.20213000  1.0
  O  O25  1  0.32369000  0.07558000  0.20461000  1.0
  O  O26  1  0.15896000  0.09560000  0.78451000  1.0
  O  O27  1  0.50451000  0.00043000  0.77734000  1.0
  O  O28  1  0.09467000  0.90026000  0.71550000  1.0
  O  O29  1  0.41163000  0.92118000  0.29568000  1.0
  O  O30  1  0.06515000  0.07469000  0.29553000  1.0
  O  O31  1  0.08806000  0.90042000  0.28242000  1.0
  O  O32  1  0.41041000  0.09970000  0.71570000  1.0
  O  O33  1  0.43523000  0.92814000  0.70202000  1.0
  O  O34  1  0.08409000  0.07453000  0.70243000  1.0
  O  O35  1  0.40097000  0.09552000  0.28642000  1.0
  O  O36  1  0.74114000  0.99632000  0.27839000  1.0
  O  O37  1  0.00470000  0.99903000  0.77802000  1.0
  O  O38  1  0.99399000  0.00061000  0.22199000  1.0
  O  O39  1  0.25567000  0.99930000  0.72050000  1.0
  O  O40  1  0.49416000  0.00006000  0.22215000  1.0
