# generated using pymatgen
data_CuH14(C11N6)2
_symmetry_space_group_name_H-M   'P 1'
_cell_length_a   9.11868000
_cell_length_b   16.11262915
_cell_length_c   16.12407000
_cell_angle_alpha   116.43694674
_cell_angle_beta   100.79004000
_cell_angle_gamma   101.01542719
_symmetry_Int_Tables_number   1
_chemical_formula_structural   CuH14(C11N6)2
_chemical_formula_sum   'Cu3 H42 C66 N36'
_cell_volume   1979.78572444
_cell_formula_units_Z   3
loop_
 _symmetry_equiv_pos_site_id
 _symmetry_equiv_pos_as_xyz
  1  'x, y, z'
loop_
 _atom_site_type_symbol
 _atom_site_label
 _atom_site_symmetry_multiplicity
 _atom_site_fract_x
 _atom_site_fract_y
 _atom_site_fract_z
 _atom_site_occupancy
  Cu  Cu1  1  1.00000000  0.50000000  0.00000000  1.0
  Cu  Cu2  1  0.50000000  0.50000000  0.50000000  1.0
  Cu  Cu3  1  1.00000000  1.00000000  0.50000000  1.0
  H  H1  1  0.34764000  0.36779000  0.22900000  1.0
  H  H2  1  0.08177000  0.25317000  0.10741000  1.0
  H  H3  1  0.89731000  0.29929000  0.33606000  1.0
  H  H4  1  0.89627000  0.36242000  0.62789000  1.0
  H  H5  1  0.83744000  0.37776000  0.77897000  1.0
  H  H6  1  0.22639000  0.62428000  0.95615000  1.0
  H  H7  1  0.30244000  0.61657000  0.81215000  1.0
  H  H8  1  0.97944000  0.86145000  0.63208000  1.0
  H  H9  1  0.82859000  0.85416000  0.74705000  1.0
  H  H10  1  0.59813000  0.03665000  0.70080000  1.0
  H  H11  1  0.53464000  0.26455000  0.63756000  1.0
  H  H12  1  0.45989000  0.40009000  0.62210000  1.0
  H  H13  1  0.60188000  0.33209000  0.37569000  1.0
  H  H14  1  0.68600000  0.19606000  0.38376000  1.0
  H  H15  1  0.11872000  0.77173000  0.13907000  1.0
  H  H16  1  0.97469000  0.89317000  0.14601000  1.0
  H  H17  1  0.56207000  0.66363000  0.96335000  1.0
  H  H18  1  0.26891000  0.37251000  0.73496000  1.0
  H  H19  1  0.05929000  0.22130000  0.59924000  1.0
  H  H20  1  0.26954000  0.04329000  0.66762000  1.0
  H  H21  1  0.48939000  0.18744000  0.80387000  1.0
  H  H22  1  0.65234000  0.63220000  0.77099000  1.0
  H  H23  1  0.91821000  0.74682000  0.89257000  1.0
  H  H24  1  0.10268000  0.70071000  0.66394000  1.0
  H  H25  1  0.10371000  0.63757000  0.37210000  1.0
  H  H26  1  0.16254000  0.62223000  0.22102000  1.0
  H  H27  1  0.77360000  0.37572000  0.04385000  1.0
  H  H28  1  0.69755000  0.38343000  0.18785000  1.0
  H  H29  1  0.02054000  0.13854000  0.36791000  1.0
  H  H30  1  0.17140000  0.14584000  0.25295000  1.0
  H  H31  1  0.40186000  0.96335000  0.29920000  1.0
  H  H32  1  0.46535000  0.73545000  0.36244000  1.0
  H  H33  1  0.54010000  0.59991000  0.37790000  1.0
  H  H34  1  0.39811000  0.66791000  0.62431000  1.0
  H  H35  1  0.31399000  0.80394000  0.61624000  1.0
  H  H36  1  0.88126000  0.22826000  0.86092000  1.0
  H  H37  1  0.02530000  0.10683000  0.85399000  1.0
  H  H38  1  0.43792000  0.33637000  0.03665000  1.0
  H  H39  1  0.73109000  0.62749000  0.26504000  1.0
  H  H40  1  0.94070000  0.77870000  0.40076000  1.0
  H  H41  1  0.73045000  0.95671000  0.33238000  1.0
  H  H42  1  0.51061000  0.81256000  0.19613000  1.0
  C  C1  1  0.24628000  0.35143000  0.25226000  1.0
  C  C2  1  0.09905000  0.28863000  0.18549000  1.0
  C  C3  1  0.99681000  0.31268000  0.31028000  1.0
  C  C4  1  0.14470000  0.37516000  0.37829000  1.0
  C  C5  1  0.17261000  0.42214000  0.48281000  1.0
  C  C6  1  0.15895000  0.47368000  0.62498000  1.0
  C  C7  1  0.10742000  0.48683000  0.70872000  1.0
  C  C8  1  0.97152000  0.42108000  0.69960000  1.0
  C  C9  1  0.93865000  0.42966000  0.78325000  1.0
  C  C10  1  0.15681000  0.56720000  0.88237000  1.0
  C  C11  1  0.19881000  0.56282000  0.80264000  1.0
  C  C12  1  0.89449000  0.90087000  0.64856000  1.0
  C  C13  1  0.81033000  0.89681000  0.71152000  1.0
  C  C14  1  0.68408000  0.99751000  0.68742000  1.0
  C  C15  1  0.76930000  0.00310000  0.62482000  1.0
  C  C16  1  0.75055000  0.06063000  0.57771000  1.0
  C  C17  1  0.68561000  0.15132000  0.52619000  1.0
  C  C18  1  0.62091000  0.22184000  0.51320000  1.0
  C  C19  1  0.55088000  0.27794000  0.57893000  1.0
  C  C20  1  0.50916000  0.35288000  0.57024000  1.0
  C  C21  1  0.58946000  0.31525000  0.43279000  1.0
  C  C22  1  0.63606000  0.24006000  0.43728000  1.0
  C  C23  1  0.99427000  0.74823000  0.09943000  1.0
  C  C24  1  0.91392000  0.81495000  0.10337000  1.0
  C  C25  1  0.68722000  0.68978000  0.00261000  1.0
  C  C26  1  0.76702000  0.62184000  0.99714000  1.0
  C  C27  1  0.69013000  0.51718000  0.93961000  1.0
  C  C28  1  0.53377000  0.37498000  0.84877000  1.0
  C  C29  1  0.39846000  0.29123000  0.77804000  1.0
  C  C30  1  0.27222000  0.30061000  0.72170000  1.0
  C  C31  1  0.15584000  0.21686000  0.64663000  1.0
  C  C32  1  0.27400000  0.11725000  0.68449000  1.0
  C  C33  1  0.39558000  0.19706000  0.75984000  1.0
  C  C34  1  0.75370000  0.64856000  0.74773000  1.0
  C  C35  1  0.90093000  0.71136000  0.81450000  1.0
  C  C36  1  0.00318000  0.68732000  0.68972000  1.0
  C  C37  1  0.85529000  0.62484000  0.62171000  1.0
  C  C38  1  0.82738000  0.57786000  0.51719000  1.0
  C  C39  1  0.84104000  0.52632000  0.37502000  1.0
  C  C40  1  0.89256000  0.51316000  0.29127000  1.0
  C  C41  1  0.02847000  0.57892000  0.30040000  1.0
  C  C42  1  0.06134000  0.57034000  0.21675000  1.0
  C  C43  1  0.84317000  0.43279000  0.11762000  1.0
  C  C44  1  0.80118000  0.43718000  0.19736000  1.0
  C  C45  1  0.10550000  0.09913000  0.35144000  1.0
  C  C46  1  0.18966000  0.10319000  0.28848000  1.0
  C  C47  1  0.31591000  0.00249000  0.31258000  1.0
  C  C48  1  0.23069000  0.99690000  0.37518000  1.0
  C  C49  1  0.24944000  0.93937000  0.42229000  1.0
  C  C50  1  0.31438000  0.84868000  0.47381000  1.0
  C  C51  1  0.37908000  0.77816000  0.48680000  1.0
  C  C52  1  0.44910000  0.72205000  0.42106000  1.0
  C  C53  1  0.49083000  0.64712000  0.42976000  1.0
  C  C54  1  0.41052000  0.68474000  0.56719000  1.0
  C  C55  1  0.36392000  0.75993000  0.56270000  1.0
  C  C56  1  0.00572000  0.25177000  0.90056000  1.0
  C  C57  1  0.08607000  0.18505000  0.89663000  1.0
  C  C58  1  0.31277000  0.31022000  0.99739000  1.0
  C  C59  1  0.23297000  0.37816000  0.00286000  1.0
  C  C60  1  0.30986000  0.48282000  0.06039000  1.0
  C  C61  1  0.46622000  0.62502000  0.15123000  1.0
  C  C62  1  0.60152000  0.70876000  0.22194000  1.0
  C  C63  1  0.72777000  0.69939000  0.27829000  1.0
  C  C64  1  0.84414000  0.78313000  0.35336000  1.0
  C  C65  1  0.72599000  0.88275000  0.31550000  1.0
  C  C66  1  0.60441000  0.80294000  0.24016000  1.0
  N  N1  1  0.26998000  0.39444000  0.34853000  1.0
  N  N2  1  0.97346000  0.26880000  0.21409000  1.0
  N  N3  1  0.31690000  0.48402000  0.54518000  1.0
  N  N4  1  0.31020000  0.51787000  0.63672000  1.0
  N  N5  1  0.06933000  0.41307000  0.53035000  1.0
  N  N6  1  0.03090000  0.50048000  0.87370000  1.0
  N  N7  1  0.87499000  0.95414000  0.60547000  1.0
  N  N8  1  0.70477000  0.94514000  0.73139000  1.0
  N  N9  1  0.83249000  0.06100000  0.51552000  1.0
  N  N10  1  0.79210000  0.11886000  0.48172000  1.0
  N  N11  1  0.65694000  0.11739000  0.58706000  1.0
  N  N12  1  0.53038000  0.37290000  0.49948000  1.0
  N  N13  1  0.92185000  0.65177000  0.04614000  1.0
  N  N14  1  0.75991000  0.78615000  0.05490000  1.0
  N  N15  1  0.77129000  0.45456000  0.93924000  1.0
  N  N16  1  0.67261000  0.36297000  0.88143000  1.0
  N  N17  1  0.53953000  0.46982000  0.88279000  1.0
  N  N18  1  0.15728000  0.12620000  0.62675000  1.0
  N  N19  1  0.73002000  0.60556000  0.65147000  1.0
  N  N20  1  0.02653000  0.73120000  0.78591000  1.0
  N  N21  1  0.68308000  0.51597000  0.45481000  1.0
  N  N22  1  0.68978000  0.48212000  0.36327000  1.0
  N  N23  1  0.93065000  0.58692000  0.46964000  1.0
  N  N24  1  0.96909000  0.49952000  0.12630000  1.0
  N  N25  1  0.12500000  0.04586000  0.39453000  1.0
  N  N26  1  0.29523000  0.05486000  0.26861000  1.0
  N  N27  1  0.16749000  0.93899000  0.48447000  1.0
  N  N28  1  0.20789000  0.88114000  0.51828000  1.0
  N  N29  1  0.34305000  0.88261000  0.41294000  1.0
  N  N30  1  0.46961000  0.62710000  0.50052000  1.0
  N  N31  1  0.07813000  0.34822000  0.95385000  1.0
  N  N32  1  0.24008000  0.21385000  0.94509000  1.0
  N  N33  1  0.22870000  0.54544000  0.06076000  1.0
  N  N34  1  0.32738000  0.63703000  0.11857000  1.0
  N  N35  1  0.46046000  0.53018000  0.11721000  1.0
  N  N36  1  0.84271000  0.87380000  0.37325000  1.0
