# generated using pymatgen
data_H31(C11N)4
_symmetry_space_group_name_H-M   'P 1'
_cell_length_a   9.81206667
_cell_length_b   34.48420000
_cell_length_c   34.48440000
_cell_angle_alpha   89.83140000
_cell_angle_beta   90.00000000
_cell_angle_gamma   90.00000000
_symmetry_Int_Tables_number   1
_chemical_formula_structural   H31(C11N)4
_chemical_formula_sum   'H62 C88 N8'
_cell_volume   11668.13483904
_cell_formula_units_Z   2
loop_
 _symmetry_equiv_pos_site_id
 _symmetry_equiv_pos_as_xyz
  1  'x, y, z'
loop_
 _atom_site_type_symbol
 _atom_site_label
 _atom_site_symmetry_multiplicity
 _atom_site_fract_x
 _atom_site_fract_y
 _atom_site_fract_z
 _atom_site_occupancy
  C  1  1  0.94377900  0.91762200  0.09139700  1
  C  2  1  0.94356700  0.88954500  0.06286400  1
  C  3  1  0.94545100  0.90795300  0.02671200  1
  C  5  1  0.94477900  0.95408300  0.07358600  1
  C  6  1  0.94423000  0.99022900  0.09372700  1
  C  7  1  0.94449300  0.02711700  0.07498900  1
  C  9  1  0.94440100  0.07376400  0.02902800  1
  C  10  1  0.94206700  0.09169700  0.06529300  1
  C  11  1  0.94167100  0.06310100  0.09346500  1
  C  12  1  0.94496400  0.09307200  0.99242400  1
  C  13  1  0.94616600  0.07353800  0.95597100  1
  C  15  1  0.94593200  0.02742100  0.90910000  1
  C  16  1  0.94637100  0.06388700  0.89129200  1
  C  17  1  0.94597000  0.09196100  0.91982300  1
  C  18  1  0.94530900  0.99128000  0.88895400  1
  C  19  1  0.94541200  0.95439500  0.90769300  1
  C  21  1  0.94489000  0.90774200  0.95365000  1
  C  22  1  0.94329600  0.88982100  0.91737200  1
  C  23  1  0.94294300  0.91841700  0.88920700  1
  C  24  1  0.94484500  0.88841700  0.99025000  1
  C  25  1  0.94056100  0.84670700  0.99022600  1
  C  26  1  0.81624400  0.82685100  0.98455000  1
  C  27  1  0.81187200  0.78598000  0.98342700  1
  C  28  1  0.93106000  0.76303400  0.98791800  1
  C  29  1  0.05494800  0.78329700  0.99423800  1
  C  30  1  0.05988000  0.82424200  0.99522000  1
  C  31  1  0.92581200  0.72120100  0.98552300  1
  C  32  1  0.00421900  0.69671500  0.01005600  1
  C  33  1  0.99489700  0.65581200  0.00808000  1
  C  34  1  0.90685600  0.63741500  0.98127400  1
  C  35  1  0.83016000  0.66177700  0.95636100  1
  C  36  1  0.83984900  0.70250300  0.95833100  1
  C  37  1  0.94086600  0.99201600  0.84724400  1
  C  38  1  0.81694700  0.99884300  0.82750200  1
  C  39  1  0.81217700  0.00020000  0.78663400  1
  C  40  1  0.93050100  0.99469600  0.76359000  1
  C  41  1  0.05396000  0.98726600  0.78371700  1
  C  42  1  0.05930400  0.98607300  0.82465600  1
  C  43  1  0.92509100  0.99737000  0.72178200  1
  C  44  1  0.84362000  0.02581500  0.70319800  1
  C  45  1  0.83529600  0.02850300  0.66247600  1
  C  46  1  0.90835300  0.00297500  0.63794300  1
  C  47  1  0.99121000  0.97471800  0.65633100  1
  C  48  1  0.99960800  0.97210100  0.69722600  1
  C  49  1  0.94039700  0.13476900  0.99239100  1
  C  50  1  0.06010900  0.15730100  0.98865500  1
  C  51  1  0.05461500  0.19824500  0.98937400  1
  C  52  1  0.92969400  0.21842500  0.99413400  1
  C  53  1  0.81019900  0.19540900  0.99737500  1
  C  54  1  0.81514400  0.15453500  0.99651200  1
  C  55  1  0.92386200  0.26024700  0.99651400  1
  C  56  1  0.83502600  0.27881800  0.02301300  1
  C  57  1  0.82675100  0.31953300  0.02551200  1
  C  58  1  0.90716300  0.34411200  0.00173000  1
  C  59  1  0.99714100  0.32574100  0.97539100  1
  C  60  1  0.00547600  0.28484100  0.97296900  1
  C  61  1  0.93978400  0.98952000  0.13543400  1
  C  62  1  0.05871000  0.99473400  0.15798800  1
  C  63  1  0.81537800  0.98361400  0.15521400  1
  C  64  1  0.81054700  0.98253000  0.19609400  1
  C  65  1  0.92930000  0.98733000  0.21913400  1
  C  66  1  0.05332500  0.99376500  0.19893400  1
  C  67  1  0.92349900  0.98525400  0.26100200  1
  C  68  1  0.00155300  0.00999300  0.28523000  1
  C  69  1  0.99181000  0.00833100  0.32615200  1
  C  70  1  0.90351500  0.98168600  0.34483300  1
  C  71  1  0.82707700  0.95658700  0.32074600  1
  C  72  1  0.83727900  0.95822500  0.28000100  1
  C  115  1  0.88823500  0.59713900  0.97954200  1
  C  116  1  0.89397500  0.00638200  0.59752900  1
  C  117  1  0.89345000  0.38454200  0.00509700  1
  C  118  1  0.88458900  0.98025600  0.38511700  1
  C  123  1  0.97867800  0.53259900  0.98864000  1
  C  124  1  0.85765200  0.51165600  0.99600600  1
  C  125  1  0.85562400  0.47096800  0.99586800  1
  C  126  1  0.97492500  0.44908800  0.98892400  1
  C  127  1  0.09878200  0.46953200  0.98130000  1
  C  130  1  0.10095600  0.51128500  0.98155300  1
  C  131  1  0.22716400  0.44737700  0.97337400  1
  C  135  1  0.23139400  0.53256400  0.97385000  1
  C  141  1  0.97596300  0.98940600  0.44954800  1
  C  142  1  0.85510400  0.99656600  0.47060200  1
  C  143  1  0.85379000  0.99651400  0.51129900  1
  C  144  1  0.97364400  0.98983500  0.53304500  1
  C  145  1  0.09734500  0.98243000  0.51249800  1
  C  148  1  0.09880100  0.98262600  0.47074200  1
  C  149  1  0.22628600  0.97480900  0.53454500  1
  C  153  1  0.22912500  0.97518800  0.44935800  1
  H  73  1  0.76202700  0.93664100  0.33272600  1
  H  74  1  0.78077900  0.93894900  0.26424400  1
  H  75  1  0.04763000  0.02752300  0.34222400  1
  H  76  1  0.06371700  0.03057000  0.27319600  1
  H  77  1  0.14260400  0.99680400  0.21392900  1
  H  78  1  0.15070700  0.99899600  0.14465100  1
  H  79  1  0.71756000  0.97869400  0.20895200  1
  H  80  1  0.72693600  0.98000900  0.13989100  1
  H  81  1  0.94255600  0.91180000  0.12047100  1
  H  82  1  0.94188400  0.86038000  0.06819800  1
  H  83  1  0.94722400  0.96640200  0.01532100  1
  H  84  1  0.94583000  0.01509100  0.96736700  1
  H  85  1  0.93931200  0.06822000  0.12263400  1
  H  86  1  0.94043900  0.12078900  0.07084700  1
  H  87  1  0.15271500  0.14395000  0.98579800  1
  H  88  1  0.14433600  0.21325200  0.98760000  1
  H  89  1  0.72624300  0.13920600  0.99912300  1
  H  90  1  0.71677400  0.20828700  0.00005400  1
  H  91  1  0.94544100  0.12113100  0.91449100  1
  H  92  1  0.94656200  0.06972200  0.86221700  1
  H  93  1  0.94195700  0.86073500  0.91179100  1
  H  94  1  0.94101900  0.91329500  0.86003800  1
  H  95  1  0.72888700  0.00304500  0.84285000  1
  H  96  1  0.71964800  0.00486300  0.77377400  1
  H  97  1  0.15095300  0.98116500  0.83796700  1
  H  98  1  0.14291000  0.98370300  0.76867600  1
  H  99  1  0.05852400  0.95060800  0.70899400  1
  H  100  1  0.04535600  0.95533400  0.64003300  1
  H  101  1  0.77437800  0.04967800  0.65085800  1
  H  102  1  0.79001100  0.04551400  0.71925300  1
  H  103  1  0.15188000  0.83764600  0.99918200  1
  H  104  1  0.14450500  0.76836100  0.99699900  1
  H  105  1  0.78315300  0.71847800  0.93918800  1
  H  106  1  0.76525700  0.65001800  0.93631700  1
  H  107  1  0.05101300  0.63952700  0.02711600  1
  H  108  1  0.06633000  0.70854100  0.03070300  1
  H  109  1  0.71902500  0.77305400  0.97962900  1
  H  110  1  0.72761800  0.84211600  0.98097100  1
  H  111  1  0.77598700  0.26275300  0.04150100  1
  H  112  1  0.76048100  0.33111500  0.04529600  1
  H  113  1  0.07011300  0.27310500  0.95290700  1
  H  114  1  0.05706900  0.34205300  0.95735600  1
  H  119  1  0.80099900  0.58744700  0.96849100  1
  H  120  1  0.79712600  0.96939600  0.39490900  1
  H  121  1  0.82044200  0.39446900  0.02242600  1
  H  122  1  0.82192000  0.02408600  0.58758600  1
  H  128  1  0.76452100  0.45741100  0.00071000  1
  H  129  1  0.76875600  0.52598700  0.00185300  1
  H  132  1  0.21486200  0.41597700  0.97395700  1
  H  133  1  0.30402800  0.45449100  0.99507500  1
  H  134  1  0.26607500  0.45491100  0.94469100  1
  H  136  1  0.22189400  0.56404000  0.97458500  1
  H  137  1  0.26999000  0.52506800  0.94516700  1
  H  138  1  0.30728900  0.52464500  0.99559100  1
  H  146  1  0.76284600  0.00120000  0.52497500  1
  H  147  1  0.76580500  0.00218900  0.45635600  1
  H  150  1  0.21445900  0.97540600  0.56596000  1
  H  151  1  0.30245000  0.99666500  0.52718100  1
  H  152  1  0.26584200  0.94620200  0.52716800  1
  H  154  1  0.21915200  0.97587300  0.41788600  1
  H  155  1  0.26861400  0.94659900  0.45700200  1
  H  156  1  0.30454200  0.99710300  0.45703500  1
  N  4  1  0.94636900  0.94652000  0.03489200  1
  N  8  1  0.94603200  0.03513800  0.03647500  1
  N  14  1  0.94653100  0.03497200  0.94779400  1
  N  20  1  0.94643100  0.94636900  0.94620900  1
  N  139  1  0.97878600  0.57177400  0.98935200  1
  N  140  1  0.97135800  0.40988400  0.98860900  1
  N  157  1  0.97550400  0.98993700  0.41036600  1
  N  158  1  0.97066000  0.98951700  0.57224100  1
