# generated using pymatgen
data_CaCd2H12(C2O)12
_symmetry_space_group_name_H-M   'P 1'
_cell_length_a   14.09688000
_cell_length_b   14.12927000
_cell_length_c   14.80016000
_cell_angle_alpha   61.72869000
_cell_angle_beta   65.51966000
_cell_angle_gamma   60.17809000
_symmetry_Int_Tables_number   1
_chemical_formula_structural   CaCd2H12(C2O)12
_chemical_formula_sum   'Ca2 Cd4 H24 C48 O24'
_cell_volume   2189.86969031
_cell_formula_units_Z   2
loop_
 _symmetry_equiv_pos_site_id
 _symmetry_equiv_pos_as_xyz
  1  'x, y, z'
loop_
 _atom_site_type_symbol
 _atom_site_label
 _atom_site_symmetry_multiplicity
 _atom_site_fract_x
 _atom_site_fract_y
 _atom_site_fract_z
 _atom_site_occupancy
  Ca  Ca1  1  0.74969000  0.29442000  0.25044000  1.0
  Ca  Ca2  1  0.25031000  0.70558000  0.74956000  1.0
  Cd  Cd1  1  0.97869000  0.04895000  0.36541000  1.0
  Cd  Cd2  1  0.52122000  0.39167000  0.13495000  1.0
  Cd  Cd3  1  0.02131000  0.95105000  0.63459000  1.0
  Cd  Cd4  1  0.47878000  0.60833000  0.86505000  1.0
  H  H1  1  0.57519000  0.29612000  0.50364000  1.0
  H  H2  1  0.44706000  0.43294000  0.60507000  1.0
  H  H3  1  0.70718000  0.31548000  0.75593000  1.0
  H  H4  1  0.83415000  0.17643000  0.65924000  1.0
  H  H5  1  0.83939000  0.17108000  0.04323000  1.0
  H  H6  1  0.12686000  0.86006000  0.12285000  1.0
  H  H7  1  0.92487000  0.37612000  0.99600000  1.0
  H  H8  1  0.05372000  0.48573000  0.89330000  1.0
  H  H9  1  0.79211000  0.77786000  0.74560000  1.0
  H  H10  1  0.66466000  0.66955000  0.84291000  1.0
  H  H11  1  0.66242000  0.05301000  0.45420000  1.0
  H  H12  1  0.37119000  0.10849000  0.37876000  1.0
  H  H13  1  0.42481000  0.70387000  0.49636000  1.0
  H  H14  1  0.55294000  0.56706000  0.39493000  1.0
  H  H15  1  0.29283000  0.68452000  0.24407000  1.0
  H  H16  1  0.16585000  0.82357000  0.34076000  1.0
  H  H17  1  0.16062000  0.82892000  0.95677000  1.0
  H  H18  1  0.87314000  0.13993000  0.87715000  1.0
  H  H19  1  0.07514000  0.62388000  0.00400000  1.0
  H  H20  1  0.94628000  0.51427000  0.10670000  1.0
  H  H21  1  0.20789000  0.22214000  0.25440000  1.0
  H  H22  1  0.33534000  0.33044000  0.15709000  1.0
  H  H23  1  0.33759000  0.94699000  0.54580000  1.0
  H  H24  1  0.62881000  0.89151000  0.62124000  1.0
  C  C1  1  0.71334000  0.22818000  0.57409000  1.0
  C  C2  1  0.60336000  0.29985000  0.55968000  1.0
  C  C3  1  0.53195000  0.37620000  0.61587000  1.0
  C  C4  1  0.57037000  0.38318000  0.68535000  1.0
  C  C5  1  0.67893000  0.30928000  0.70160000  1.0
  C  C6  1  0.74976000  0.23175000  0.64709000  1.0
  C  C7  1  0.79376000  0.15611000  0.50665000  1.0
  C  C8  1  0.49950000  0.47233000  0.73923000  1.0
  C  C9  1  0.96187000  0.03641000  0.19087000  1.0
  C  C10  1  0.98094000  0.01689000  0.09298000  1.0
  C  C11  1  0.90916000  0.09647000  0.02373000  1.0
  C  C12  1  0.07183000  0.92045000  0.06865000  1.0
  C  C13  1  0.78624000  0.51586000  0.92656000  1.0
  C  C14  1  0.89661000  0.46356000  0.94021000  1.0
  C  C15  1  0.96840000  0.52435000  0.88339000  1.0
  C  C16  1  0.92986000  0.63856000  0.81429000  1.0
  C  C17  1  0.82059000  0.68942000  0.79937000  1.0
  C  C18  1  0.74947000  0.62842000  0.85426000  1.0
  C  C19  1  0.70605000  0.45634000  0.99386000  1.0
  C  C20  1  0.00138000  0.71017000  0.75957000  1.0
  C  C21  1  0.53800000  0.18782000  0.30863000  1.0
  C  C22  1  0.51897000  0.08996000  0.40656000  1.0
  C  C23  1  0.59180000  0.02896000  0.47496000  1.0
  C  C24  1  0.42711000  0.06042000  0.43217000  1.0
  C  C25  1  0.28666000  0.77182000  0.42591000  1.0
  C  C26  1  0.39664000  0.70015000  0.44032000  1.0
  C  C27  1  0.46805000  0.62380000  0.38413000  1.0
  C  C28  1  0.42963000  0.61682000  0.31465000  1.0
  C  C29  1  0.32107000  0.69072000  0.29841000  1.0
  C  C30  1  0.25024000  0.76825000  0.35291000  1.0
  C  C31  1  0.20625000  0.84389000  0.49335000  1.0
  C  C32  1  0.50050000  0.52767000  0.26077000  1.0
  C  C33  1  0.03813000  0.96359000  0.80913000  1.0
  C  C34  1  0.01906000  0.98311000  0.90702000  1.0
  C  C35  1  0.09085000  0.90353000  0.97627000  1.0
  C  C36  1  0.92818000  0.07955000  0.93135000  1.0
  C  C37  1  0.21376000  0.48414000  0.07344000  1.0
  C  C38  1  0.10339000  0.53644000  0.05979000  1.0
  C  C39  1  0.03160000  0.47565000  0.11661000  1.0
  C  C40  1  0.07015000  0.36144000  0.18571000  1.0
  C  C41  1  0.17941000  0.31057000  0.20063000  1.0
  C  C42  1  0.25053000  0.37158000  0.14574000  1.0
  C  C43  1  0.29395000  0.54366000  0.00614000  1.0
  C  C44  1  0.99862000  0.28983000  0.24043000  1.0
  C  C45  1  0.46200000  0.81218000  0.69137000  1.0
  C  C46  1  0.48103000  0.91004000  0.59344000  1.0
  C  C47  1  0.40820000  0.97104000  0.52504000  1.0
  C  C48  1  0.57290000  0.93958000  0.56783000  1.0
  O  O1  1  0.77121000  0.17250000  0.42416000  1.0
  O  O2  1  0.88958000  0.07934000  0.52763000  1.0
  O  O3  1  0.54757000  0.47368000  0.79550000  1.0
  O  O4  1  0.40131000  0.53944000  0.72500000  1.0
  O  O5  1  0.02529000  0.95830000  0.25557000  1.0
  O  O6  1  0.88613000  0.12920000  0.20752000  1.0
  O  O7  1  0.72857000  0.36876000  0.07654000  1.0
  O  O8  1  0.61072000  0.49452000  0.97243000  1.0
  O  O9  1  0.95293000  0.81540000  0.70419000  1.0
  O  O10  1  0.10028000  0.66498000  0.77236000  1.0
  O  O11  1  0.47407000  0.23799000  0.24420000  1.0
  O  O12  1  0.61453000  0.22099000  0.29186000  1.0
  O  O13  1  0.22879000  0.82750000  0.57584000  1.0
  O  O14  1  0.11042000  0.92066000  0.47237000  1.0
  O  O15  1  0.45244000  0.52632000  0.20450000  1.0
  O  O16  1  0.59869000  0.46056000  0.27500000  1.0
  O  O17  1  0.97471000  0.04170000  0.74443000  1.0
  O  O18  1  0.11387000  0.87080000  0.79248000  1.0
  O  O19  1  0.27143000  0.63123000  0.92346000  1.0
  O  O20  1  0.38928000  0.50547000  0.02757000  1.0
  O  O21  1  0.04707000  0.18460000  0.29581000  1.0
  O  O22  1  0.89972000  0.33502000  0.22764000  1.0
  O  O23  1  0.52594000  0.76201000  0.75580000  1.0
  O  O24  1  0.38547000  0.77900000  0.70814000  1.0
