# generated using pymatgen
data_H3C7N
_symmetry_space_group_name_H-M   'P 1'
_cell_length_a   27.26950231
_cell_length_b   27.26950231
_cell_length_c   27.26950231
_cell_angle_alpha   60.00000000
_cell_angle_beta   60.00000000
_cell_angle_gamma   60.00000000
_symmetry_Int_Tables_number   1
_chemical_formula_structural   H3C7N
_chemical_formula_sum   'H144 C336 N48'
_cell_volume   14338.92645888
_cell_formula_units_Z   48
loop_
 _symmetry_equiv_pos_site_id
 _symmetry_equiv_pos_as_xyz
  1  'x, y, z'
loop_
 _atom_site_type_symbol
 _atom_site_label
 _atom_site_symmetry_multiplicity
 _atom_site_fract_x
 _atom_site_fract_y
 _atom_site_fract_z
 _atom_site_occupancy
  C  1  1  0.93307550  0.86329500  0.83451150  1
  C  3  1  0.83449150  0.93310500  0.86328600  1
  C  5  1  0.86327525  0.83453175  0.93312525  1
  C  7  1  0.33496000  0.83450800  0.86330550  1
  C  9  1  0.33499375  0.86325375  0.93311725  1
  C  11  1  0.33493325  0.93310375  0.83455075  1
  C  13  1  0.83452000  0.33499350  0.93304900  1
  C  15  1  0.86327875  0.33501775  0.83445075  1
  C  17  1  0.93310000  0.33500050  0.86322850  1
  C  19  1  0.86329850  0.93311650  0.33494300  1
  C  21  1  0.93309125  0.83451525  0.33499325  1
  C  23  1  0.83450575  0.86328675  0.33499775  1
  C  25  1  0.14799100  0.61963550  0.64840900  1
  C  27  1  0.14799725  0.54981775  0.61962475  1
  C  29  1  0.14797525  0.64841925  0.54981775  1
  C  31  1  0.54985900  0.64842550  0.61967250  1
  C  33  1  0.64842300  0.61964000  0.54984100  1
  C  35  1  0.61967200  0.54983500  0.64843550  1
  C  37  1  0.61966775  0.14797175  0.54980325  1
  C  39  1  0.54984175  0.14798225  0.64838575  1
  C  41  1  0.64842375  0.14797625  0.61962825  1
  C  43  1  0.64843625  0.54978625  0.14793525  1
  C  45  1  0.61967250  0.64835650  0.14799150  1
  C  47  1  0.54984750  0.61961150  0.14795450  1
  C  49  1  0.04985675  0.11964075  0.14841725  1
  C  51  1  0.14844050  0.04982750  0.11964750  1
  C  53  1  0.11966025  0.14839775  0.04980225  1
  C  55  1  0.64797750  0.14841150  0.11961300  1
  C  57  1  0.64794600  0.11966300  0.04980250  1
  C  59  1  0.64800725  0.04981425  0.14837175  1
  C  61  1  0.14840775  0.64793775  0.04987425  1
  C  63  1  0.11965075  0.64791025  0.14847325  1
  C  65  1  0.04982925  0.64793275  0.11969075  1
  C  67  1  0.11962750  0.04980050  0.64800150  1
  C  69  1  0.04983675  0.14840675  0.64794325  1
  C  71  1  0.14842175  0.11963425  0.64793925  1
  C  73  1  0.83493725  0.36329325  0.33452175  1
  C  75  1  0.83493700  0.43311200  0.36329850  1
  C  77  1  0.83496100  0.33451200  0.43310700  1
  C  79  1  0.43306950  0.33450300  0.36325600  1
  C  81  1  0.33450575  0.36329475  0.43308475  1
  C  83  1  0.36325725  0.43309425  0.33448925  1
  C  85  1  0.36325900  0.83494250  0.43313800  1
  C  87  1  0.43308375  0.83493525  0.33455375  1
  C  89  1  0.33450225  0.83493425  0.36331525  1
  C  91  1  0.33449025  0.43314425  0.83498225  1
  C  93  1  0.36326175  0.33457075  0.83492225  1
  C  95  1  0.43307650  0.36331550  0.83497500  1
  C  385  1  0.06815100  0.87721750  0.69140950  1
  C  386  1  0.08820475  0.81799425  0.69098075  1
  C  387  1  0.06710400  0.77175500  0.74096850  1
  C  388  1  0.01973775  0.78720025  0.79138225  1
  C  389  1  0.98810875  0.84787025  0.78863425  1
  C  390  1  0.01297275  0.89181825  0.73819225  1
  C  394  1  0.32905300  0.69139350  0.87727750  1
  C  395  1  0.36867675  0.69096575  0.81806125  1
  C  396  1  0.38601800  0.74096200  0.77182750  1
  C  397  1  0.36728050  0.79150350  0.78719500  1
  C  398  1  0.34117875  0.78864325  0.84789575  1
  C  399  1  0.32282625  0.73819525  0.89185975  1
  C  403  1  0.69143400  0.32903300  0.06811500  1
  C  404  1  0.69096950  0.36865550  0.08817100  1
  C  405  1  0.74099850  0.38594150  0.06709650  1
  C  406  1  0.79151875  0.36726075  0.01988025  1
  C  407  1  0.78864425  0.34120975  0.98810575  1
  C  408  1  0.73818800  0.32287950  0.01291850  1
  C  412  1  0.87724775  0.06818175  0.32901075  1
  C  413  1  0.81808750  0.08813900  0.36876950  1
  C  414  1  0.77183850  0.06709500  0.38600250  1
  C  415  1  0.78723125  0.01986075  0.36733625  1
  C  416  1  0.84790875  0.98814575  0.34119275  1
  C  417  1  0.89185600  0.01301550  0.32279050  1
  C  421  1  0.87728800  0.69134650  0.06811150  1
  C  422  1  0.81810525  0.69083825  0.08807775  1
  C  423  1  0.77183800  0.74090400  0.06706650  1
  C  424  1  0.78721425  0.79142625  0.01985225  1
  C  425  1  0.84788575  0.78862725  0.98814025  1
  C  426  1  0.89183400  0.73821850  0.01301350  1
  C  430  1  0.69141750  0.87722600  0.32904800  1
  C  431  1  0.69101850  0.81796950  0.36860400  1
  C  432  1  0.74097475  0.77176275  0.38602825  1
  C  433  1  0.79138950  0.78720100  0.36753250  1
  C  434  1  0.78863300  0.84786750  0.34125700  1
  C  435  1  0.73822975  0.89179725  0.32282025  1
  C  439  1  0.32898250  0.06821450  0.69147550  1
  C  440  1  0.36866200  0.08821700  0.69098800  1
  C  441  1  0.38605175  0.06707475  0.74095825  1
  C  442  1  0.36751200  0.01975200  0.79139700  1
  C  443  1  0.34120700  0.98812800  0.78866000  1
  C  444  1  0.32274750  0.01305050  0.73826950  1
  C  448  1  0.06821450  0.32901150  0.87718050  1
  C  449  1  0.08823375  0.36868825  0.81799525  1
  C  450  1  0.06717650  0.38597700  0.77173950  1
  C  451  1  0.01979525  0.36751075  0.78716975  1
  C  452  1  0.98814550  0.34123250  0.84783200  1
  C  453  1  0.01305800  0.32278300  0.89176450  1
  C  457  1  0.69136950  0.06817650  0.87722300  1
  C  458  1  0.69094450  0.08822500  0.81799950  1
  C  459  1  0.74093800  0.06713100  0.77176200  1
  C  460  1  0.79135250  0.01976850  0.78721000  1
  C  461  1  0.78859925  0.98813275  0.84788125  1
  C  462  1  0.73815425  0.01299825  0.89182725  1
  C  466  1  0.87723550  0.32905150  0.69137150  1
  C  467  1  0.81800425  0.36862875  0.69096325  1
  C  468  1  0.77177025  0.38596625  0.74096075  1
  C  469  1  0.78715400  0.36731350  0.79146800  1
  C  470  1  0.84785675  0.34123275  0.78859425  1
  C  471  1  0.89182150  0.32286650  0.73815250  1
  C  475  1  0.06814275  0.69141575  0.32906875  1
  C  476  1  0.08816975  0.69095425  0.36871075  1
  C  477  1  0.06708150  0.74097400  0.38601700  1
  C  478  1  0.01988900  0.79150000  0.36730800  1
  C  479  1  0.98813450  0.78863200  0.34122900  1
  C  480  1  0.01295950  0.73817700  0.32288850  1
  C  484  1  0.32904900  0.87720800  0.06818550  1
  C  485  1  0.36880250  0.81804750  0.08815000  1
  C  486  1  0.38606050  0.77178950  0.06710500  1
  C  487  1  0.36742250  0.78718500  0.01984750  1
  C  488  1  0.34126425  0.84786325  0.98813625  1
  C  489  1  0.32284050  0.89180850  0.01301600  1
  C  493  1  0.15378575  0.60566025  0.79158575  1
  C  494  1  0.11408800  0.66485600  0.79206700  1
  C  495  1  0.09687850  0.71111100  0.74199500  1
  C  496  1  0.11555525  0.69571675  0.69148775  1
  C  497  1  0.14170975  0.63504225  0.69430225  1
  C  498  1  0.16010500  0.59110150  0.74472350  1
  C  502  1  0.41475650  0.79150800  0.60573450  1
  C  503  1  0.39468475  0.79193025  0.66497425  1
  C  504  1  0.41584500  0.74197600  0.71119300  1
  C  505  1  0.46319500  0.69155250  0.69576250  1
  C  506  1  0.49482525  0.69429725  0.63509575  1
  C  507  1  0.46990175  0.74468925  0.59116625  1
  C  511  1  0.60576825  0.15395175  0.41466725  1
  C  512  1  0.66498300  0.11431600  0.39463000  1
  C  513  1  0.71119475  0.09692925  0.41577775  1
  C  514  1  0.69575025  0.11540675  0.46315275  1
  C  515  1  0.63507925  0.14169525  0.49477925  1
  C  516  1  0.59115625  0.16015875  0.46984825  1
  C  520  1  0.79153725  0.41470675  0.15388575  1
  C  521  1  0.79206125  0.39468675  0.11420075  1
  C  522  1  0.74203325  0.41572575  0.09692525  1
  C  523  1  0.69160475  0.46309975  0.11539775  1
  C  524  1  0.69433725  0.49476475  0.14166125  1
  C  525  1  0.74473000  0.46985950  0.16011250  1
  C  529  1  0.15384050  0.79156250  0.41477850  1
  C  530  1  0.11423375  0.79200375  0.39472775  1
  C  531  1  0.09689750  0.74200950  0.41581000  1
  C  532  1  0.11539850  0.69158650  0.46316500  1
  C  533  1  0.14167750  0.69433150  0.49480850  1
  C  534  1  0.16005025  0.74477075  0.46995225  1
  C  538  1  0.41476750  0.60568850  0.15386900  1
  C  539  1  0.39473225  0.66491475  0.11427125  1
  C  540  1  0.41582975  0.71114425  0.09695575  1
  C  541  1  0.46305450  0.69575250  0.11563150  1
  C  542  1  0.49478850  0.63504650  0.14172500  1
  C  543  1  0.46993850  0.59109200  0.16007950  1
  C  547  1  0.60567150  0.41478400  0.79153000  1
  C  548  1  0.66487000  0.39475250  0.79202000  1
  C  549  1  0.71112375  0.41580075  0.74198475  1
  C  550  1  0.69575925  0.46301525  0.69145875  1
  C  551  1  0.63506200  0.49478700  0.69431800  1
  C  552  1  0.59108275  0.46997175  0.74476475  1
  C  556  1  0.79150600  0.15388800  0.60569800  1
  C  557  1  0.79204225  0.11414775  0.66486825  1
  C  558  1  0.74198400  0.09691100  0.71111200  1
  C  559  1  0.69148575  0.11557025  0.69570625  1
  C  560  1  0.69431500  0.14171100  0.63502650  1
  C  561  1  0.74473600  0.16010100  0.59108500  1
  C  565  1  0.15379900  0.41483550  0.60562250  1
  C  566  1  0.11414325  0.39481475  0.66483375  1
  C  567  1  0.09693775  0.41583175  0.71109525  1
  C  568  1  0.11559025  0.46307625  0.69569825  1
  C  569  1  0.14171375  0.49480475  0.63502125  1
  C  570  1  0.16009500  0.46994600  0.59107300  1
  C  574  1  0.41477600  0.15388550  0.79151300  1
  C  575  1  0.39471875  0.11428375  0.79193075  1
  C  576  1  0.41587850  0.09686200  0.74197600  1
  C  577  1  0.46319100  0.11541050  0.69153200  1
  C  578  1  0.49481375  0.14171525  0.69426675  1
  C  579  1  0.46989950  0.16016150  0.74466400  1
  C  583  1  0.60577250  0.79140750  0.15397850  1
  C  584  1  0.66498450  0.79187150  0.11434050  1
  C  585  1  0.71120050  0.74191150  0.09692900  1
  C  586  1  0.69575850  0.69150100  0.11540250  1
  C  587  1  0.63509125  0.69424275  0.14171075  1
  C  588  1  0.59116800  0.74462800  0.16018600  1
  C  592  1  0.79152100  0.60569800  0.41475500  1
  C  593  1  0.79204450  0.66486900  0.39477350  1
  C  594  1  0.74201125  0.71112325  0.41582375  1
  C  595  1  0.69156150  0.69570450  0.46313850  1
  C  596  1  0.69430400  0.63503900  0.49479900  1
  C  597  1  0.74471375  0.59110725  0.46990075  1
  C  601  1  0.91476400  0.10573000  0.29149950  1
  C  602  1  0.89471625  0.16494875  0.29193475  1
  C  603  1  0.91583625  0.21118125  0.24195675  1
  C  604  1  0.96321050  0.19573450  0.19154550  1
  C  605  1  0.99482800  0.13506600  0.19429350  1
  C  606  1  0.96994900  0.09112400  0.24472600  1
  C  610  1  0.65389600  0.29151200  0.10565850  1
  C  611  1  0.61424125  0.29196175  0.16485925  1
  C  612  1  0.59689475  0.24196875  0.21109125  1
  C  613  1  0.61564100  0.19142300  0.19572350  1
  C  614  1  0.64175225  0.19427925  0.13502475  1
  C  615  1  0.66011275  0.24472375  0.09106125  1
  C  619  1  0.29150100  0.65388450  0.91481200  1
  C  620  1  0.29196525  0.61425825  0.89475975  1
  C  621  1  0.24193100  0.59698050  0.91583150  1
  C  622  1  0.19141125  0.61566725  0.96304325  1
  C  623  1  0.19428425  0.64172075  0.99481825  1
  C  624  1  0.24474400  0.66004750  0.97000350  1
  C  628  1  0.10563950  0.91479150  0.65383150  1
  C  629  1  0.16483275  0.89480725  0.61413825  1
  C  630  1  0.21108850  0.91583250  0.59692650  1
  C  631  1  0.19569125  0.96306275  0.61559925  1
  C  632  1  0.13501525  0.99477675  0.64174125  1
  C  633  1  0.09106950  0.96991250  0.66012250  1
  C  637  1  0.10565925  0.29156825  0.91480025  1
  C  638  1  0.16483825  0.29208525  0.89483925  1
  C  639  1  0.21110250  0.24201750  0.91585300  1
  C  640  1  0.19572250  0.19149950  0.96307850  1
  C  641  1  0.13505350  0.19429850  0.99478700  1
  C  642  1  0.09110800  0.24470150  0.96990600  1
  C  646  1  0.29144700  0.10575900  0.65394100  1
  C  647  1  0.29189475  0.16498175  0.61432225  1
  C  648  1  0.24193875  0.21117975  0.59688925  1
  C  649  1  0.19152725  0.19573475  0.61539175  1
  C  650  1  0.19428775  0.13506225  0.64168175  1
  C  651  1  0.24468375  0.09114325  0.66013325  1
  C  655  1  0.65392075  0.91473025  0.29147625  1
  C  656  1  0.61423275  0.89473575  0.29196725  1
  C  657  1  0.59686450  0.91585950  0.24198800  1
  C  658  1  0.61542450  0.96316700  0.19153800  1
  C  659  1  0.64172900  0.99479450  0.19427050  1
  C  660  1  0.66017525  0.96988125  0.24466825  1
  C  664  1  0.91474400  0.65386900  0.10571800  1
  C  665  1  0.89470950  0.61422450  0.16492200  1
  C  666  1  0.91576100  0.59694650  0.21117850  1
  C  667  1  0.96313775  0.61541775  0.19574775  1
  C  668  1  0.99478825  0.64169525  0.13508525  1
  C  669  1  0.96987825  0.66013275  0.09115375  1
  C  673  1  0.29153625  0.91472725  0.10573075  1
  C  674  1  0.29196575  0.89468175  0.16495225  1
  C  675  1  0.24198325  0.91579825  0.21118325  1
  C  676  1  0.19157800  0.96317400  0.19573050  1
  C  677  1  0.19432975  0.99479725  0.13505925  1
  C  678  1  0.24476400  0.96991500  0.09111900  1
  C  682  1  0.10570500  0.65387850  0.29154500  1
  C  683  1  0.16493900  0.61430250  0.29195150  1
  C  684  1  0.21116975  0.59696325  0.24195475  1
  C  685  1  0.19577850  0.61561050  0.19145400  1
  C  686  1  0.13507375  0.64169275  0.19433025  1
  C  687  1  0.09111325  0.66005575  0.24477375  1
  C  691  1  0.91480425  0.29152025  0.65384175  1
  C  692  1  0.89480550  0.29201850  0.61415200  1
  C  693  1  0.91585950  0.24196950  0.59690250  1
  C  694  1  0.96304200  0.19143350  0.61562350  1
  C  695  1  0.99479725  0.19429675  0.64170075  1
  C  696  1  0.96998075  0.24475175  0.66003525  1
  C  700  1  0.65378600  0.10567000  0.91479250  1
  C  701  1  0.61409550  0.16486500  0.89480000  1
  C  702  1  0.59686225  0.21112825  0.91582625  1
  C  703  1  0.61551100  0.19573100  0.96307600  1
  C  704  1  0.64166500  0.13505550  0.99478750  1
  C  705  1  0.66006625  0.09110825  0.96991575  1
  C  709  1  0.82913975  0.37726525  0.19134575  1
  C  710  1  0.86886275  0.31807625  0.19084925  1
  C  711  1  0.88606425  0.27182475  0.24092675  1
  C  712  1  0.86738325  0.28721575  0.29143775  1
  C  713  1  0.84121775  0.34789025  0.28862625  1
  C  714  1  0.82281850  0.39182700  0.23820700  1
  C  718  1  0.56822200  0.19147900  0.37714300  1
  C  719  1  0.58824475  0.19100625  0.31793675  1
  C  720  1  0.56707075  0.24095525  0.27172475  1
  C  721  1  0.51972400  0.29137950  0.28716050  1
  C  722  1  0.48810600  0.28863650  0.34782750  1
  C  723  1  0.51304350  0.23825450  0.39175100  1
  C  727  1  0.37716725  0.82899475  0.56825425  1
  C  728  1  0.31795050  0.86862650  0.58829050  1
  C  729  1  0.27173450  0.88599200  0.56715850  1
  C  730  1  0.28717900  0.86750200  0.51979200  1
  C  731  1  0.34784900  0.84122150  0.48816050  1
  C  732  1  0.39177525  0.82277425  0.51308125  1
  C  736  1  0.19134975  0.56819925  0.82908475  1
  C  737  1  0.19086100  0.58822700  0.86874200  1
  C  738  1  0.24089300  0.56719400  0.88600750  1
  C  739  1  0.29132075  0.51982425  0.86752875  1
  C  740  1  0.28858775  0.48816325  0.84125975  1
  C  741  1  0.23818800  0.51306600  0.82282150  1
  C  745  1  0.82906775  0.19139175  0.56817425  1
  C  746  1  0.86868375  0.19094525  0.58821675  1
  C  747  1  0.88604250  0.24093000  0.56711400  1
  C  748  1  0.86755425  0.29134475  0.51974825  1
  C  749  1  0.84126325  0.28860075  0.48811575  1
  C  750  1  0.82286925  0.23817225  0.51298925  1
  C  754  1  0.56816150  0.37723350  0.82905700  1
  C  755  1  0.58820650  0.31800200  0.86864500  1
  C  756  1  0.56710150  0.27177700  0.88596600  1
  C  757  1  0.51986675  0.28717375  0.86730175  1
  C  758  1  0.48813475  0.34787925  0.84120925  1
  C  759  1  0.51298500  0.39183400  0.82285400  1
  C  763  1  0.37726300  0.56813050  0.19138750  1
  C  764  1  0.31808075  0.58814075  0.19086275  1
  C  765  1  0.27181600  0.56712700  0.24092750  1
  C  766  1  0.28717575  0.51991575  0.29145975  1
  C  767  1  0.34786975  0.48813775  0.28860075  1
  C  768  1  0.39185125  0.51294725  0.23815375  1
  C  772  1  0.19133050  0.82913500  0.37728350  1
  C  773  1  0.19085925  0.86881825  0.31808325  1
  C  774  1  0.24093350  0.88602800  0.27183150  1
  C  775  1  0.29143475  0.86735125  0.28723725  1
  C  776  1  0.28860550  0.84121150  0.34791600  1
  C  777  1  0.23816975  0.82284425  0.39185775  1
  C  781  1  0.82912550  0.56810450  0.37728600  1
  C  782  1  0.86879850  0.58811350  0.31808200  1
  C  783  1  0.88599725  0.56709575  0.27182425  1
  C  784  1  0.86734850  0.51984900  0.28722300  1
  C  785  1  0.84122300  0.48812450  0.34789850  1
  C  786  1  0.82283400  0.51299000  0.39184350  1
  C  790  1  0.56821375  0.82895125  0.19150675  1
  C  791  1  0.58822725  0.86862225  0.19102475  1
  C  792  1  0.56704450  0.88606500  0.24097250  1
  C  793  1  0.51972625  0.86751675  0.29141375  1
  C  794  1  0.48811525  0.84119875  0.28867875  1
  C  795  1  0.51304500  0.82273050  0.23829250  1
  C  799  1  0.37717625  0.19149025  0.82897575  1
  C  800  1  0.31796100  0.19103250  0.86860950  1
  C  801  1  0.27174050  0.24100650  0.88599200  1
  C  802  1  0.28718000  0.29142450  0.86750050  1
  C  803  1  0.34784800  0.28868050  0.84120250  1
  C  804  1  0.39177350  0.23828550  0.82275000  1
  C  808  1  0.19136275  0.37726125  0.56813675  1
  C  809  1  0.19086575  0.31807725  0.58812675  1
  C  810  1  0.24090025  0.27181925  0.56708425  1
  C  811  1  0.29135475  0.28723525  0.51977725  1
  C  812  1  0.28861950  0.34789750  0.48812100  1
  C  813  1  0.23820475  0.39183225  0.51301625  1
  H  391  1  0.00280675  0.75453975  0.82710125  1
  H  392  1  0.99247500  0.93451050  0.73931450  1
  H  393  1  0.12444725  0.80465475  0.65702625  1
  H  400  1  0.38136975  0.82709775  0.75457825  1
  H  401  1  0.29952925  0.73930625  0.93455725  1
  H  402  1  0.37982375  0.65695625  0.80474625  1
  H  409  1  0.82712375  0.38133025  0.00283325  1
  H  410  1  0.73927975  0.29961525  0.99238575  1
  H  411  1  0.65709650  0.37958900  0.12450150  1
  H  418  1  0.75452500  0.00293050  0.38136000  1
  H  419  1  0.93459675  0.99245025  0.29961425  1
  H  420  1  0.80470425  0.12445225  0.37971925  1
  H  427  1  0.75450200  0.82704300  0.00293400  1
  H  428  1  0.93456275  0.73925225  0.99247225  1
  H  429  1  0.80474425  0.65692025  0.12434975  1
  H  436  1  0.82709650  0.75453700  0.38142550  1
  H  437  1  0.73922800  0.93453900  0.29964750  1
  H  438  1  0.65704600  0.80467000  0.37963550  1
  H  445  1  0.38139725  0.00282175  0.82710875  1
  H  446  1  0.29952450  0.99251650  0.73929600  1
  H  447  1  0.37978500  0.12438750  0.65695500  1
  H  454  1  0.00287125  0.38139775  0.75449725  1
  H  455  1  0.99247100  0.29960450  0.93449800  1
  H  456  1  0.12456050  0.37962900  0.80460000  1
  H  463  1  0.82707675  0.00285025  0.75454225  1
  H  464  1  0.73927500  0.99250300  0.93451950  1
  H  465  1  0.65698750  0.12446350  0.80465700  1
  H  472  1  0.75454125  0.38141625  0.82705375  1
  H  473  1  0.93452675  0.29960625  0.73924225  1
  H  474  1  0.80467675  0.37971075  0.65698875  1
  H  481  1  0.00283175  0.82710275  0.38138175  1
  H  482  1  0.99244825  0.73928475  0.29959375  1
  H  483  1  0.12442850  0.65702150  0.37974500  1
  H  490  1  0.38145775  0.75448275  0.00290625  1
  H  491  1  0.29965300  0.93454500  0.99245700  1
  H  492  1  0.37973750  0.80467200  0.12447000  1
  H  499  1  0.10154125  0.72842075  0.65586775  1
  H  500  1  0.18330625  0.54836475  0.74370925  1
  H  501  1  0.10309700  0.67823450  0.82596750  1
  H  508  1  0.48013250  0.65584950  0.72842650  1
  H  509  1  0.49045000  0.74366950  0.54843200  1
  H  510  1  0.35848275  0.82593575  0.67824425  1
  H  517  1  0.72841025  0.10150975  0.48009575  1
  H  518  1  0.54841925  0.18335725  0.49039675  1
  H  519  1  0.67826425  0.10324475  0.35842175  1
  H  526  1  0.65588775  0.48000475  0.10152975  1
  H  527  1  0.74368925  0.49044525  0.18329775  1
  H  528  1  0.82594600  0.35836900  0.10325250  1
  H  535  1  0.10154400  0.65586100  0.48007300  1
  H  536  1  0.18337750  0.74363500  0.49044800  1
  H  537  1  0.10316800  0.82597300  0.35849600  1
  H  544  1  0.48013725  0.72835925  0.10153475  1
  H  545  1  0.49045975  0.54838475  0.18335375  1
  H  546  1  0.35852925  0.67824975  0.10315725  1
  H  553  1  0.72838825  0.48006025  0.65585675  1
  H  554  1  0.54838725  0.49049125  0.74364925  1
  H  555  1  0.67823175  0.35845925  0.82592775  1
  H  562  1  0.65586925  0.10155025  0.72840525  1
  H  563  1  0.74374700  0.18326850  0.54833850  1
  H  564  1  0.82591075  0.10321275  0.67826275  1
  H  571  1  0.10158625  0.47999575  0.72840675  1
  H  572  1  0.18326700  0.49051750  0.54833050  1
  H  573  1  0.10319400  0.35849850  0.67821950  1
  H  580  1  0.48012000  0.10152250  0.65582450  1
  H  581  1  0.49044250  0.18337800  0.74363650  1
  H  582  1  0.35852825  0.10318575  0.82594775  1
  H  589  1  0.72841575  0.65580425  0.10148825  1
  H  590  1  0.54843350  0.74361250  0.18338700  1
  H  591  1  0.67826325  0.82586925  0.10327875  1
  H  598  1  0.65583250  0.72838550  0.48003650  1
  H  599  1  0.74367575  0.54837625  0.49047775  1
  H  600  1  0.82595050  0.67824950  0.35848850  1
  H  607  1  0.98014850  0.22839300  0.15583250  1
  H  608  1  0.99043450  0.04843650  0.24359000  1
  H  609  1  0.85845475  0.17830025  0.32587475  1
  H  616  1  0.60154900  0.15583000  0.22833950  1
  H  617  1  0.68341825  0.24360975  0.04836675  1
  H  618  1  0.60308750  0.32597600  0.17817100  1
  H  625  1  0.15580425  0.60160175  0.98009025  1
  H  626  1  0.24365675  0.68330825  0.99053825  1
  H  627  1  0.32584375  0.60331425  0.85843825  1
  H  634  1  0.22839750  0.97998700  0.60158900  1
  H  635  1  0.04833025  0.99048175  0.68329675  1
  H  636  1  0.17821900  0.85849300  0.60318600  1
  H  643  1  0.22843375  0.15588525  0.97999975  1
  H  644  1  0.04838225  0.24366225  0.99044125  1
  H  645  1  0.17820600  0.32598800  0.85854850  1
  H  652  1  0.15582225  0.22839075  0.60149275  1
  H  653  1  0.24368875  0.04839975  0.68331075  1
  H  654  1  0.32586975  0.17828075  0.60328475  1
  H  661  1  0.60155050  0.98008500  0.15582250  1
  H  662  1  0.68339625  0.99041775  0.24364225  1
  H  663  1  0.60307700  0.85859050  0.32602250  1
  H  670  1  0.98005800  0.60153700  0.22842000  1
  H  671  1  0.99046775  0.68330925  0.04841975  1
  H  672  1  0.85838000  0.60328650  0.17831850  1
  H  679  1  0.15586050  0.98010750  0.22838950  1
  H  680  1  0.24363075  0.99039925  0.04843125  1
  H  681  1  0.32590325  0.85842625  0.17830725  1
  H  688  1  0.22839050  0.60150700  0.15586550  1
  H  689  1  0.04840475  0.68332175  0.24368375  1
  H  690  1  0.17827175  0.60322925  0.32591925  1
  H  697  1  0.98008475  0.15582375  0.60156375  1
  H  698  1  0.99048450  0.24363500  0.68334300  1
  H  699  1  0.85851525  0.32592225  0.60316525  1
  H  706  1  0.60148875  0.22843575  0.98000725  1
  H  707  1  0.68325050  0.04837150  0.99048100  1
  H  708  1  0.60315775  0.17824175  0.85848175  1
  H  715  1  0.88139725  0.25451175  0.32705675  1
  H  716  1  0.79959900  0.43455900  0.23923250  1
  H  717  1  0.87983825  0.30469575  0.15695775  1
  H  724  1  0.50277800  0.32708000  0.25449850  1
  H  725  1  0.49250025  0.23927275  0.43448575  1
  H  726  1  0.62444700  0.15699750  0.30466800  1
  H  733  1  0.25452025  0.88139175  0.50285125  1
  H  734  1  0.43451550  0.79958850  0.49252500  1
  H  735  1  0.30467675  0.87972225  0.62448125  1
  H  742  1  0.32704125  0.50292175  0.88139025  1
  H  743  1  0.23923175  0.49248325  0.79963175  1
  H  744  1  0.15697300  0.62454300  0.87969550  1
  H  751  1  0.88142400  0.32706500  0.50282600  1
  H  752  1  0.79951850  0.23932100  0.49251100  1
  H  753  1  0.87972900  0.15699300  0.62446450  1
  H  760  1  0.50278125  0.25456725  0.88140225  1
  H  761  1  0.49246500  0.43454050  0.79958100  1
  H  762  1  0.62441700  0.30466450  0.87974650  1
  H  769  1  0.25454050  0.50288500  0.32706750  1
  H  770  1  0.43454600  0.49243250  0.23927550  1
  H  771  1  0.30470250  0.62447050  0.15698850  1
  H  778  1  0.32706025  0.88135475  0.25453675  1
  H  779  1  0.23916225  0.79967575  0.43460275  1
  H  780  1  0.15699050  0.87976100  0.30468750  1
  H  787  1  0.88135425  0.50292775  0.25451475  1
  H  788  1  0.79964825  0.49242825  0.43458225  1
  H  789  1  0.87972775  0.62444375  0.30468975  1
  H  796  1  0.50278475  0.88141925  0.32711575  1
  H  797  1  0.49250850  0.79951150  0.23931650  1
  H  798  1  0.62441800  0.87971650  0.15700900  1
  H  805  1  0.25452000  0.32712900  0.88140050  1
  H  806  1  0.43451475  0.23928725  0.79956675  1
  H  807  1  0.30469325  0.15701775  0.87969925  1
  H  814  1  0.32708625  0.25455325  0.50288525  1
  H  815  1  0.23924850  0.43455950  0.49244350  1
  H  816  1  0.15695550  0.30469950  0.62440850  1
  N  2  1  0.89010875  0.91797475  0.82234575  1
  N  4  1  0.82232825  0.89014475  0.91797725  1
  N  6  1  0.91794675  0.82236075  0.89013975  1
  N  8  1  0.33544150  0.82232100  0.91798000  1
  N  10  1  0.33543575  0.91794175  0.89015625  1
  N  12  1  0.33537425  0.89014375  0.82237875  1
  N  14  1  0.82234700  0.33545400  0.89008050  1
  N  16  1  0.91796250  0.33546800  0.82228350  1
  N  18  1  0.89014850  0.33542700  0.91792200  1
  N  20  1  0.91797700  0.89014450  0.33541000  1
  N  22  1  0.89012150  0.82233900  0.33546200  1
  N  24  1  0.82235100  0.91797700  0.33541900  1
  N  26  1  0.14753200  0.56496100  0.66056350  1
  N  28  1  0.14751625  0.59280325  0.56495375  1
  N  30  1  0.14751850  0.66058100  0.59279300  1
  N  32  1  0.59281250  0.66058450  0.56497850  1
  N  34  1  0.66059900  0.56495250  0.59280100  1
  N  36  1  0.56499725  0.59280775  0.66061475  1
  N  38  1  0.56498125  0.14752075  0.59276525  1
  N  40  1  0.59280200  0.14753200  0.66055850  1
  N  42  1  0.66060650  0.14750300  0.56494950  1
  N  44  1  0.66060850  0.59274550  0.14749350  1
  N  46  1  0.56498575  0.66053125  0.14753575  1
  N  48  1  0.59281725  0.56493475  0.14747475  1
  N  50  1  0.09282350  0.06495950  0.16058500  1
  N  52  1  0.16060700  0.09278300  0.06495350  1
  N  54  1  0.06499125  0.16057225  0.09278625  1
  N  56  1  0.64749875  0.16059625  0.06493725  1
  N  58  1  0.64750325  0.06497475  0.09276625  1
  N  60  1  0.64756325  0.09277675  0.16054275  1
  N  62  1  0.16058250  0.64747550  0.09284300  1
  N  64  1  0.06496625  0.64746125  0.16063875  1
  N  66  1  0.09278175  0.64750675  0.06499875  1
  N  68  1  0.06495050  0.09277500  0.64752950  1
  N  70  1  0.09280575  0.16058175  0.64747325  1
  N  72  1  0.16057425  0.06494175  0.64752525  1
  N  74  1  0.83539850  0.41796850  0.32236300  1
  N  76  1  0.83542075  0.39012825  0.41796925  1
  N  78  1  0.83541350  0.32234800  0.39013550  1
  N  80  1  0.39011675  0.32234625  0.41795075  1
  N  82  1  0.32232900  0.41798050  0.39012250  1
  N  84  1  0.41793175  0.39011875  0.32231075  1
  N  86  1  0.41794400  0.83539600  0.39017450  1
  N  88  1  0.39012450  0.83538050  0.32238300  1
  N  90  1  0.32232175  0.83540775  0.41799225  1
  N  92  1  0.32232300  0.39018400  0.83541850  1
  N  94  1  0.41794150  0.32239800  0.83538600  1
  N  96  1  0.39010850  0.41799250  0.83545100  1
