# generated using pymatgen
data_H28C41N8
_symmetry_space_group_name_H-M   'P 1'
_cell_length_a   32.46800000
_cell_length_b   37.61560000
_cell_length_c   37.61560000
_cell_angle_alpha   90.00000000
_cell_angle_beta   89.99790000
_cell_angle_gamma   90.00000000
_symmetry_Int_Tables_number   1
_chemical_formula_structural   H28C41N8
_chemical_formula_sum   'H224 C328 N64'
_cell_volume   45940.05641072
_cell_formula_units_Z   8
loop_
 _symmetry_equiv_pos_site_id
 _symmetry_equiv_pos_as_xyz
  1  'x, y, z'
loop_
 _atom_site_type_symbol
 _atom_site_label
 _atom_site_symmetry_multiplicity
 _atom_site_fract_x
 _atom_site_fract_y
 _atom_site_fract_z
 _atom_site_occupancy
  H  25  1  0.03017900  0.25231000  0.95803300  1
  H  26  1  0.04122400  0.19125000  0.96656900  1
  H  27  1  0.03360400  0.08371600  0.03227600  1
  H  28  1  0.01746400  0.04912700  0.08269400  1
  H  29  1  0.98903400  0.14131600  0.14053700  1
  H  30  1  0.99776500  0.26402600  0.06571400  1
  H  31  1  0.09359700  0.20970900  0.06743000  1
  H  32  1  0.14788800  0.19851900  0.16847500  1
  H  33  1  0.08238600  0.19410300  0.19500100  1
  H  34  1  0.92609500  0.19922000  0.06842200  1
  H  35  1  0.94706000  0.24570100  0.18749800  1
  H  36  1  0.88285500  0.25331600  0.15948500  1
  H  39  1  0.01393700  0.13980600  0.00122100  1
  H  40  1  0.06457400  0.14705600  0.01766100  1
  H  42  1  0.00237900  0.18857400  0.18455300  1
  H  43  1  0.01966100  0.23323300  0.18238500  1
  H  72  1  0.03011100  0.75502300  0.81011800  1
  H  73  1  0.04278600  0.81583800  0.80156000  1
  H  74  1  0.03770200  0.92353300  0.73594400  1
  H  75  1  0.02056400  0.95860100  0.68605800  1
  H  76  1  0.98865500  0.86719400  0.62857000  1
  H  77  1  0.99741400  0.74391600  0.70245400  1
  H  78  1  0.09370700  0.79358400  0.70138200  1
  H  79  1  0.15121400  0.80874200  0.60221400  1
  H  80  1  0.08681300  0.81711900  0.57487100  1
  H  81  1  0.92775200  0.80473100  0.69922600  1
  H  82  1  0.94961300  0.76907800  0.57660100  1
  H  83  1  0.88534400  0.75862200  0.60366100  1
  H  86  1  0.01783800  0.86789600  0.76715800  1
  H  87  1  0.06773500  0.85925100  0.74975100  1
  H  89  1  0.00660100  0.82385300  0.58378200  1
  H  90  1  0.02270800  0.77886100  0.58431800  1
  H  119  1  0.02897300  0.92980400  0.13282600  1
  H  120  1  0.04107500  0.92120400  0.07194000  1
  H  121  1  0.03611700  0.85526300  0.96446400  1
  H  122  1  0.01974800  0.80504500  0.92960900  1
  H  123  1  0.98888600  0.74750700  0.02133000  1
  H  124  1  0.99689700  0.82201600  0.14432500  1
  H  125  1  0.09307100  0.82078500  0.09232000  1
  H  126  1  0.14912400  0.72049200  0.08077200  1
  H  127  1  0.08420500  0.69342600  0.07416500  1
  H  128  1  0.92661200  0.81939800  0.08136300  1
  H  129  1  0.94670300  0.69779600  0.12106800  1
  H  130  1  0.88245500  0.72547600  0.12966000  1
  H  133  1  0.01555100  0.88645200  0.02011900  1
  H  134  1  0.06586600  0.86978100  0.02842700  1
  H  136  1  0.00437700  0.70299400  0.06673200  1
  H  137  1  0.02000000  0.70468200  0.11185100  1
  H  166  1  0.03079200  0.07846600  0.63467000  1
  H  167  1  0.04391300  0.08718000  0.69539200  1
  H  168  1  0.03845000  0.15273900  0.80309700  1
  H  169  1  0.02078700  0.20245500  0.83821100  1
  H  170  1  0.98843000  0.25981100  0.74686200  1
  H  171  1  0.99707200  0.18588400  0.62362200  1
  H  172  1  0.09372100  0.18712400  0.67237300  1
  H  173  1  0.15184000  0.28593500  0.68801100  1
  H  174  1  0.08758100  0.31342600  0.69727000  1
  H  175  1  0.92802900  0.18952500  0.68379400  1
  H  176  1  0.95028800  0.31242100  0.64933400  1
  H  177  1  0.88604600  0.28554100  0.63834100  1
  H  180  1  0.01911100  0.12139400  0.74753300  1
  H  181  1  0.06869500  0.13932800  0.73864400  1
  H  183  1  0.00722600  0.30469000  0.70412000  1
  H  184  1  0.02332000  0.30444300  0.65913600  1
  H  213  1  0.52737800  0.75329700  0.46076300  1
  H  214  1  0.54468500  0.69352900  0.47098700  1
  H  215  1  0.54769100  0.58733700  0.53977200  1
  H  216  1  0.52939600  0.55234900  0.58939900  1
  H  217  1  0.48860200  0.64345200  0.64378200  1
  H  218  1  0.49125700  0.76471500  0.56761900  1
  H  219  1  0.59345600  0.70659900  0.57245200  1
  H  220  1  0.64244900  0.71917800  0.67528200  1
  H  221  1  0.57603900  0.71757300  0.69984900  1
  H  222  1  0.42610900  0.68993000  0.57027700  1
  H  223  1  0.43484100  0.74684500  0.68580600  1
  H  224  1  0.37083300  0.74292900  0.65705900  1
  H  227  1  0.52335900  0.64074800  0.50637500  1
  H  228  1  0.57197300  0.65294300  0.52428900  1
  H  230  1  0.49911700  0.70073400  0.68876300  1
  H  231  1  0.50954900  0.74638300  0.68043600  1
  H  260  1  0.52678700  0.25591700  0.30799400  1
  H  261  1  0.54531900  0.31541700  0.29789700  1
  H  262  1  0.54973900  0.42187300  0.22963800  1
  H  263  1  0.53069200  0.45748400  0.18059200  1
  H  264  1  0.48791800  0.36736400  0.12612200  1
  H  265  1  0.49087200  0.24517700  0.20101800  1
  H  266  1  0.59291100  0.29691700  0.19762400  1
  H  267  1  0.64562100  0.29423500  0.09546800  1
  H  268  1  0.58047400  0.30140500  0.06939200  1
  H  269  1  0.42684200  0.31378500  0.19874600  1
  H  270  1  0.43834600  0.27243000  0.07693200  1
  H  271  1  0.37399900  0.27115400  0.10545800  1
  H  274  1  0.52615300  0.36853600  0.26287200  1
  H  275  1  0.57388900  0.35540100  0.24391000  1
  H  277  1  0.50288300  0.31882800  0.08060400  1
  H  278  1  0.51274600  0.27248000  0.08338200  1
  H  307  1  0.52587200  0.42803000  0.63289100  1
  H  308  1  0.54371100  0.41762200  0.57328800  1
  H  309  1  0.54886400  0.34825200  0.46759800  1
  H  310  1  0.53109600  0.29848000  0.43263600  1
  H  311  1  0.48921500  0.24438800  0.52357100  1
  H  312  1  0.49068700  0.32096300  0.64466200  1
  H  313  1  0.59338500  0.31613200  0.58594300  1
  H  314  1  0.64241200  0.21378200  0.60194100  1
  H  315  1  0.57602000  0.18909100  0.60072000  1
  H  316  1  0.42613400  0.31809700  0.56916600  1
  H  317  1  0.43406500  0.20255200  0.62622400  1
  H  318  1  0.37000200  0.23098200  0.62097800  1
  H  321  1  0.52330400  0.38178100  0.52056300  1
  H  322  1  0.57197600  0.36434100  0.53325800  1
  H  324  1  0.49971700  0.19949500  0.58216900  1
  H  325  1  0.50873500  0.20882300  0.62786200  1
  H  354  1  0.52758200  0.58114200  0.13473500  1
  H  355  1  0.54564300  0.59106400  0.19436800  1
  H  356  1  0.54942200  0.65916300  0.30097800  1
  H  357  1  0.53093600  0.70843600  0.33644500  1
  H  358  1  0.48919000  0.76323700  0.24605200  1
  H  359  1  0.49130900  0.68803400  0.12416600  1
  H  360  1  0.59373000  0.69148500  0.17858500  1
  H  361  1  0.64519600  0.79389500  0.17121000  1
  H  362  1  0.57954400  0.81967100  0.17635700  1
  H  363  1  0.42706400  0.69024100  0.19535500  1
  H  364  1  0.43761900  0.80993300  0.14801500  1
  H  365  1  0.37332500  0.78137600  0.14895400  1
  H  368  1  0.52538600  0.62606000  0.24751400  1
  H  369  1  0.57357200  0.64449400  0.23484300  1
  H  371  1  0.50228600  0.80853200  0.19435400  1
  H  372  1  0.51197200  0.80391500  0.14809600  1
  H  382  1  0.90707900  0.99693300  0.15356200  1
  H  385  1  0.87742500  0.94049600  0.16546600  1
  H  386  1  0.90036800  0.91800800  0.20155800  1
  H  387  1  0.91356500  0.90641200  0.15718200  1
  H  389  1  0.94627100  0.04417500  0.12283000  1
  H  391  1  0.98750900  0.90438900  0.22408400  1
  H  397  1  0.90795100  0.01134600  0.61662800  1
  H  400  1  0.87800700  0.06763400  0.60446400  1
  H  401  1  0.90028400  0.08975500  0.56783700  1
  H  402  1  0.91426800  0.10181900  0.61190700  1
  H  404  1  0.94807900  0.96449400  0.64741500  1
  H  406  1  0.98710900  0.10329900  0.54410200  1
  H  412  1  0.90774100  0.73522500  0.87715900  1
  H  415  1  0.87800400  0.72337600  0.82072500  1
  H  416  1  0.90068800  0.68712300  0.79830000  1
  H  417  1  0.91422400  0.73140700  0.78664000  1
  H  419  1  0.94730000  0.76580000  0.92433200  1
  H  421  1  0.98772500  0.66409500  0.78471800  1
  H  427  1  0.90834500  0.27217200  0.89123500  1
  H  430  1  0.87873700  0.28441400  0.94763800  1
  H  431  1  0.90153800  0.32074500  0.96984900  1
  H  432  1  0.91502200  0.27650000  0.98169500  1
  H  434  1  0.94812600  0.24099800  0.84441600  1
  H  436  1  0.98900300  0.34370400  0.98315700  1
  H  442  1  0.40670900  0.50038900  0.64909600  1
  H  445  1  0.37379900  0.44475200  0.65818400  1
  H  446  1  0.39308600  0.42091600  0.69499500  1
  H  447  1  0.40888600  0.40957800  0.65118300  1
  H  449  1  0.45148800  0.54615700  0.62081600  1
  H  451  1  0.47724000  0.40447600  0.72230500  1
  H  457  1  0.40718000  0.50990300  0.12098900  1
  H  460  1  0.37436600  0.56550300  0.11131600  1
  H  461  1  0.39333200  0.58877800  0.07402400  1
  H  462  1  0.40970200  0.60064000  0.11753800  1
  H  464  1  0.45187000  0.46403400  0.14925700  1
  H  466  1  0.47747100  0.60489300  0.04605900  1
  H  472  1  0.40757700  0.23959700  0.38069900  1
  H  475  1  0.37435700  0.23088600  0.32512500  1
  H  476  1  0.39346500  0.19420900  0.30097500  1
  H  477  1  0.40928000  0.23807300  0.28986200  1
  H  479  1  0.45278800  0.26759700  0.42640800  1
  H  481  1  0.47737500  0.16694700  0.28398700  1
  H  487  1  0.40798400  0.76793200  0.38889500  1
  H  490  1  0.37507700  0.77726100  0.44451900  1
  H  491  1  0.39398800  0.81444500  0.46799900  1
  H  492  1  0.41033400  0.77087800  0.47968700  1
  H  494  1  0.45280300  0.73987500  0.34302700  1
  H  496  1  0.47831500  0.84253700  0.48416700  1
  H  502  1  0.78154000  0.19626700  0.17372000  1
  H  505  1  0.73282700  0.20943600  0.21873100  1
  H  506  1  0.68650800  0.22560800  0.20040700  1
  H  507  1  0.72130200  0.25518800  0.22175200  1
  H  509  1  0.83951700  0.18911800  0.13529500  1
  H  511  1  0.69952300  0.31623900  0.14243300  1
  H  517  1  0.78267000  0.80589800  0.59423700  1
  H  520  1  0.73389600  0.79134800  0.54994100  1
  H  521  1  0.68727100  0.77773900  0.56965700  1
  H  522  1  0.72009100  0.74600000  0.54906600  1
  H  524  1  0.83866700  0.81706300  0.63404900  1
  H  526  1  0.69688100  0.68961900  0.63303000  1
  H  532  1  0.78337800  0.71384800  0.07937200  1
  H  535  1  0.73584900  0.66837200  0.09400400  1
  H  536  1  0.68891000  0.68656700  0.10894200  1
  H  537  1  0.72362400  0.66684100  0.13969300  1
  H  539  1  0.83778300  0.75500900  0.06826300  1
  H  541  1  0.69864000  0.74837900  0.19735200  1
  H  547  1  0.78398200  0.29528700  0.68437000  1
  H  550  1  0.73554700  0.33976600  0.66961700  1
  H  551  1  0.68856800  0.32013600  0.65683100  1
  H  552  1  0.72102500  0.34011200  0.62442900  1
  H  554  1  0.83875900  0.25483200  0.69629200  1
  H  556  1  0.69612000  0.25519500  0.56966200  1
  H  562  1  0.20898400  0.76117700  0.19823400  1
  H  565  1  0.25528000  0.73535000  0.23903200  1
  H  566  1  0.30606900  0.74571000  0.22639800  1
  H  567  1  0.28705800  0.70160900  0.22153400  1
  H  569  1  0.15253600  0.76106300  0.15092400  1
  H  571  1  0.34235000  0.71368100  0.12616200  1
  H  577  1  0.20708700  0.24809000  0.56621600  1
  H  580  1  0.25224200  0.27487600  0.52477500  1
  H  581  1  0.30370100  0.26643500  0.53685600  1
  H  582  1  0.28252100  0.30971200  0.54217600  1
  H  584  1  0.15173000  0.24796000  0.61518200  1
  H  586  1  0.33860200  0.30212800  0.63637200  1
  H  592  1  0.20854800  0.31520200  0.12875300  1
  H  595  1  0.25438200  0.35598000  0.15504300  1
  H  596  1  0.30520700  0.34439500  0.14366900  1
  H  597  1  0.28713600  0.33817700  0.18790200  1
  H  599  1  0.15289100  0.26800600  0.12735400  1
  H  601  1  0.34404100  0.24382500  0.17191700  1
  H  607  1  0.20711700  0.68764400  0.63942500  1
  H  610  1  0.25219200  0.64639500  0.61220100  1
  H  611  1  0.30374000  0.65814500  0.62070900  1
  H  612  1  0.28245500  0.66424600  0.57757600  1
  H  614  1  0.15204700  0.73654600  0.64030500  1
  H  616  1  0.33865700  0.75803200  0.58613800  1
  C  1  1  0.97195800  0.20758100  0.10814000  1
  C  2  1  0.97591300  0.21927400  0.14407100  1
  C  3  1  0.04856000  0.19936300  0.14687700  1
  C  4  1  0.05009700  0.20020300  0.10904400  1
  C  5  1  0.09021900  0.20531500  0.09404400  1
  C  6  1  0.12591400  0.20683400  0.11588700  1
  C  7  1  0.12264100  0.19766200  0.15209700  1
  C  8  1  0.08406900  0.19473900  0.16780200  1
  C  9  1  0.94382900  0.23702200  0.16182300  1
  C  10  1  0.90599500  0.24130100  0.14529700  1
  C  11  1  0.89824600  0.22521600  0.11213800  1
  C  12  1  0.93149400  0.20951400  0.09313200  1
  C  13  1  0.01249500  0.21084200  0.05143400  1
  C  14  1  0.02452600  0.19039400  0.02131100  1
  C  15  1  0.02024400  0.13390100  0.05584200  1
  C  16  1  0.00736800  0.15221700  0.08708500  1
  C  17  1  0.02360900  0.09654700  0.05471900  1
  C  18  1  0.01396000  0.07615900  0.08438300  1
  C  19  1  0.99989300  0.09222900  0.11591200  1
  C  20  1  0.99776800  0.13002300  0.11711900  1
  C  21  1  0.00601100  0.24798300  0.04495700  1
  C  22  1  0.00943600  0.26354900  0.01047500  1
  C  23  1  0.02402000  0.24212000  0.98253700  1
  C  24  1  0.03127300  0.20607400  0.98776800  1
  C  37  1  0.00993600  0.19316100  0.08843300  1
  C  38  1  0.03185600  0.15196000  0.02274500  1
  C  41  1  0.01144500  0.20990200  0.16639400  1
  C  48  1  0.97383400  0.80047700  0.65902300  1
  C  49  1  0.97815200  0.79171200  0.62226500  1
  C  50  1  0.05140300  0.81049700  0.62195600  1
  C  51  1  0.05185000  0.80748800  0.65969900  1
  C  52  1  0.09125300  0.79975700  0.67505300  1
  C  53  1  0.12746100  0.79818600  0.65383700  1
  C  54  1  0.12567700  0.80974200  0.61824300  1
  C  55  1  0.08770500  0.81500300  0.60202500  1
  C  56  1  0.94610500  0.77572200  0.60285100  1
  C  57  1  0.90824300  0.76975300  0.61881300  1
  C  58  1  0.90037400  0.78226100  0.65345100  1
  C  59  1  0.93335100  0.79678500  0.67369700  1
  C  60  1  0.01309300  0.79688000  0.71679100  1
  C  61  1  0.02593000  0.81704800  0.74686500  1
  C  62  1  0.02288600  0.87362300  0.71242500  1
  C  63  1  0.00880400  0.85557400  0.68140400  1
  C  64  1  0.02689200  0.91094000  0.71365000  1
  C  65  1  0.01663100  0.93161700  0.68433300  1
  C  66  1  0.00131900  0.91586000  0.65309900  1
  C  67  1  0.99851400  0.87811800  0.65179400  1
  C  68  1  0.00586700  0.75984000  0.72324000  1
  C  69  1  0.00907500  0.74417100  0.75768900  1
  C  70  1  0.02406000  0.76535100  0.78565300  1
  C  71  1  0.03228300  0.80124000  0.78040500  1
  C  84  1  0.01127700  0.81456700  0.67975000  1
  C  85  1  0.03473500  0.85525800  0.74529700  1
  C  88  1  0.01457800  0.80159400  0.60118100  1
  C  95  1  0.97225700  0.77908500  0.08756100  1
  C  96  1  0.97604800  0.74257800  0.09745000  1
  C  97  1  0.04947900  0.74109800  0.07932600  1
  C  98  1  0.05043500  0.77891700  0.08104600  1
  C  99  1  0.09017800  0.79421900  0.08742300  1
  C  100  1  0.12615200  0.77275500  0.08938700  1
  C  101  1  0.12372400  0.73667100  0.07959700  1
  C  102  1  0.08547800  0.72061900  0.07556700  1
  C  103  1  0.94356100  0.72386500  0.11362000  1
  C  104  1  0.90573900  0.74023100  0.11858300  1
  C  105  1  0.89841500  0.77445100  0.10477300  1
  C  106  1  0.93183900  0.79410000  0.09018900  1
  C  107  1  0.01220800  0.83630800  0.09127200  1
  C  108  1  0.02459300  0.86641800  0.07095200  1
  C  109  1  0.02163300  0.83179100  0.01446900  1
  C  110  1  0.00806800  0.80067100  0.03262900  1
  C  111  1  0.02567100  0.83289500  0.97715300  1
  C  112  1  0.01588800  0.80336700  0.95660600  1
  C  113  1  0.00104800  0.77202600  0.97249600  1
  C  114  1  0.99830400  0.77080900  0.01025000  1
  C  115  1  0.00521300  0.84279800  0.12834200  1
  C  116  1  0.00839100  0.87729100  0.14393200  1
  C  117  1  0.02303200  0.90527700  0.12260200  1
  C  118  1  0.03088700  0.90001300  0.08665600  1
  C  131  1  0.01016600  0.79925700  0.07362500  1
  C  132  1  0.03299300  0.86486800  0.03268000  1
  C  135  1  0.01233100  0.72094100  0.08856300  1
  C  142  1  0.97422800  0.22967500  0.68002300  1
  C  143  1  0.97863900  0.26652300  0.67165900  1
  C  144  1  0.05192200  0.26648800  0.69051300  1
  C  145  1  0.05217600  0.22877700  0.68707800  1
  C  146  1  0.09143100  0.21339700  0.67882200  1
  C  147  1  0.12773600  0.23448700  0.67718900  1
  C  148  1  0.12618300  0.27003700  0.68887600  1
  C  149  1  0.08835400  0.28630700  0.69468000  1
  C  150  1  0.94670600  0.28611300  0.65570600  1
  C  151  1  0.90887400  0.27022600  0.64935400  1
  C  152  1  0.90086400  0.23551400  0.66157500  1
  C  153  1  0.93372400  0.21510600  0.67607100  1
  C  154  1  0.01330800  0.17172900  0.67651700  1
  C  155  1  0.02655100  0.14175800  0.69664700  1
  C  156  1  0.02338700  0.17618300  0.75320600  1
  C  157  1  0.00900000  0.20711300  0.73516900  1
  C  158  1  0.02737800  0.17494900  0.79052300  1
  C  159  1  0.01680400  0.20416400  0.81123000  1
  C  160  1  0.00115300  0.23528700  0.79549800  1
  C  161  1  0.99845500  0.23663100  0.75775300  1
  C  162  1  0.00579700  0.16517500  0.63953300  1
  C  163  1  0.00912200  0.13071800  0.62390400  1
  C  164  1  0.02462400  0.10290400  0.64500600  1
  C  165  1  0.03308400  0.10824500  0.68083900  1
  C  178  1  0.01154000  0.20880200  0.69415600  1
  C  179  1  0.03561100  0.14343100  0.73480600  1
  C  182  1  0.01514600  0.28742600  0.68174400  1
  C  189  1  0.46878500  0.70718300  0.60972500  1
  C  190  1  0.46952400  0.72229400  0.64447900  1
  C  191  1  0.54447200  0.71121600  0.65067300  1
  C  192  1  0.54788500  0.70569200  0.61334600  1
  C  193  1  0.58885400  0.70758200  0.59926500  1
  C  194  1  0.62390700  0.71241300  0.62140600  1
  C  195  1  0.61836000  0.71368100  0.65853800  1
  C  196  1  0.57910900  0.71310600  0.67308900  1
  C  197  1  0.43403700  0.73637300  0.66064900  1
  C  198  1  0.39634200  0.73411600  0.64356400  1
  C  199  1  0.39284900  0.71669300  0.61056700  1
  C  200  1  0.42892400  0.70301000  0.59396900  1
  C  201  1  0.51160300  0.71256700  0.55477500  1
  C  202  1  0.52668200  0.69251400  0.52540400  1
  C  203  1  0.52760000  0.63672100  0.56132800  1
  C  204  1  0.51072200  0.65447100  0.59144600  1
  C  205  1  0.53490000  0.59978900  0.56135400  1
  C  206  1  0.52404900  0.57918600  0.59057100  1
  C  207  1  0.50504600  0.59458900  0.62048500  1
  C  208  1  0.50036100  0.63225400  0.62124300  1
  C  209  1  0.50164800  0.74894800  0.54737400  1
  C  210  1  0.50462100  0.76406900  0.51266800  1
  C  211  1  0.52174200  0.74318400  0.48540200  1
  C  212  1  0.53259000  0.70795200  0.49162000  1
  C  225  1  0.50922200  0.69536600  0.59199100  1
  C  226  1  0.53863600  0.65497400  0.52814500  1
  C  229  1  0.50548900  0.72027900  0.66790200  1
  C  236  1  0.47041800  0.30271500  0.15780700  1
  C  237  1  0.47200100  0.29197500  0.12144400  1
  C  238  1  0.54715800  0.30326500  0.11806000  1
  C  239  1  0.54922100  0.30456000  0.15586200  1
  C  240  1  0.58936900  0.29920900  0.17077300  1
  C  241  1  0.62503800  0.29537000  0.14919600  1
  C  242  1  0.62112300  0.29881800  0.11204300  1
  C  243  1  0.58261700  0.30278200  0.09655100  1
  C  244  1  0.43700900  0.27963400  0.10319200  1
  C  245  1  0.39910700  0.27894800  0.12008200  1
  C  246  1  0.39488500  0.29141400  0.15519500  1
  C  247  1  0.43031300  0.30392500  0.17360400  1
  C  248  1  0.51180000  0.29710000  0.21406400  1
  C  249  1  0.52736900  0.31683200  0.24347400  1
  C  250  1  0.52895500  0.37278700  0.20787400  1
  C  251  1  0.51128600  0.35537700  0.17788700  1
  C  252  1  0.53643000  0.40971100  0.20812800  1
  C  253  1  0.52509900  0.43069400  0.17930500  1
  C  254  1  0.50554100  0.41562900  0.14951300  1
  C  255  1  0.50037900  0.37805600  0.14857100  1
  C  256  1  0.50134000  0.26079800  0.22134500  1
  C  257  1  0.50405400  0.24552400  0.25601200  1
  C  258  1  0.52135100  0.26616100  0.28337700  1
  C  259  1  0.53290400  0.30124000  0.27723500  1
  C  272  1  0.51009400  0.31441800  0.17684100  1
  C  273  1  0.54041300  0.35411400  0.24071900  1
  C  276  1  0.50854800  0.29683700  0.09902100  1
  C  283  1  0.46858200  0.27865600  0.58690200  1
  C  284  1  0.46911200  0.24396100  0.60217200  1
  C  285  1  0.54441400  0.23805500  0.59286500  1
  C  286  1  0.54780500  0.27522400  0.58632800  1
  C  287  1  0.58878000  0.28937000  0.58786300  1
  C  288  1  0.62383000  0.26740800  0.59356200  1
  C  289  1  0.61826800  0.23036500  0.59612700  1
  C  290  1  0.57906600  0.21575000  0.59566300  1
  C  291  1  0.43336900  0.22763500  0.61556600  1
  C  292  1  0.39563000  0.24448600  0.61243900  1
  C  293  1  0.39241500  0.27750500  0.59505000  1
  C  294  1  0.42874900  0.29433800  0.58216000  1
  C  295  1  0.51124600  0.33369400  0.59255500  1
  C  296  1  0.52627000  0.36306300  0.57246200  1
  C  297  1  0.52820100  0.32685700  0.51687300  1
  C  298  1  0.51126400  0.29675200  0.53460000  1
  C  299  1  0.53602400  0.32667900  0.48002400  1
  C  300  1  0.52546300  0.29738000  0.45943400  1
  C  301  1  0.50627800  0.26751400  0.47476600  1
  C  302  1  0.50113100  0.26688200  0.51239400  1
  C  303  1  0.50100800  0.34120700  0.62885700  1
  C  304  1  0.50362600  0.37600100  0.64384800  1
  C  305  1  0.52054700  0.40329900  0.62288500  1
  C  306  1  0.53169300  0.39697700  0.58774500  1
  C  319  1  0.50918800  0.29639900  0.57548500  1
  C  320  1  0.53866000  0.36021800  0.53503500  1
  C  323  1  0.50533200  0.22079100  0.60142400  1
  C  330  1  0.47034100  0.73067900  0.18184100  1
  C  331  1  0.47165000  0.76647800  0.16937400  1
  C  332  1  0.54680700  0.77080600  0.18020000  1
  C  333  1  0.54933200  0.73313300  0.18331500  1
  C  334  1  0.58979100  0.71838100  0.17936700  1
  C  335  1  0.62519500  0.74013300  0.17474300  1
  C  336  1  0.62075000  0.77735400  0.17611600  1
  C  337  1  0.58199800  0.79261900  0.17895300  1
  C  338  1  0.43644600  0.78405600  0.15651600  1
  C  339  1  0.39857800  0.76712400  0.15709100  1
  C  340  1  0.39459200  0.73273900  0.17148600  1
  C  341  1  0.43029500  0.71489600  0.18427700  1
  C  342  1  0.51217000  0.67491000  0.17609000  1
  C  343  1  0.52757900  0.64545400  0.19584000  1
  C  344  1  0.52899800  0.68102400  0.25182700  1
  C  345  1  0.51180000  0.71117400  0.23435900  1
  C  346  1  0.53641800  0.68077700  0.28874900  1
  C  347  1  0.52542300  0.70975100  0.30964200  1
  C  348  1  0.50625000  0.73971000  0.29451100  1
  C  349  1  0.50124200  0.74067500  0.25690900  1
  C  350  1  0.50182700  0.66770200  0.13975300  1
  C  351  1  0.50460200  0.63306800  0.12443600  1
  C  352  1  0.52199500  0.60570900  0.14503300  1
  C  353  1  0.53329800  0.61175200  0.18018400  1
  C  366  1  0.51034300  0.71208800  0.19343800  1
  C  367  1  0.54016300  0.64805600  0.23324500  1
  C  370  1  0.50801800  0.78927700  0.17309900  1
  C  377  1  0.96780300  0.01430600  0.16407100  1
  C  378  1  0.93491900  0.98960100  0.16404700  1
  C  379  1  0.94066600  0.95418800  0.17593400  1
  C  380  1  0.98051400  0.94405100  0.18771000  1
  C  384  1  0.90595200  0.92845400  0.17490300  1
  C  388  1  0.96566900  0.04508000  0.14341100  1
  C  390  1  0.99053000  0.90958900  0.19838000  1
  C  392  1  0.96846600  0.99389200  0.60539400  1
  C  393  1  0.93556900  0.01857800  0.60564800  1
  C  394  1  0.94106000  0.05385900  0.59329100  1
  C  395  1  0.98067100  0.06387400  0.58082700  1
  C  399  1  0.90635200  0.07959100  0.59452000  1
  C  403  1  0.96680500  0.96333500  0.62639100  1
  C  405  1  0.99050900  0.09825700  0.56980200  1
  C  407  1  0.96836700  0.72437000  0.89455100  1
  C  408  1  0.93548200  0.72453800  0.86985000  1
  C  409  1  0.94115900  0.71257500  0.83445400  1
  C  410  1  0.98091500  0.70053200  0.82435600  1
  C  414  1  0.90646900  0.71376000  0.80870600  1
  C  418  1  0.96635300  0.74500000  0.92536800  1
  C  420  1  0.99087800  0.68978900  0.78991000  1
  C  422  1  0.96891200  0.28294900  0.87362400  1
  C  423  1  0.93611100  0.28289600  0.89842500  1
  C  424  1  0.94187300  0.29506700  0.93374000  1
  C  425  1  0.98166300  0.30713900  0.94370000  1
  C  429  1  0.90724500  0.29404900  0.95956100  1
  C  433  1  0.96679600  0.26203100  0.84301700  1
  C  435  1  0.99179900  0.31795600  0.97808800  1
  C  437  1  0.46723900  0.51552600  0.66325000  1
  C  438  1  0.43340300  0.49190300  0.66084600  1
  C  439  1  0.43674800  0.45607200  0.67218700  1
  C  440  1  0.47522900  0.44432400  0.68573600  1
  C  444  1  0.40102600  0.43158500  0.66887500  1
  C  448  1  0.46786400  0.54679800  0.64327500  1
  C  450  1  0.48267600  0.40952500  0.69686900  1
  C  452  1  0.46749500  0.49444400  0.10646600  1
  C  453  1  0.43373200  0.51813100  0.10882400  1
  C  454  1  0.43708900  0.55376800  0.09690600  1
  C  455  1  0.47543500  0.56516000  0.08278000  1
  C  459  1  0.40153100  0.57842800  0.10021300  1
  C  463  1  0.46823400  0.46342300  0.12680300  1
  C  465  1  0.48305800  0.59986600  0.07147600  1
  C  467  1  0.46818200  0.22524500  0.39545200  1
  C  468  1  0.43418800  0.22784100  0.37202900  1
  C  469  1  0.43733900  0.21673100  0.33611300  1
  C  470  1  0.47574300  0.20321700  0.32412200  1
  C  474  1  0.40150000  0.22024800  0.31178400  1
  C  478  1  0.46907200  0.24507400  0.42680600  1
  C  480  1  0.48297800  0.19232300  0.28921100  1
  C  482  1  0.46833900  0.78251100  0.37360700  1
  C  483  1  0.43455500  0.77997500  0.39725500  1
  C  484  1  0.43782500  0.79172600  0.43295600  1
  C  485  1  0.47615600  0.80578100  0.44448400  1
  C  489  1  0.40220900  0.78830700  0.45754200  1
  C  493  1  0.46918300  0.76234100  0.34248700  1
  C  495  1  0.48366800  0.81706900  0.47921200  1
  C  497  1  0.79268300  0.22393100  0.12560100  1
  C  498  1  0.77183800  0.21684700  0.15797900  1
  C  499  1  0.73938400  0.23898900  0.17004600  1
  C  500  1  0.72865400  0.26870500  0.14869400  1
  C  504  1  0.71895200  0.23181600  0.20466500  1
  C  508  1  0.83030200  0.20778700  0.11813400  1
  C  510  1  0.69676100  0.29260500  0.15429500  1
  C  512  1  0.79422900  0.77970700  0.64308400  1
  C  513  1  0.77309400  0.78581600  0.61067200  1
  C  514  1  0.74013000  0.76365200  0.59976500  1
  C  515  1  0.72913700  0.73489300  0.62234700  1
  C  519  1  0.71926900  0.77012300  0.56518500  1
  C  523  1  0.83122900  0.79694900  0.65015100  1
  C  525  1  0.69596900  0.71184600  0.61853000  1
  C  527  1  0.79320400  0.76307500  0.10541800  1
  C  528  1  0.77327300  0.73005200  0.09944200  1
  C  529  1  0.74096100  0.71818900  0.12183800  1
  C  530  1  0.72941100  0.74043800  0.15065900  1
  C  534  1  0.72132700  0.68303100  0.11568900  1
  C  538  1  0.82992900  0.77129800  0.08806800  1
  C  540  1  0.69712700  0.73535800  0.17427100  1
  C  542  1  0.79483300  0.24601700  0.65873100  1
  C  543  1  0.77408300  0.27868500  0.66454600  1
  C  544  1  0.74097700  0.28954000  0.64251900  1
  C  545  1  0.72943600  0.26666900  0.61414800  1
  C  549  1  0.72047000  0.32432100  0.64877500  1
  C  553  1  0.83176500  0.23870900  0.67607900  1
  C  555  1  0.69582800  0.27026600  0.59152000  1
  C  557  1  0.21399700  0.76436700  0.14237800  1
  C  558  1  0.22760800  0.75552000  0.17699500  1
  C  559  1  0.26589500  0.73807500  0.18253800  1
  C  560  1  0.28977200  0.72868200  0.15209000  1
  C  564  1  0.27921700  0.72974900  0.21942600  1
  C  568  1  0.17317200  0.77308200  0.13535700  1
  C  570  1  0.33010400  0.71575200  0.15046400  1
  C  572  1  0.21348000  0.24471800  0.62198000  1
  C  573  1  0.22607500  0.25392000  0.58716200  1
  C  574  1  0.26371500  0.27225400  0.58110700  1
  C  575  1  0.28789100  0.28211700  0.61119500  1
  C  579  1  0.27613200  0.28129100  0.54416800  1
  C  583  1  0.17294500  0.23549200  0.62977400  1
  C  585  1  0.32731000  0.29708200  0.61219600  1
  C  587  1  0.21453900  0.25950200  0.12424100  1
  C  588  1  0.22764800  0.29409400  0.13367700  1
  C  589  1  0.26610200  0.29972400  0.15079500  1
  C  590  1  0.29066000  0.26938100  0.15921600  1
  C  594  1  0.27881500  0.33661300  0.15982800  1
  C  598  1  0.17374200  0.25214300  0.11592900  1
  C  600  1  0.33138200  0.26805100  0.17139400  1
  C  602  1  0.21392600  0.74330900  0.64377500  1
  C  603  1  0.22629400  0.70857900  0.63402600  1
  C  604  1  0.26396100  0.70263200  0.61570500  1
  C  605  1  0.28831800  0.73276100  0.60633300  1
  C  609  1  0.27616000  0.66579900  0.60604100  1
  C  613  1  0.17337000  0.75127700  0.65254900  1
  C  615  1  0.32770500  0.73376000  0.59125300  1
  N  44  1  0.99383800  0.06942800  0.14295300  1
  N  45  1  0.85855400  0.22701800  0.10336100  1
  N  46  1  0.16277600  0.22008600  0.10774000  1
  N  47  1  0.00223700  0.29818800  0.00483100  1
  N  91  1  0.99467000  0.93873700  0.62623300  1
  N  92  1  0.86107000  0.77797100  0.66273000  1
  N  93  1  0.16356100  0.78331900  0.66182700  1
  N  94  1  0.00145800  0.70958400  0.76323700  1
  N  138  1  0.99459300  0.74512000  0.94963900  1
  N  139  1  0.85904400  0.78383500  0.10786500  1
  N  140  1  0.16263600  0.78121900  0.10318700  1
  N  141  1  0.00097100  0.88290100  0.17854400  1
  N  185  1  0.99460200  0.26216000  0.81837700  1
  N  186  1  0.86159100  0.22626400  0.65704400  1
  N  187  1  0.16362400  0.22645400  0.66198400  1
  N  188  1  0.00122400  0.12504900  0.58938400  1
  N  232  1  0.49575300  0.57121600  0.64634200  1
  N  233  1  0.35363500  0.71042700  0.60253500  1
  N  234  1  0.66033700  0.72488600  0.61084800  1
  N  235  1  0.49454900  0.79804200  0.50634100  1
  N  279  1  0.49615100  0.43904400  0.12376300  1
  N  280  1  0.35552900  0.29435200  0.16453300  1
  N  281  1  0.66022300  0.28018700  0.15932500  1
  N  282  1  0.49376400  0.21157000  0.26220300  1
  N  326  1  0.49686500  0.24177200  0.45128700  1
  N  327  1  0.35324700  0.28580200  0.58883500  1
  N  328  1  0.66054400  0.27834200  0.60502900  1
  N  329  1  0.49349600  0.38240300  0.67779400  1
  N  373  1  0.49694500  0.76546200  0.31797800  1
  N  374  1  0.35523300  0.72384400  0.17574200  1
  N  375  1  0.66105800  0.72953100  0.16114100  1
  N  376  1  0.49422000  0.62691300  0.09049900  1
  N  381  1  0.01031900  0.96955400  0.18806600  1
  N  383  1  0.00459100  0.00213600  0.17649700  1
  N  396  1  0.01047200  0.03837500  0.58027500  1
  N  398  1  0.00498700  0.00591900  0.59226500  1
  N  411  1  0.01070300  0.70002100  0.84986800  1
  N  413  1  0.00505300  0.71167400  0.88242400  1
  N  426  1  0.01138800  0.30747400  0.91813500  1
  N  428  1  0.00563000  0.29565700  0.88565400  1
  N  441  1  0.50606200  0.46877700  0.68815100  1
  N  443  1  0.50256600  0.50177100  0.67709500  1
  N  456  1  0.50611700  0.54056900  0.08033600  1
  N  458  1  0.50265600  0.50775800  0.09191700  1
  N  471  1  0.50668700  0.20055300  0.34844600  1
  N  473  1  0.50340700  0.21139500  0.38153400  1
  N  486  1  0.50689700  0.80830900  0.41995600  1
  N  488  1  0.50349300  0.79692000  0.38707400  1
  N  501  1  0.74989900  0.27336800  0.11780700  1
  N  503  1  0.78007100  0.25300500  0.10717900  1
  N  516  1  0.75097100  0.73106200  0.65307300  1
  N  518  1  0.78164800  0.75141000  0.66266600  1
  N  531  1  0.74991800  0.77183800  0.15432800  1
  N  533  1  0.77996300  0.78232800  0.13373200  1
  N  546  1  0.75099600  0.23576900  0.61052100  1
  N  548  1  0.78180200  0.22621600  0.63074900  1
  N  561  1  0.27386300  0.73793100  0.11989000  1
  N  563  1  0.23860500  0.75381800  0.11518100  1
  N  576  1  0.27310200  0.27224100  0.64361000  1
  N  578  1  0.23846300  0.25550600  0.64882500  1
  N  591  1  0.27519600  0.23720700  0.14926400  1
  N  593  1  0.23976300  0.23235600  0.13370600  1
  N  606  1  0.27378400  0.76508500  0.61679400  1
  N  608  1  0.23913900  0.77020300  0.63354900  1
