# generated using pymatgen
data_In3H4(C10O9)2
_symmetry_space_group_name_H-M   'P 1'
_cell_length_a   7.19415000
_cell_length_b   13.89213000
_cell_length_c   17.63412000
_cell_angle_alpha   90.00000000
_cell_angle_beta   99.87193000
_cell_angle_gamma   90.00000000
_symmetry_Int_Tables_number   1
_chemical_formula_structural   In3H4(C10O9)2
_chemical_formula_sum   'In6 H8 C40 O36'
_cell_volume   1736.29546114
_cell_formula_units_Z   2
loop_
 _symmetry_equiv_pos_site_id
 _symmetry_equiv_pos_as_xyz
  1  'x, y, z'
loop_
 _atom_site_type_symbol
 _atom_site_label
 _atom_site_symmetry_multiplicity
 _atom_site_fract_x
 _atom_site_fract_y
 _atom_site_fract_z
 _atom_site_occupancy
  In  In0  1  0.47086000  0.10082000  0.45234000  1
  In  In1  1  0.52915000  0.60082000  0.04766000  1
  In  In2  1  0.52915000  0.89918000  0.54766000  1
  In  In3  1  0.47086000  0.39918000  0.95233000  1
  In  In4  1  0.00000000  0.00000000  0.50000000  1
  In  In5  1  0.00000000  0.50000000  0.00000000  1
  H  H6  1  0.22244000  0.23303000  0.77491000  1
  H  H7  1  0.51946000  0.20629000  0.72663000  1
  H  H8  1  0.77757000  0.73303000  0.72509000  1
  H  H9  1  0.48055000  0.70629000  0.77336000  1
  H  H10  1  0.77757000  0.76698000  0.22509000  1
  H  H11  1  0.48054000  0.79371000  0.27336000  1
  H  H12  1  0.22244000  0.26698000  0.27491000  1
  H  H13  1  0.51946000  0.29371000  0.22663000  1
  C  C14  1  0.77653000  0.17048000  0.68661000  1
  C  C15  1  0.97729000  0.17717000  0.69922000  1
  C  C16  1  0.06919000  0.22739000  0.76378000  1
  C  C17  1  0.96539000  0.27205000  0.81410000  1
  C  C18  1  0.76515000  0.26503000  0.79997000  1
  C  C19  1  0.67267000  0.21284000  0.73736000  1
  C  C20  1  0.67126000  0.11943000  0.61741000  1
  C  C21  1  0.08472000  0.13044000  0.64225000  1
  C  C22  1  0.06425000  0.33171000  0.88019000  1
  C  C23  1  0.64906000  0.31111000  0.85185000  1
  C  C24  1  0.22348000  0.67048000  0.81338000  1
  C  C25  1  0.02272000  0.67717000  0.80077000  1
  C  C26  1  0.93081000  0.72740000  0.73622000  1
  C  C27  1  0.03461000  0.77205000  0.68589000  1
  C  C28  1  0.23486000  0.76503000  0.70002000  1
  C  C29  1  0.32734000  0.71284000  0.76263000  1
  C  C30  1  0.32875000  0.61943000  0.88259000  1
  C  C31  1  0.91528000  0.63044000  0.85775000  1
  C  C32  1  0.93576000  0.83171000  0.61980000  1
  C  C33  1  0.35095000  0.81111000  0.64815000  1
  C  C34  1  0.22348000  0.82952000  0.31339000  1
  C  C35  1  0.02272000  0.82283000  0.30077000  1
  C  C36  1  0.93081000  0.77261000  0.23622000  1
  C  C37  1  0.03461000  0.72795000  0.18589000  1
  C  C38  1  0.23486000  0.73497000  0.20002000  1
  C  C39  1  0.32734000  0.78716000  0.26263000  1
  C  C40  1  0.32875000  0.88058000  0.38259000  1
  C  C41  1  0.91528000  0.86956000  0.35775000  1
  C  C42  1  0.93576000  0.66829000  0.11981000  1
  C  C43  1  0.35095000  0.68889000  0.14815000  1
  C  C44  1  0.77653000  0.32952000  0.18661000  1
  C  C45  1  0.97728000  0.32283000  0.19923000  1
  C  C46  1  0.06919000  0.27261000  0.26378000  1
  C  C47  1  0.96539000  0.22795000  0.31410000  1
  C  C48  1  0.76515000  0.23497000  0.29997000  1
  C  C49  1  0.67267000  0.28716000  0.23736000  1
  C  C50  1  0.67125000  0.38057000  0.11741000  1
  C  C51  1  0.08472000  0.36956000  0.14225000  1
  C  C52  1  0.06425000  0.16829000  0.38019000  1
  C  C53  1  0.64906000  0.18889000  0.35185000  1
  O  O54  1  0.57100000  0.16911000  0.56644000  1
  O  O55  1  0.69514000  0.02849000  0.62127000  1
  O  O56  1  0.99189000  0.12527000  0.57288000  1
  O  O57  1  0.24697000  0.09967000  0.66666667  1
  O  O58  1  0.22910000  0.30495000  0.91087000  1
  O  O59  1  0.97259000  0.40451000  0.89748000  1
  O  O60  1  0.66620000  0.28099000  0.92098000  1
  O  O61  1  0.53214000  0.37660000  0.82613000  1
  O  O62  1  0.69162000  0.99112000  0.48156000  1
  O  O63  1  0.42900000  0.66911000  0.93355000  1
  O  O64  1  0.30486000  0.52849000  0.87872000  1
  O  O65  1  0.00812000  0.62527000  0.92711000  1
  O  O66  1  0.75304000  0.59967000  0.83333000  1
  O  O67  1  0.77091000  0.80495000  0.58912000  1
  O  O68  1  0.02742000  0.90452000  0.60251000  1
  O  O69  1  0.33381000  0.78099000  0.57901000  1
  O  O70  1  0.46787000  0.87661000  0.67386000  1
  O  O71  1  0.30839000  0.49111000  0.01844000  1
  O  O72  1  0.42900000  0.83089000  0.43355000  1
  O  O73  1  0.30486000  0.97152000  0.37872000  1
  O  O74  1  0.00812000  0.87474000  0.42711000  1
  O  O75  1  0.75304000  0.90033000  0.33333333  1
  O  O76  1  0.77091000  0.69506000  0.08912000  1
  O  O77  1  0.02742000  0.59549000  0.10251000  1
  O  O78  1  0.33381000  0.71902000  0.07901000  1
  O  O79  1  0.46787000  0.62340000  0.17387000  1
  O  O80  1  0.30839000  0.00889000  0.51844000  1
  O  O81  1  0.57100000  0.33089000  0.06645000  1
  O  O82  1  0.69514000  0.47152000  0.12127000  1
  O  O83  1  0.99188000  0.37473000  0.07289000  1
  O  O84  1  0.24696000  0.40033000  0.16666000  1
  O  O85  1  0.22910000  0.19505000  0.41088000  1
  O  O86  1  0.97259000  0.09549000  0.39748000  1
  O  O87  1  0.66619000  0.21901000  0.42099000  1
  O  O88  1  0.53214000  0.12340000  0.32613000  1
  O  O89  1  0.69162000  0.50889000  0.98155000  1
