# generated using pymatgen
data_ZnH17C18(N2O)2
_symmetry_space_group_name_H-M   'P 1'
_cell_length_a   10.28731000
_cell_length_b   11.06155000
_cell_length_c   11.06175000
_cell_angle_alpha   95.79486000
_cell_angle_beta   108.78400000
_cell_angle_gamma   108.78434000
_symmetry_Int_Tables_number   1
_chemical_formula_structural   ZnH17C18(N2O)2
_chemical_formula_sum   'Zn2 H34 C36 N8 O4'
_cell_volume   1098.43667620
_cell_formula_units_Z   2
loop_
 _symmetry_equiv_pos_site_id
 _symmetry_equiv_pos_as_xyz
  1  'x, y, z'
loop_
 _atom_site_type_symbol
 _atom_site_label
 _atom_site_symmetry_multiplicity
 _atom_site_fract_x
 _atom_site_fract_y
 _atom_site_fract_z
 _atom_site_occupancy
  Zn  Zn0  1  0.32367000  0.92279000  0.99532000  1
  Zn  Zn1  1  0.82367000  0.99532000  0.92279000  1
  H  H2  1  0.01398000  0.04536000  0.60750000  1
  H  H3  1  0.37350000  0.99121000  0.54753000  1
  H  H4  1  0.44890000  0.93191000  0.76443000  1
  H  H5  1  0.86854000  0.54032000  0.23597000  1
  H  H6  1  0.04667000  0.69803000  0.45818000  1
  H  H7  1  0.97671000  0.44402000  0.26330000  1
  H  H8  1  0.81476000  0.50284000  0.43786000  1
  H  H9  1  0.92710000  0.40938000  0.47038000  1
  H  H10  1  0.17971000  0.97314000  0.18260000  1
  H  H11  1  0.08761000  0.87415000  0.34608000  1
  H  H12  1  0.15825000  0.60368000  0.47293000  1
  H  H13  1  0.23778000  0.56355000  0.26810000  1
  H  H14  1  0.32803000  0.67896000  0.10914000  1
  H  H15  1  0.39953000  0.21667000  0.03675000  1
  H  H16  1  0.61286000  0.42112000  0.17686000  1
  H  H17  1  0.80216000  0.17637000  0.39613000  1
  H  H18  1  0.58443000  0.98178000  0.24166000  1
  H  H19  1  0.51398000  0.60750000  0.04536000  1
  H  H20  1  0.87350000  0.54753000  0.99121000  1
  H  H21  1  0.94890000  0.76444000  0.93191000  1
  H  H22  1  0.36854000  0.23596000  0.54032000  1
  H  H23  1  0.54667000  0.45818000  0.69802000  1
  H  H24  1  0.47671000  0.26330000  0.44402000  1
  H  H25  1  0.31476000  0.43786000  0.50284000  1
  H  H26  1  0.42711000  0.47038000  0.40938000  1
  H  H27  1  0.67972000  0.18261000  0.97314000  1
  H  H28  1  0.58761000  0.34609000  0.87414000  1
  H  H29  1  0.65825000  0.47294000  0.60368000  1
  H  H30  1  0.73778000  0.26810000  0.56355000  1
  H  H31  1  0.82803000  0.10914000  0.67896000  1
  H  H32  1  0.89953000  0.03675000  0.21667000  1
  H  H33  1  0.11286000  0.17686000  0.42112000  1
  H  H34  1  0.30217000  0.39613000  0.17638000  1
  H  H35  1  0.08444000  0.24166000  0.98179000  1
  C  C36  1  0.15157000  0.98830000  0.76281000  1
  C  C37  1  0.11199000  0.02038000  0.64064000  1
  C  C38  1  0.30930000  0.98969000  0.60899000  1
  C  C39  1  0.35133000  0.95661000  0.72848000  1
  C  C40  1  0.06873000  0.98577000  0.84786000  1
  C  C41  1  0.59421000  0.08136000  0.23324000  1
  C  C42  1  0.71464000  0.19004000  0.31858000  1
  C  C43  1  0.72399000  0.31672000  0.30301000  1
  C  C44  1  0.60860000  0.32639000  0.19895000  1
  C  C45  1  0.49132000  0.21320000  0.11806000  1
  C  C46  1  0.27183000  0.71628000  0.16299000  1
  C  C47  1  0.22209000  0.65406000  0.25165000  1
  C  C48  1  0.14961000  0.70671000  0.31754000  1
  C  C49  1  0.13666000  0.82501000  0.29365000  1
  C  C50  1  0.19058000  0.88254000  0.20477000  1
  C  C51  1  0.85429000  0.43715000  0.39088000  1
  C  C52  1  0.94178000  0.51113000  0.31377000  1
  C  C53  1  0.07865000  0.63330000  0.40152000  1
  C  C54  1  0.65157000  0.76281000  0.98829000  1
  C  C55  1  0.61199000  0.64063000  0.02038000  1
  C  C56  1  0.80931000  0.60899000  0.98969000  1
  C  C57  1  0.85133000  0.72848000  0.95661000  1
  C  C58  1  0.56873000  0.84786000  0.98577000  1
  C  C59  1  0.09421000  0.23325000  0.08137000  1
  C  C60  1  0.21464000  0.31858000  0.19005000  1
  C  C61  1  0.22399000  0.30301000  0.31672000  1
  C  C62  1  0.10859000  0.19895000  0.32639000  1
  C  C63  1  0.99132000  0.11806000  0.21320000  1
  C  C64  1  0.77184000  0.16299000  0.71628000  1
  C  C65  1  0.72209000  0.25165000  0.65406000  1
  C  C66  1  0.64961000  0.31754000  0.70671000  1
  C  C67  1  0.63666000  0.29365000  0.82500000  1
  C  C68  1  0.69058000  0.20477000  0.88254000  1
  C  C69  1  0.35429000  0.39088000  0.43714000  1
  C  C70  1  0.44178000  0.31377000  0.51113000  1
  C  C71  1  0.57864000  0.40152000  0.63330000  1
  N  N72  1  0.18740000  0.02432000  0.56161000  1
  N  N73  1  0.27685000  0.95684000  0.81024000  1
  N  N74  1  0.48350000  0.09188000  0.13425000  1
  N  N75  1  0.25476000  0.82843000  0.13751000  1
  N  N76  1  0.68740000  0.56160000  0.02432000  1
  N  N77  1  0.77685000  0.81025000  0.95683000  1
  N  N78  1  0.98350000  0.13425000  0.09188000  1
  N  N79  1  0.75476000  0.13751000  0.82843000  1
  O  O80  1  0.94309000  0.00045000  0.80491000  1
  O  O81  1  0.12477000  0.96698000  0.96284000  1
  O  O82  1  0.44309000  0.80491000  0.00044000  1
  O  O83  1  0.62477000  0.96284000  0.96698000  1
