# generated using pymatgen
data_H18C37(N5O2)2
_symmetry_space_group_name_H-M   'P 1'
_cell_length_a   41.59173617
_cell_length_b   41.59265560
_cell_length_c   41.59081660
_cell_angle_alpha   70.53063513
_cell_angle_beta   70.53406167
_cell_angle_gamma   109.47835883
_symmetry_Int_Tables_number   1
_chemical_formula_structural   H18C37(N5O2)2
_chemical_formula_sum   'H108 C222 N60 O24'
_cell_volume   55385.90435982
_cell_formula_units_Z   6
loop_
 _symmetry_equiv_pos_site_id
 _symmetry_equiv_pos_as_xyz
  1  'x, y, z'
loop_
 _atom_site_type_symbol
 _atom_site_label
 _atom_site_symmetry_multiplicity
 _atom_site_fract_x
 _atom_site_fract_y
 _atom_site_fract_z
 _atom_site_occupancy
  C  1  1  0.81357650  0.24155200  0.48880850  1
  C  2  1  0.78598850  0.22331850  0.47943000  1
  C  3  1  0.78640750  0.25229750  0.45003700  1
  C  4  1  0.81401650  0.28926000  0.44066350  1
  C  5  1  0.81914450  0.32373250  0.41224900  1
  C  6  1  0.79650750  0.32124600  0.39305050  1
  C  7  1  0.76933000  0.28326750  0.40268150  1
  C  8  1  0.76419250  0.24884850  0.43097600  1
  C  9  1  0.76347500  0.18204600  0.49849100  1
  C  10  1  0.76958000  0.15888400  0.52680200  1
  C  11  1  0.79791150  0.17642500  0.53645350  1
  C  12  1  0.81961600  0.21826000  0.51723700  1
  C  13  1  0.87745350  0.30466500  0.44082150  1
  C  14  1  0.89500750  0.33203450  0.45068200  1
  C  15  1  0.86635200  0.33256150  0.47880550  1
  C  16  1  0.82912850  0.30513950  0.48866400  1
  C  17  1  0.87162650  0.35600200  0.49624350  1
  C  18  1  0.83830400  0.35130300  0.52499900  1
  C  19  1  0.79954850  0.32358850  0.53673400  1
  C  20  1  0.79538350  0.30051350  0.51797500  1
  C  21  1  0.90214850  0.30024550  0.41150300  1
  C  22  1  0.94398300  0.32318050  0.39274250  1
  C  23  1  0.95994650  0.35021200  0.40447450  1
  C  24  1  0.93588350  0.35476100  0.43324250  1
  C  37  1  0.83357100  0.28518200  0.46473900  1
  C  38  1  0.76734300  0.31836550  0.56752750  1
  C  39  1  0.96957500  0.32181400  0.36192500  1
  C  40  1  0.80708000  0.15396050  0.56141350  1
  C  41  1  0.79899500  0.35537250  0.36809850  1
  C  46  1  0.35336050  0.82905500  0.44112450  1
  C  47  1  0.38097350  0.84729150  0.45047500  1
  C  48  1  0.38139300  0.81831500  0.47903400  1
  C  49  1  0.35380550  0.78135050  0.48838800  1
  C  50  1  0.34775250  0.74688300  0.51773250  1
  C  51  1  0.36944300  0.74937150  0.53787750  1
  C  52  1  0.39778750  0.78735450  0.52707600  1
  C  53  1  0.40389750  0.82176750  0.49780300  1
  C  54  1  0.40318200  0.88856550  0.43171650  1
  C  55  1  0.39803500  0.91172500  0.40244700  1
  C  56  1  0.37086000  0.89417900  0.39164100  1
  C  57  1  0.34823950  0.85234350  0.41177500  1
  C  58  1  0.33825350  0.76594400  0.44034850  1
  C  59  1  0.30102800  0.73858000  0.45015200  1
  C  60  1  0.27237500  0.73804750  0.47933550  1
  C  61  1  0.28993300  0.76546150  0.48914950  1
  C  62  1  0.23149850  0.71460200  0.49749850  1
  C  63  1  0.20743850  0.71930300  0.52611550  1
  C  64  1  0.22340800  0.74700250  0.53717750  1
  C  65  1  0.26524200  0.77007900  0.51827400  1
  C  66  1  0.37199750  0.77037550  0.41122700  1
  C  67  1  0.36782850  0.74744950  0.39231800  1
  C  68  1  0.32906900  0.72041600  0.40337800  1
  C  69  1  0.29574900  0.71585800  0.43199500  1
  C  82  1  0.33381400  0.78542550  0.46474850  1
  C  83  1  0.19782050  0.75222800  0.56414050  1
  C  84  1  0.40001800  0.74881550  0.36537050  1
  C  85  1  0.36834250  0.91664200  0.36002650  1
  C  86  1  0.36028250  0.71524350  0.56950600  1
  C  91  1  0.60731750  0.30499400  0.17102250  1
  C  92  1  0.59795650  0.33259550  0.15279400  1
  C  93  1  0.56939400  0.33300650  0.18177350  1
  C  94  1  0.56003400  0.30541250  0.21873350  1
  C  95  1  0.53069450  0.29936000  0.25320450  1
  C  96  1  0.51055400  0.32105200  0.25071900  1
  C  97  1  0.52136000  0.34940100  0.21274200  1
  C  98  1  0.55062950  0.35551200  0.17832550  1
  C  99  1  0.61673200  0.35482400  0.11152100  1
  C  100  1  0.64599850  0.34967900  0.08835750  1
  C  101  1  0.65678400  0.32248400  0.10589200  1
  C  102  1  0.63664150  0.29985350  0.14772700  1
  C  103  1  0.60806900  0.28986600  0.23414000  1
  C  104  1  0.59825950  0.25264150  0.26150400  1
  C  105  1  0.56907600  0.22398850  0.26203250  1
  C  106  1  0.55927600  0.24154350  0.23460750  1
  C  107  1  0.55091250  0.18311050  0.28547300  1
  C  108  1  0.52229050  0.15904800  0.28077150  1
  C  109  1  0.51123000  0.17501650  0.25307450  1
  C  110  1  0.53014450  0.21685000  0.22999250  1
  C  111  1  0.63719400  0.32361250  0.22970950  1
  C  112  1  0.65609350  0.31944300  0.25264450  1
  C  113  1  0.64503700  0.28068700  0.27966700  1
  C  114  1  0.61640850  0.24736400  0.28423450  1
  C  127  1  0.58367400  0.28542500  0.21465300  1
  C  128  1  0.48426700  0.14943050  0.24784350  1
  C  129  1  0.68306600  0.35163750  0.25125950  1
  C  130  1  0.68842500  0.31999850  0.08342650  1
  C  131  1  0.47892700  0.31189000  0.28484800  1
  C  136  1  0.55960800  0.76517650  0.75852750  1
  C  137  1  0.56897850  0.73758900  0.77676150  1
  C  138  1  0.59837150  0.73800200  0.74778850  1
  C  139  1  0.60775500  0.76561250  0.71082350  1
  C  140  1  0.63617450  0.77073500  0.67635950  1
  C  141  1  0.65537550  0.74810400  0.67885150  1
  C  142  1  0.64574300  0.72093650  0.71683350  1
  C  143  1  0.61743000  0.71579000  0.75124400  1
  C  144  1  0.54990550  0.71506800  0.81803550  1
  C  145  1  0.52161050  0.72118650  0.84119500  1
  C  146  1  0.51197800  0.74953000  0.82365100  1
  C  147  1  0.53117350  0.77121300  0.78181850  1
  C  148  1  0.60760600  0.82905400  0.69541600  1
  C  149  1  0.59774650  0.84660900  0.66805150  1
  C  150  1  0.56962300  0.81795450  0.66752050  1
  C  151  1  0.55975950  0.78073050  0.69493500  1
  C  152  1  0.55217800  0.82323900  0.64408700  1
  C  153  1  0.52341800  0.78992000  0.64878000  1
  C  154  1  0.51167600  0.75116150  0.67648450  1
  C  155  1  0.53044000  0.74698800  0.69955500  1
  C  156  1  0.63691650  0.85374800  0.69985250  1
  C  157  1  0.65567600  0.89558150  0.67692550  1
  C  158  1  0.64393300  0.91155200  0.64991100  1
  C  159  1  0.61518400  0.88748800  0.64533700  1
  C  172  1  0.58368200  0.78516900  0.71489800  1
  C  173  1  0.48087250  0.71897050  0.68169200  1
  C  174  1  0.68648350  0.92116200  0.67831650  1
  C  175  1  0.48699450  0.75867800  0.84611650  1
  C  176  1  0.68033350  0.75058950  0.64472700  1
  C  181  1  0.33765450  0.55934600  0.23444250  1
  C  182  1  0.30069200  0.54997200  0.26204700  1
  C  183  1  0.27171250  0.52057650  0.26246100  1
  C  184  1  0.28994000  0.51120200  0.23487500  1
  C  185  1  0.26664400  0.48278600  0.22882000  1
  C  186  1  0.22481050  0.46357050  0.25051900  1
  C  187  1  0.20727200  0.47319550  0.27887250  1
  C  188  1  0.23043950  0.50151500  0.28496950  1
  C  189  1  0.29724600  0.56901900  0.28427500  1
  C  190  1  0.33166350  0.59734250  0.27911700  1
  C  191  1  0.36964150  0.60698150  0.25194100  1
  C  192  1  0.37212500  0.58777550  0.22930950  1
  C  193  1  0.35352750  0.51135250  0.21931900  1
  C  194  1  0.38094250  0.52121600  0.18209450  1
  C  195  1  0.38041600  0.54934400  0.15344200  1
  C  196  1  0.35305100  0.55920000  0.17100100  1
  C  197  1  0.40313500  0.56678850  0.11256550  1
  C  198  1  0.39856250  0.59553650  0.08850600  1
  C  199  1  0.37154250  0.60727000  0.10447850  1
  C  200  1  0.34861650  0.58850900  0.14631050  1
  C  201  1  0.34890450  0.48203600  0.25306150  1
  C  202  1  0.37197700  0.46327850  0.24888950  1
  C  203  1  0.39967800  0.47501650  0.21013050  1
  C  204  1  0.40437500  0.50377550  0.17681250  1
  C  217  1  0.33357150  0.53527650  0.21488200  1
  C  218  1  0.37015450  0.63807650  0.07890000  1
  C  219  1  0.36675450  0.43246150  0.28107300  1
  C  220  1  0.40377600  0.63195350  0.24943550  1
  C  221  1  0.20233600  0.43860550  0.24135450  1
  C  226  1  0.82974350  0.51165950  0.69463100  1
  C  227  1  0.86670450  0.52101600  0.66704550  1
  C  228  1  0.89568450  0.54957600  0.66746750  1
  C  229  1  0.87745400  0.55893600  0.69506900  1
  C  230  1  0.90075150  0.58826900  0.70020550  1
  C  231  1  0.94258600  0.60841400  0.67757400  1
  C  232  1  0.96012400  0.59760500  0.65040300  1
  C  233  1  0.93695700  0.56833600  0.64525600  1
  C  234  1  0.87015600  0.50225000  0.64453700  1
  C  235  1  0.83573800  0.47297150  0.65064950  1
  C  236  1  0.79776150  0.46217950  0.67897700  1
  C  237  1  0.79527400  0.48232150  0.70067150  1
  C  238  1  0.81386700  0.51089150  0.75851250  1
  C  239  1  0.78645500  0.52069950  0.77606850  1
  C  240  1  0.78698150  0.54988100  0.74741750  1
  C  241  1  0.81433500  0.55968950  0.71019050  1
  C  242  1  0.76426000  0.56803250  0.75270850  1
  C  243  1  0.76880700  0.59664950  0.71939550  1
  C  244  1  0.79582200  0.60771050  0.68063450  1
  C  245  1  0.81876000  0.58881850  0.67645450  1
  C  246  1  0.81848150  0.48176500  0.78320850  1
  C  247  1  0.79540750  0.46285850  0.82504100  1
  C  248  1  0.76770400  0.47390850  0.84100850  1
  C  249  1  0.76301450  0.50253750  0.81694600  1
  C  262  1  0.83382400  0.53529450  0.71462850  1
  C  263  1  0.79720950  0.63470300  0.64845150  1
  C  264  1  0.80062850  0.43588450  0.85062500  1
  C  265  1  0.76362850  0.43054750  0.68814200  1
  C  266  1  0.96505950  0.64005000  0.68006650  1
  C  541  1  0.76474800  0.36034500  0.60042100  1
  C  543  1  0.74197550  0.35391350  0.66424700  1
  C  544  1  0.76205750  0.39515950  0.64718100  1
  C  546  1  0.78410250  0.40206500  0.58263450  1
  C  553  1  0.12299600  0.71031100  0.60880100  1
  C  555  1  0.06556650  0.71669400  0.62509350  1
  C  556  1  0.04140800  0.67544550  0.64629550  1
  C  558  1  0.09907400  0.66858350  0.63119950  1
  C  565  1  0.40264250  0.71854200  0.32077250  1
  C  567  1  0.42542200  0.67749750  0.30442450  1
  C  568  1  0.40534600  0.67448600  0.28325300  1
  C  570  1  0.38329850  0.71698300  0.29839550  1
  C  577  1  0.04439300  0.35195850  0.32903050  1
  C  579  1  0.10182250  0.39309250  0.26521200  1
  C  580  1  0.12598650  0.39604050  0.28229800  1
  C  582  1  0.06832100  0.35347050  0.34683050  1
  C  589  1  0.43966300  0.07456100  0.28981600  1
  C  591  1  0.42330950  0.01715500  0.28339950  1
  C  592  1  0.40214850  0.99298900  0.32464450  1
  C  594  1  0.41730500  0.05064100  0.33153500  1
  C  601  1  0.44796200  0.71624450  0.63977150  1
  C  603  1  0.38414450  0.69357150  0.64615000  1
  C  604  1  0.40123700  0.71362550  0.60490250  1
  C  606  1  0.46576850  0.73558350  0.59804400  1
  C  613  1  0.71937200  0.99603900  0.64802100  1
  C  615  1  0.78319550  0.05344450  0.60696300  1
  C  616  1  0.76611850  0.07761250  0.60395000  1
  C  618  1  0.70157600  0.01996100  0.64645100  1
  C  625  1  0.72772000  0.35437100  0.28143300  1
  C  627  1  0.74401750  0.37704300  0.32257550  1
  C  628  1  0.76521550  0.35699500  0.32552850  1
  C  630  1  0.75010900  0.33503400  0.28296100  1
  C  637  1  0.40041250  0.67096400  0.00403450  1
  C  639  1  0.44145800  0.73478800  0.94663700  1
  C  640  1  0.44446300  0.71771400  0.92246300  1
  C  642  1  0.40196650  0.65317000  0.98010850  1
  C  649  1  0.76701850  0.67933800  0.64573350  1
  C  651  1  0.72586950  0.69561650  0.62306100  1
  C  652  1  0.72290550  0.71681400  0.64311050  1
  C  654  1  0.76548950  0.70173500  0.66506350  1
  C  661  1  0.75863600  0.39131400  0.92550200  1
  C  663  1  0.76506050  0.37497350  0.98290500  1
  C  664  1  0.72381300  0.35381350  0.00707750  1
  C  666  1  0.71691600  0.36895400  0.94943000  1
  C  673  1  0.40865500  0.39954350  0.28383350  1
  C  675  1  0.40227300  0.33572950  0.30651450  1
  C  676  1  0.44352100  0.35282600  0.28647200  1
  C  678  1  0.45038150  0.41735350  0.26450900  1
  H  25  1  0.98967600  0.36797400  0.39159400  1
  H  26  1  0.94830900  0.37482600  0.44058600  1
  H  27  1  0.89903250  0.37580850  0.48886900  1
  H  28  1  0.84317400  0.36818200  0.53785200  1
  H  29  1  0.76803900  0.28007200  0.52580100  1
  H  30  1  0.88954050  0.28073900  0.40366050  1
  H  31  1  0.83873350  0.35049350  0.40649900  1
  H  32  1  0.75202300  0.28014600  0.39004300  1
  H  33  1  0.74388750  0.22179500  0.43808850  1
  H  34  1  0.84061850  0.23209500  0.52300050  1
  H  35  1  0.74350100  0.16885400  0.49140800  1
  H  36  1  0.75378950  0.12893800  0.53947250  1
  H  42  1  0.96013300  0.31080550  0.34695150  1
  H  43  1  0.74137350  0.29393700  0.58250150  1
  H  44  1  0.83163550  0.16740100  0.56166950  1
  H  45  1  0.81264800  0.38017600  0.36786900  1
  H  70  1  0.32419500  0.70267350  0.39138950  1
  H  71  1  0.26834200  0.69581050  0.43961350  1
  H  72  1  0.21907150  0.69482400  0.48986950  1
  H  73  1  0.17770800  0.70244250  0.53809850  1
  H  74  1  0.27785050  0.79052700  0.52517150  1
  H  75  1  0.39934100  0.78987900  0.40433600  1
  H  76  1  0.32675750  0.72011600  0.52489450  1
  H  77  1  0.41356300  0.79047550  0.54124550  1
  H  78  1  0.42385900  0.84882300  0.49103400  1
  H  79  1  0.32864100  0.83850850  0.40461050  1
  H  80  1  0.42346900  0.90175600  0.43848700  1
  H  81  1  0.41531750  0.94167100  0.38828350  1
  H  87  1  0.42602350  0.75993000  0.36374050  1
  H  88  1  0.20728300  0.77658850  0.56579650  1
  H  89  1  0.35464950  0.90320800  0.34890650  1
  H  90  1  0.33570300  0.69044000  0.58066900  1
  H  115  1  0.65701750  0.27580900  0.29741850  1
  H  116  1  0.60879400  0.21995750  0.30427250  1
  H  117  1  0.55851800  0.17068450  0.30527350  1
  H  118  1  0.51028250  0.12931750  0.29765000  1
  H  119  1  0.52324450  0.22946000  0.20954850  1
  H  120  1  0.64409200  0.35095750  0.21020250  1
  H  121  1  0.52352200  0.27835400  0.27996500  1
  H  122  1  0.50720300  0.36518850  0.20962350  1
  H  123  1  0.55741800  0.37546067  0.15130333  1
  H  124  1  0.64382250  0.28027150  0.16155900  1
  H  125  1  0.60994200  0.37505517  0.09836683  1
  H  126  1  0.66015700  0.36695700  0.05841300  1
  H  132  1  0.68470950  0.37764700  0.24015650  1
  H  133  1  0.48250900  0.15894900  0.22354800  1
  H  134  1  0.69954650  0.30631800  0.09686450  1
  H  135  1  0.46779350  0.28732900  0.30966050  1
  H  160  1  0.65681700  0.94128150  0.63215650  1
  H  161  1  0.60782450  0.89991300  0.62529050  1
  H  162  1  0.55955200  0.85064600  0.62429100  1
  H  163  1  0.51055300  0.79479900  0.63191400  1
  H  164  1  0.52260200  0.71964100  0.71999800  1
  H  165  1  0.64475650  0.84113850  0.71935800  1
  H  166  1  0.64193050  0.79032100  0.64959550  1
  H  167  1  0.65837100  0.70362250  0.71995950  1
  H  168  1  0.61032050  0.69549550  0.77830100  1
  H  169  1  0.52542700  0.79222550  0.76798250  1
  H  170  1  0.55699950  0.69510950  0.83122700  1
  H  171  1  0.50894000  0.70540000  0.87114100  1
  H  177  1  0.70140950  0.91169950  0.68938600  1
  H  178  1  0.46596950  0.69295550  0.70605200  1
  H  179  1  0.48673650  0.78322900  0.83267850  1
  H  180  1  0.68057350  0.76425550  0.61992000  1
  H  205  1  0.41655200  0.46216150  0.20525350  1
  H  206  1  0.42418050  0.51115800  0.14940650  1
  H  207  1  0.42316750  0.55941650  0.10013900  1
  H  208  1  0.41630250  0.60840650  0.05877600  1
  H  209  1  0.32911450  0.59634950  0.15892300  1
  H  210  1  0.32846150  0.47420050  0.28040700  1
  H  211  1  0.28047450  0.47702300  0.20781850  1
  H  212  1  0.17732650  0.46054000  0.29464850  1
  H  213  1  0.21725150  0.50859550  0.30494300  1
  H  214  1  0.39888550  0.59352750  0.20972700  1
  H  215  1  0.27019150  0.56193900  0.30454150  1
  H  216  1  0.32854600  0.60999600  0.29641000  1
  H  222  1  0.34245650  0.41765950  0.30712700  1
  H  223  1  0.35903200  0.65296000  0.08838300  1
  H  224  1  0.42858100  0.63220000  0.23575400  1
  H  225  1  0.21575750  0.43836800  0.21678550  1
  H  250  1  0.75084900  0.46192750  0.87073950  1
  H  251  1  0.74323350  0.51016050  0.82937200  1
  H  252  1  0.74423400  0.56042500  0.78011600  1
  H  253  1  0.75107700  0.60864850  0.72428150  1
  H  254  1  0.83827200  0.59573050  0.64910550  1
  H  255  1  0.83892700  0.47486750  0.77060050  1
  H  256  1  0.88692200  0.59544800  0.71978900  1
  H  257  1  0.99006750  0.61179200  0.63309650  1
  H  258  1  0.95014350  0.56157450  0.62496400  1
  H  259  1  0.76851350  0.47514500  0.72167950  1
  H  260  1  0.89720950  0.50902500  0.62457550  1
  H  261  1  0.83885350  0.45881050  0.63486400  1
  H  267  1  0.82506700  0.43436000  0.84117400  1
  H  268  1  0.80831400  0.63634950  0.62244050  1
  H  269  1  0.73881950  0.41944150  0.71269100  1
  H  270  1  0.95164050  0.65120400  0.69371650  1
  H  547  1  0.72704400  0.33586250  0.69409050  1
  H  559  1  0.05375050  0.73472450  0.62198900  1
  H  571  1  0.44034850  0.66258200  0.30755050  1
  H  583  1  0.11363450  0.40801300  0.23536550  1
  H  595  1  0.42643050  0.00535650  0.26535300  1
  H  607  1  0.35429700  0.67864400  0.66417800  1
  H  619  1  0.81303950  0.06524400  0.59204750  1
  H  631  1  0.74091900  0.39197000  0.33749700  1
  H  643  1  0.45637900  0.76463200  0.93484200  1
  H  655  1  0.71095300  0.69251200  0.60813000  1
  H  667  1  0.78311000  0.37809400  0.99470200  1
  H  679  1  0.38424350  0.30588250  0.32144000  1
  N  542  1  0.74499950  0.33807500  0.64034150  1
  N  545  1  0.78236350  0.41717200  0.60733250  1
  N  548  1  0.80902750  0.42839650  0.54124500  1
  N  551  1  0.77247100  0.34377750  0.57907450  1
  N  552  1  0.76174450  0.41231250  0.66870800  1
  N  554  1  0.10531200  0.73254700  0.60624500  1
  N  557  1  0.05927000  0.65346400  0.64799900  1
  N  560  1  0.11409950  0.64223600  0.63252350  1
  N  563  1  0.16087000  0.72678150  0.58444050  1
  N  564  1  0.00272850  0.65823950  0.66370900  1
  N  566  1  0.42239000  0.69836950  0.32329650  1
  N  569  1  0.38504200  0.69402950  0.28154650  1
  N  572  1  0.35837500  0.73344800  0.29698800  1
  N  575  1  0.39489600  0.73213950  0.34508350  1
  N  576  1  0.40565000  0.65326800  0.26579100  1
  N  578  1  0.06207700  0.37220350  0.28910750  1
  N  581  1  0.10812450  0.37646650  0.32214400  1
  N  584  1  0.05330000  0.33711550  0.38820550  1
  N  587  1  0.00652200  0.33844350  0.35044850  1
  N  588  1  0.16466600  0.41729350  0.26082450  1
  N  590  1  0.44218100  0.05690200  0.26755300  1
  N  593  1  0.40045600  0.01083500  0.34664800  1
  N  596  1  0.41591750  0.06570900  0.35785750  1
  N  599  1  0.46399600  0.11246750  0.27323150  1
  N  600  1  0.38469700  0.95431100  0.34181200  1
  N  602  1  0.40803700  0.69656250  0.66200450  1
  N  605  1  0.44108450  0.73390550  0.58292400  1
  N  608  1  0.50714400  0.76061300  0.57169700  1
  N  611  1  0.46936450  0.72412250  0.65624800  1
  N  612  1  0.37976900  0.71342200  0.58769100  1
  N  614  1  0.75929500  0.01369850  0.62784650  1
  N  617  1  0.72627000  0.05976650  0.62348850  1
  N  620  1  0.66018650  0.00489600  0.66290650  1
  N  623  1  0.69804000  0.95812300  0.66163700  1
  N  624  1  0.78763400  0.11629250  0.58272550  1
  N  626  1  0.72516850  0.37405000  0.30167750  1
  N  629  1  0.76691150  0.33671350  0.30596300  1
  N  632  1  0.75142400  0.31000500  0.26661400  1
  N  635  1  0.70336450  0.34649300  0.26791150  1
  N  636  1  0.78263250  0.35720200  0.34679050  1
  N  638  1  0.42058900  0.71088550  0.98638050  1
  N  641  1  0.42491850  0.67786500  0.94030550  1
  N  644  1  0.38550150  0.61177850  0.99517200  1
  N  647  1  0.38682400  0.64962800  0.04194200  1
  N  648  1  0.46568200  0.73923000  0.88378500  1
  N  650  1  0.74677450  0.67677750  0.62605300  1
  N  653  1  0.74248000  0.71852800  0.66338400  1
  N  656  1  0.78184700  0.70306900  0.69008400  1
  N  659  1  0.78054550  0.65498750  0.65361400  1
  N  660  1  0.70165050  0.73423850  0.64287900  1
  N  662  1  0.78090200  0.39383350  0.94316050  1
  N  665  1  0.70180650  0.35211350  0.98923300  1
  N  668  1  0.69058350  0.36755100  0.93437150  1
  N  671  1  0.77521300  0.41559900  0.88758300  1
  N  672  1  0.70664600  0.33635700  0.04575700  1
  N  674  1  0.38641900  0.35962000  0.30351300  1
  N  677  1  0.46550400  0.39267300  0.26619500  1
  N  680  1  0.47672950  0.45873100  0.23948450  1
  N  683  1  0.39218100  0.42093750  0.27593250  1
  N  684  1  0.46072650  0.33135400  0.28669350  1
  O  549  1  0.81033750  0.46108000  0.53149450  1
  O  550  1  0.79654200  0.41680450  0.52125550  1
  O  561  1  0.09117700  0.60953600  0.66388200  1
  O  562  1  0.14569700  0.65379250  0.63339050  1
  O  573  1  0.35706000  0.74188050  0.26561550  1
  O  574  1  0.37087300  0.76592850  0.29608150  1
  O  585  1  0.07622850  0.32868600  0.39797750  1
  O  586  1  0.02170750  0.30464600  0.40824350  1
  O  597  1  0.38454450  0.04278100  0.39054450  1
  O  598  1  0.41502950  0.09729100  0.34625950  1
  O  609  1  0.51691950  0.76194950  0.53899900  1
  O  610  1  0.52718850  0.74819800  0.58325150  1
  O  621  1  0.65043000  0.02782350  0.67135450  1
  O  622  1  0.64019650  0.97331050  0.69537700  1
  O  633  1  0.78278400  0.30866700  0.25817200  1
  O  634  1  0.75228050  0.32242000  0.23415450  1
  O  645  1  0.37705850  0.60202350  0.97224000  1
  O  646  1  0.35302850  0.59179700  0.02674750  1
  O  657  1  0.79028800  0.73443250  0.69141750  1
  O  658  1  0.81430850  0.70393500  0.67766650  1
  O  669  1  0.65790000  0.33617200  0.95730200  1
  O  670  1  0.70217350  0.36666150  0.90278800  1
  O  681  1  0.50943250  0.46851250  0.23814200  1
  O  682  1  0.46517450  0.47876800  0.25191050  1
