# generated using pymatgen
data_MnH9C15NO4
_symmetry_space_group_name_H-M   'P 1'
_cell_length_a   7.91277000
_cell_length_b   10.04528000
_cell_length_c   12.51568000
_cell_angle_alpha   103.46943000
_cell_angle_beta   91.64910000
_cell_angle_gamma   113.10389000
_symmetry_Int_Tables_number   1
_chemical_formula_structural   MnH9C15NO4
_chemical_formula_sum   'Mn2 H18 C30 N2 O8'
_cell_volume   881.79493047
_cell_formula_units_Z   2
loop_
 _symmetry_equiv_pos_site_id
 _symmetry_equiv_pos_as_xyz
  1  'x, y, z'
loop_
 _atom_site_type_symbol
 _atom_site_label
 _atom_site_symmetry_multiplicity
 _atom_site_fract_x
 _atom_site_fract_y
 _atom_site_fract_z
 _atom_site_occupancy
  Mn  Mn1  1  0.96342000  0.28606000  0.46479000  1.0
  Mn  Mn2  1  0.03658000  0.71394000  0.53521000  1.0
  H  H1  1  0.48106000  0.81653000  0.47484000  1.0
  H  H2  1  0.65400000  0.88259000  0.16318000  1.0
  H  H3  1  0.23648000  0.45488000  0.17969000  1.0
  H  H4  1  0.48572000  0.68283000  0.99125000  1.0
  H  H5  1  0.25185000  0.37233000  0.01932000  1.0
  H  H6  1  0.88375000  0.15157000  0.66700000  1.0
  H  H7  1  0.01322000  0.20927000  0.86452000  1.0
  H  H8  1  0.44554000  0.61161000  0.81973000  1.0
  H  H9  1  0.29876000  0.53863000  0.62707000  1.0
  H  H10  1  0.51894000  0.18347000  0.52516000  1.0
  H  H11  1  0.34600000  0.11741000  0.83682000  1.0
  H  H12  1  0.76352000  0.54511000  0.82031000  1.0
  H  H13  1  0.51427000  0.31717000  0.00875000  1.0
  H  H14  1  0.74815000  0.62766000  0.98068000  1.0
  H  H15  1  0.11625000  0.84843000  0.33301000  1.0
  H  H16  1  0.98677000  0.79073000  0.13548000  1.0
  H  H17  1  0.55445000  0.38839000  0.18028000  1.0
  H  H18  1  0.70124000  0.46137000  0.37293000  1.0
  C  C1  1  0.22377000  0.53163000  0.39877000  1.0
  C  C2  1  0.34055000  0.62787000  0.33178000  1.0
  C  C3  1  0.46785000  0.77365000  0.38553000  1.0
  C  C4  1  0.58024000  0.86471000  0.32383000  1.0
  C  C5  1  0.72081000  0.01887000  0.38002000  1.0
  C  C6  1  0.56456000  0.80907000  0.20904000  1.0
  C  C7  1  0.44563000  0.66016000  0.15474000  1.0
  C  C8  1  0.33186000  0.57095000  0.21703000  1.0
  C  C9  1  0.47389000  0.60062000  0.03805000  1.0
  C  C10  1  0.34689000  0.43835000  0.97069000  1.0
  C  C11  1  0.00743000  0.25274000  0.70511000  1.0
  C  C12  1  0.08136000  0.28654000  0.81536000  1.0
  C  C13  1  0.24449000  0.41526000  0.86072000  1.0
  C  C14  1  0.32056000  0.50854000  0.79139000  1.0
  C  C15  1  0.24059000  0.46775000  0.68200000  1.0
  C  C16  1  0.77623000  0.46836000  0.60123000  1.0
  C  C17  1  0.65945000  0.37213000  0.66822000  1.0
  C  C18  1  0.53215000  0.22635000  0.61447000  1.0
  C  C19  1  0.41976000  0.13529000  0.67617000  1.0
  C  C20  1  0.27918000  0.98112000  0.61999000  1.0
  C  C21  1  0.43543000  0.19093000  0.79096000  1.0
  C  C22  1  0.55437000  0.33984000  0.84526000  1.0
  C  C23  1  0.66813000  0.42904000  0.78297000  1.0
  C  C24  1  0.52611000  0.39938000  0.96195000  1.0
  C  C25  1  0.65311000  0.56165000  0.02931000  1.0
  C  C26  1  0.99257000  0.74726000  0.29489000  1.0
  C  C27  1  0.91864000  0.71346000  0.18465000  1.0
  C  C28  1  0.75551000  0.58473000  0.13928000  1.0
  C  C29  1  0.67944000  0.49146000  0.20861000  1.0
  C  C30  1  0.75941000  0.53224000  0.31800000  1.0
  N  N1  1  0.08778000  0.34036000  0.63747000  1.0
  N  N2  1  0.91222000  0.65963000  0.36254000  1.0
  O  O1  1  0.15386000  0.38898000  0.36161000  1.0
  O  O2  1  0.19965000  0.59719000  0.49479000  1.0
  O  O3  1  0.77490000  0.05388000  0.48375000  1.0
  O  O4  1  0.78645000  0.11362000  0.32242000  1.0
  O  O5  1  0.84613000  0.61101000  0.63839000  1.0
  O  O6  1  0.80035000  0.40280000  0.50521000  1.0
  O  O7  1  0.22510000  0.94611000  0.51625000  1.0
  O  O8  1  0.21355000  0.88637000  0.67759000  1.0
