# generated using pymatgen
data_H5C7N2O
_symmetry_space_group_name_H-M   'P 1'
_cell_length_a   14.14810000
_cell_length_b   14.14810000
_cell_length_c   20.00840000
_cell_angle_alpha   90.00000000
_cell_angle_beta   90.00000000
_cell_angle_gamma   90.00000000
_symmetry_Int_Tables_number   1
_chemical_formula_structural   H5C7N2O
_chemical_formula_sum   'H40 C56 N16 O8'
_cell_volume   4005.05608956
_cell_formula_units_Z   8
loop_
 _symmetry_equiv_pos_site_id
 _symmetry_equiv_pos_as_xyz
  1  'x, y, z'
loop_
 _atom_site_type_symbol
 _atom_site_label
 _atom_site_symmetry_multiplicity
 _atom_site_fract_x
 _atom_site_fract_y
 _atom_site_fract_z
 _atom_site_occupancy
  C  1  1  0.49780800  0.99582200  0.97726800  1
  C  2  1  0.58136600  0.00999500  0.93952400  1
  C  3  1  0.58578000  0.00844300  0.86865900  1
  C  4  1  0.49891100  0.99731700  0.83239200  1
  C  5  1  0.41169100  0.98445900  0.86790700  1
  C  6  1  0.41499100  0.98164300  0.93875200  1
  C  9  1  0.49692700  0.99615400  0.04927700  1
  C  10  1  0.57179000  0.03487700  0.08779600  1
  C  11  1  0.57532600  0.03016400  0.15848200  1
  C  12  1  0.49462800  0.99829700  0.19443700  1
  C  13  1  0.41521100  0.96501500  0.15769300  1
  C  14  1  0.42103600  0.95813900  0.08716800  1
  C  23  1  0.32553200  0.95237400  0.18761100  1
  C  24  1  0.66407900  0.04309800  0.18963400  1
  C  25  1  0.67812400  0.00988500  0.83925600  1
  C  26  1  0.31965700  0.98309200  0.83811700  1
  C  31  1  0.99758700  0.49619000  0.47730700  1
  C  32  1  0.98338500  0.57900700  0.43879400  1
  C  33  1  0.98578100  0.58225900  0.36795400  1
  C  34  1  0.99823400  0.49499600  0.33243500  1
  C  35  1  0.00967200  0.40817900  0.36872300  1
  C  36  1  0.01182100  0.41259500  0.43958500  1
  C  39  1  0.99747400  0.49707900  0.54931800  1
  C  40  1  0.95912100  0.57295700  0.58706300  1
  C  41  1  0.96487700  0.57854100  0.65763600  1
  C  42  1  0.99709700  0.49880600  0.69450500  1
  C  43  1  0.03007800  0.41847500  0.65864800  1
  C  44  1  0.03590200  0.42222800  0.58799800  1
  C  53  1  0.04316600  0.32966600  0.68968000  1
  C  54  1  0.95235300  0.66817200  0.68767000  1
  C  55  1  0.98359400  0.67425700  0.33812700  1
  C  56  1  0.01030200  0.31580300  0.33936100  1
  C  61  1  0.02842200  0.95774600  0.23527100  1
  C  62  1  0.00393400  0.86985400  0.26518700  1
  C  63  1  0.06105800  0.78765200  0.25939000  1
  C  64  1  0.14358400  0.79697500  0.21996600  1
  C  65  1  0.17261900  0.88373900  0.19215300  1
  C  66  1  0.11211800  0.96397300  0.19595200  1
  C  69  1  0.96236100  0.03326500  0.23600500  1
  C  70  1  0.87765000  0.02761200  0.19769600  1
  C  71  1  0.81851500  0.10887200  0.19371700  1
  C  72  1  0.84907100  0.19543000  0.22099700  1
  C  73  1  0.93184900  0.20369200  0.26023000  1
  C  74  1  0.98819500  0.12095200  0.26570100  1
  C  91  1  0.03633200  0.03140000  0.73579800  1
  C  92  1  0.12414000  0.00583200  0.76539600  1
  C  93  1  0.20661800  0.06264500  0.76015200  1
  C  94  1  0.19777000  0.14588900  0.72145100  1
  C  95  1  0.11108600  0.17603200  0.69410800  1
  C  96  1  0.03036600  0.11612500  0.69757100  1
  C  99  1  0.96080300  0.96534400  0.73539600  1
  C  100  1  0.96675500  0.88160900  0.69607000  1
  C  101  1  0.88592700  0.82195300  0.69168900  1
  C  102  1  0.79924100  0.85146300  0.71936000  1
  C  103  1  0.79055700  0.93347700  0.75936500  1
  C  104  1  0.87304200  0.99010000  0.76541300  1
  H  7  1  0.64401900  0.01025100  0.96458900  1
  H  16  1  0.36485800  0.92919800  0.06285800  1
  H  17  1  0.53938900  0.03496000  0.28878700  1
  H  18  1  0.44701600  0.96491700  0.28870300  1
  H  19  1  0.44546200  0.97813700  0.73789400  1
  H  20  1  0.55313700  0.02133400  0.73870900  1
  H  21  1  0.35188200  0.98088700  0.96323400  1
  H  22  1  0.62872500  0.06310500  0.06394300  1
  H  37  1  0.98292900  0.64209000  0.46330000  1
  H  46  1  0.06455400  0.36541600  0.56423200  1
  H  47  1  0.96107500  0.54583700  0.78841300  1
  H  48  1  0.03113800  0.45348600  0.78922800  1
  H  49  1  0.02110200  0.44050000  0.23868400  1
  H  50  1  0.97796800  0.54819700  0.23798500  1
  H  51  1  0.01206800  0.34998800  0.46469800  1
  H  52  1  0.93046300  0.62917000  0.56264300  1
  H  67  1  0.94083500  0.86583600  0.28961300  1
  H  68  1  0.18896100  0.74074500  0.21636700  1
  H  75  1  0.80436500  0.25221300  0.21744700  1
  H  76  1  0.05177000  0.12459300  0.28959200  1
  H  79  1  0.08748500  0.09355000  0.15262900  1
  H  80  1  0.18136200  0.03997100  0.12356800  1
  H  81  1  0.80594500  0.95184700  0.12643600  1
  H  82  1  0.89929700  0.89702100  0.15513000  1
  H  84  1  0.90394300  0.33975200  0.27814200  1
  H  86  1  0.70499500  0.16285100  0.14633700  1
  H  88  1  0.28785800  0.83101100  0.14578300  1
  H  90  1  0.09118100  0.65207700  0.27767200  1
  H  97  1  0.12793600  0.94215100  0.78908800  1
  H  98  1  0.25420800  0.19107500  0.71826200  1
  H  105  1  0.74272700  0.80647100  0.71555200  1
  H  106  1  0.86917200  0.05309900  0.79002800  1
  H  109  1  0.90027500  0.09339200  0.65434000  1
  H  110  1  0.95459300  0.18715100  0.62592900  1
  H  111  1  0.04282100  0.81151400  0.62418400  1
  H  112  1  0.09715400  0.90479200  0.65349000  1
  H  114  1  0.65466600  0.90448100  0.77711800  1
  H  116  1  0.83256700  0.70767300  0.64452600  1
  H  118  1  0.16446200  0.29060900  0.64762700  1
  H  120  1  0.34235400  0.09165300  0.77860000  1
  N  8  1  0.49923600  0.99890700  0.76412300  1
  N  15  1  0.49354600  0.99953700  0.26285300  1
  N  38  1  0.99912500  0.49452800  0.26416300  1
  N  45  1  0.99645500  0.49946100  0.76292900  1
  N  77  1  0.13082000  0.04077000  0.15642400  1
  N  78  1  0.85690900  0.95053300  0.15894600  1
  N  83  1  0.94884300  0.29010000  0.28978300  1
  N  85  1  0.73002300  0.10551400  0.16703400  1
  N  87  1  0.26087900  0.88835900  0.16513000  1
  N  89  1  0.04536600  0.70101000  0.28901300  1
  N  107  1  0.95357300  0.13603300  0.65833600  1
  N  108  1  0.04381700  0.86213300  0.65699400  1
  N  113  1  0.70409900  0.94938800  0.78916300  1
  N  115  1  0.88991700  0.73382100  0.66443200  1
  N  117  1  0.10711200  0.26471800  0.66776900  1
  N  119  1  0.29318600  0.04591800  0.78959800  1
  O  27  1  0.30124400  0.01279500  0.23762300  1
  O  28  1  0.68664700  0.98402900  0.24083400  1
  O  29  1  0.74808100  0.05367900  0.87377200  1
  O  30  1  0.25027700  0.93613900  0.87107300  1
  O  57  1  0.98323700  0.30619800  0.74016400  1
  O  58  1  0.01190500  0.69161000  0.73840900  1
  O  59  1  0.93677100  0.74342300  0.37140400  1
  O  60  1  0.05423500  0.24564600  0.37358800  1
