# generated using pymatgen
data_EuH12C21NO6
_symmetry_space_group_name_H-M   'P 1'
_cell_length_a   14.57580000
_cell_length_b   23.24500000
_cell_length_c   24.81500000
_cell_angle_alpha   90.00000000
_cell_angle_beta   102.90400000
_cell_angle_gamma   90.00000000
_symmetry_Int_Tables_number   1
_chemical_formula_structural   EuH12C21NO6
_chemical_formula_sum   'Eu12 H144 C252 N12 O72'
_cell_volume   8195.35020694
_cell_formula_units_Z   12
loop_
 _symmetry_equiv_pos_site_id
 _symmetry_equiv_pos_as_xyz
  1  'x, y, z'
loop_
 _atom_site_type_symbol
 _atom_site_label
 _atom_site_symmetry_multiplicity
 _atom_site_fract_x
 _atom_site_fract_y
 _atom_site_fract_z
 _atom_site_occupancy
  Eu  Eu1  1  0.75625000  0.74288000  0.77122000  1.0
  Eu  Eu2  1  0.26339000  0.26554000  0.07082000  1.0
  Eu  Eu3  1  0.76125000  0.78210000  0.10669000  1.0
  Eu  Eu4  1  0.24375000  0.24288000  0.72878000  1.0
  Eu  Eu5  1  0.73661000  0.76554000  0.42918000  1.0
  Eu  Eu6  1  0.23875000  0.28210000  0.39331000  1.0
  Eu  Eu7  1  0.24375000  0.25712000  0.22878000  1.0
  Eu  Eu8  1  0.73661000  0.73446000  0.92918000  1.0
  Eu  Eu9  1  0.23875000  0.21790000  0.89331000  1.0
  Eu  Eu10  1  0.75625000  0.75712000  0.27122000  1.0
  Eu  Eu11  1  0.26339000  0.23446000  0.57082000  1.0
  Eu  Eu12  1  0.76125000  0.71790000  0.60669000  1.0
  H  H1  1  0.14470000  0.53590000  0.93390000  1.0
  H  H2  1  0.15060000  0.44090000  0.95630000  1.0
  H  H3  1  0.37090000  0.46880000  0.08270000  1.0
  H  H4  1  0.36710000  0.56500000  0.06170000  1.0
  H  H5  1  0.41060000  0.59930000  0.94910000  1.0
  H  H6  1  0.54870000  0.64860000  0.96670000  1.0
  H  H7  1  0.43820000  0.76940000  0.04600000  1.0
  H  H8  1  0.29770000  0.71840000  0.03130000  1.0
  H  H9  1  0.23240000  0.70450000  0.91050000  1.0
  H  H10  1  0.09890000  0.75060000  0.86320000  1.0
  H  H11  1  0.94350000  0.65430000  0.94120000  1.0
  H  H12  1  0.07870000  0.60930000  0.99250000  1.0
  H  H13  1  0.11340000  0.57100000  0.84250000  1.0
  H  H14  1  0.97050000  0.61200000  0.80470000  1.0
  H  H15  1  0.08170000  0.68120000  0.68470000  1.0
  H  H16  1  0.22620000  0.63780000  0.72390000  1.0
  H  H17  1  0.36600000  0.50760000  0.88990000  1.0
  H  H18  1  0.36930000  0.40790000  0.89880000  1.0
  H  H19  1  0.15310000  0.39660000  0.76650000  1.0
  H  H20  1  0.15800000  0.49530000  0.75690000  1.0
  H  H21  1  0.42110000  0.52700000  0.78560000  1.0
  H  H22  1  0.56170000  0.57090000  0.78550000  1.0
  H  H23  1  0.46670000  0.71570000  0.83980000  1.0
  H  H24  1  0.32500000  0.67590000  0.83600000  1.0
  H  H25  1  0.67810000  0.04000000  0.80950000  1.0
  H  H26  1  0.67980000  0.94440000  0.78740000  1.0
  H  H27  1  0.80710000  0.90870000  0.94360000  1.0
  H  H28  1  0.80490000  0.00510000  0.96710000  1.0
  H  H29  1  0.72240000  0.19370000  0.85170000  1.0
  H  H30  1  0.58210000  0.24150000  0.81700000  1.0
  H  H31  1  0.43950000  0.11870000  0.87510000  1.0
  H  H32  1  0.57810000  0.06990000  0.91000000  1.0
  H  H33  1  0.91220000  0.06460000  0.88900000  1.0
  H  H34  1  0.05670000  0.10770000  0.92390000  1.0
  H  H35  1  0.93260000  0.22690000  0.99650000  1.0
  H  H36  1  0.79150000  0.18460000  0.96400000  1.0
  H  H37  1  0.85530000  0.03590000  0.56610000  1.0
  H  H38  1  0.84940000  0.94090000  0.54370000  1.0
  H  H39  1  0.62910000  0.96880000  0.41730000  1.0
  H  H40  1  0.63290000  0.06500000  0.43830000  1.0
  H  H41  1  0.58940000  0.09930000  0.55090000  1.0
  H  H42  1  0.45130000  0.14860000  0.53330000  1.0
  H  H43  1  0.56180000  0.26940000  0.45400000  1.0
  H  H44  1  0.70230000  0.21840000  0.46870000  1.0
  H  H45  1  0.76760000  0.20450000  0.58950000  1.0
  H  H46  1  0.90110000  0.25060000  0.63680000  1.0
  H  H47  1  0.05650000  0.15430000  0.55880000  1.0
  H  H48  1  0.92130000  0.10930000  0.50750000  1.0
  H  H49  1  0.88660000  0.07100000  0.65750000  1.0
  H  H50  1  0.02950000  0.11200000  0.69530000  1.0
  H  H51  1  0.91830000  0.18120000  0.81530000  1.0
  H  H52  1  0.77380000  0.13780000  0.77610000  1.0
  H  H53  1  0.63400000  0.00760000  0.61010000  1.0
  H  H54  1  0.63070000  0.90790000  0.60120000  1.0
  H  H55  1  0.84690000  0.89660000  0.73350000  1.0
  H  H56  1  0.84200000  0.99530000  0.74310000  1.0
  H  H57  1  0.57890000  0.02700000  0.71440000  1.0
  H  H58  1  0.43830000  0.07090000  0.71450000  1.0
  H  H59  1  0.53330000  0.21570000  0.66020000  1.0
  H  H60  1  0.67500000  0.17590000  0.66400000  1.0
  H  H61  1  0.32190000  0.54000000  0.69050000  1.0
  H  H62  1  0.32020000  0.44440000  0.71260000  1.0
  H  H63  1  0.19290000  0.40870000  0.55640000  1.0
  H  H64  1  0.19510000  0.50510000  0.53290000  1.0
  H  H65  1  0.27760000  0.69370000  0.64830000  1.0
  H  H66  1  0.41790000  0.74150000  0.68300000  1.0
  H  H67  1  0.56050000  0.61870000  0.62490000  1.0
  H  H68  1  0.42190000  0.56990000  0.59000000  1.0
  H  H69  1  0.08780000  0.56460000  0.61100000  1.0
  H  H70  1  0.94330000  0.60770000  0.57610000  1.0
  H  H71  1  0.06740000  0.72690000  0.50350000  1.0
  H  H72  1  0.20850000  0.68460000  0.53600000  1.0
  H  H73  1  0.85530000  0.46410000  0.06610000  1.0
  H  H74  1  0.84940000  0.55910000  0.04370000  1.0
  H  H75  1  0.62910000  0.53120000  0.91730000  1.0
  H  H76  1  0.63290000  0.43500000  0.93830000  1.0
  H  H77  1  0.58940000  0.40070000  0.05090000  1.0
  H  H78  1  0.45130000  0.35140000  0.03330000  1.0
  H  H79  1  0.56180000  0.23060000  0.95400000  1.0
  H  H80  1  0.70230000  0.28160000  0.96870000  1.0
  H  H81  1  0.76760000  0.29550000  0.08950000  1.0
  H  H82  1  0.90110000  0.24940000  0.13680000  1.0
  H  H83  1  0.05650000  0.34570000  0.05880000  1.0
  H  H84  1  0.92130000  0.39070000  0.00750000  1.0
  H  H85  1  0.88660000  0.42900000  0.15750000  1.0
  H  H86  1  0.02950000  0.38800000  0.19530000  1.0
  H  H87  1  0.91830000  0.31880000  0.31530000  1.0
  H  H88  1  0.77380000  0.36220000  0.27610000  1.0
  H  H89  1  0.63400000  0.49240000  0.11010000  1.0
  H  H90  1  0.63070000  0.59210000  0.10120000  1.0
  H  H91  1  0.84690000  0.60340000  0.23350000  1.0
  H  H92  1  0.84200000  0.50470000  0.24310000  1.0
  H  H93  1  0.57890000  0.47300000  0.21440000  1.0
  H  H94  1  0.43830000  0.42910000  0.21450000  1.0
  H  H95  1  0.53330000  0.28430000  0.16020000  1.0
  H  H96  1  0.67500000  0.32410000  0.16400000  1.0
  H  H97  1  0.32190000  0.96000000  0.19050000  1.0
  H  H98  1  0.32020000  0.05560000  0.21260000  1.0
  H  H99  1  0.19290000  0.09130000  0.05640000  1.0
  H  H100  1  0.19510000  0.99490000  0.03290000  1.0
  H  H101  1  0.27760000  0.80630000  0.14830000  1.0
  H  H102  1  0.41790000  0.75850000  0.18300000  1.0
  H  H103  1  0.56050000  0.88130000  0.12490000  1.0
  H  H104  1  0.42190000  0.93010000  0.09000000  1.0
  H  H105  1  0.08780000  0.93540000  0.11100000  1.0
  H  H106  1  0.94330000  0.89230000  0.07610000  1.0
  H  H107  1  0.06740000  0.77310000  0.00350000  1.0
  H  H108  1  0.20850000  0.81540000  0.03600000  1.0
  H  H109  1  0.14470000  0.96410000  0.43390000  1.0
  H  H110  1  0.15060000  0.05910000  0.45630000  1.0
  H  H111  1  0.37090000  0.03120000  0.58270000  1.0
  H  H112  1  0.36710000  0.93500000  0.56170000  1.0
  H  H113  1  0.41060000  0.90070000  0.44910000  1.0
  H  H114  1  0.54870000  0.85140000  0.46670000  1.0
  H  H115  1  0.43820000  0.73060000  0.54600000  1.0
  H  H116  1  0.29770000  0.78160000  0.53130000  1.0
  H  H117  1  0.23240000  0.79550000  0.41050000  1.0
  H  H118  1  0.09890000  0.74940000  0.36320000  1.0
  H  H119  1  0.94350000  0.84570000  0.44120000  1.0
  H  H120  1  0.07870000  0.89070000  0.49250000  1.0
  H  H121  1  0.11340000  0.92900000  0.34250000  1.0
  H  H122  1  0.97050000  0.88800000  0.30470000  1.0
  H  H123  1  0.08170000  0.81880000  0.18470000  1.0
  H  H124  1  0.22620000  0.86220000  0.22390000  1.0
  H  H125  1  0.36600000  0.99240000  0.38990000  1.0
  H  H126  1  0.36930000  0.09210000  0.39880000  1.0
  H  H127  1  0.15310000  0.10340000  0.26650000  1.0
  H  H128  1  0.15800000  0.00470000  0.25690000  1.0
  H  H129  1  0.42110000  0.97300000  0.28560000  1.0
  H  H130  1  0.56170000  0.92910000  0.28550000  1.0
  H  H131  1  0.46670000  0.78430000  0.33980000  1.0
  H  H132  1  0.32500000  0.82410000  0.33600000  1.0
  H  H133  1  0.67810000  0.46000000  0.30950000  1.0
  H  H134  1  0.67980000  0.55560000  0.28740000  1.0
  H  H135  1  0.80710000  0.59130000  0.44360000  1.0
  H  H136  1  0.80490000  0.49490000  0.46710000  1.0
  H  H137  1  0.72240000  0.30630000  0.35170000  1.0
  H  H138  1  0.58210000  0.25850000  0.31700000  1.0
  H  H139  1  0.43950000  0.38130000  0.37510000  1.0
  H  H140  1  0.57810000  0.43010000  0.41000000  1.0
  H  H141  1  0.91220000  0.43540000  0.38900000  1.0
  H  H142  1  0.05670000  0.39230000  0.42390000  1.0
  H  H143  1  0.93260000  0.27310000  0.49650000  1.0
  H  H144  1  0.79150000  0.31540000  0.46400000  1.0
  C  C1  1  0.25610000  0.56190000  0.99540000  1.0
  C  C2  1  0.19000000  0.52270000  0.96390000  1.0
  C  C3  1  0.19330000  0.46600000  0.97780000  1.0
  C  C4  1  0.25860000  0.44390000  0.02340000  1.0
  C  C5  1  0.32480000  0.48250000  0.05330000  1.0
  C  C6  1  0.32330000  0.54030000  0.04040000  1.0
  C  C7  1  0.25610000  0.38400000  0.03980000  1.0
  C  C8  1  0.41680000  0.63290000  0.97000000  1.0
  C  C9  1  0.49810000  0.66260000  0.97990000  1.0
  C  C10  1  0.50790000  0.71260000  0.00870000  1.0
  C  C11  1  0.43250000  0.73430000  0.02750000  1.0
  C  C12  1  0.34900000  0.70440000  0.01880000  1.0
  C  C13  1  0.34430000  0.65220000  0.99060000  1.0
  C  C14  1  0.59850000  0.74730000  0.02310000  1.0
  C  C15  1  0.16960000  0.64950000  0.95350000  1.0
  C  C16  1  0.17410000  0.69330000  0.91630000  1.0
  C  C17  1  0.09350000  0.72090000  0.88740000  1.0
  C  C18  1  0.00570000  0.70510000  0.89390000  1.0
  C  C19  1  0.00180000  0.66380000  0.93430000  1.0
  C  C20  1  0.08300000  0.63590000  0.96520000  1.0
  C  C21  1  0.91640000  0.72800000  0.86110000  1.0
  C  C22  1  0.18450000  0.59980000  0.78590000  1.0
  C  C23  1  0.10650000  0.59280000  0.81040000  1.0
  C  C24  1  0.02120000  0.61720000  0.78820000  1.0
  C  C25  1  0.01160000  0.64990000  0.74040000  1.0
  C  C26  1  0.08800000  0.65850000  0.71620000  1.0
  C  C27  1  0.17500000  0.63250000  0.74000000  1.0
  C  C28  1  0.91630000  0.67550000  0.71440000  1.0
  C  C29  1  0.26540000  0.51090000  0.82040000  1.0
  C  C30  1  0.32530000  0.48510000  0.86410000  1.0
  C  C31  1  0.32610000  0.42520000  0.87010000  1.0
  C  C32  1  0.26270000  0.39170000  0.83340000  1.0
  C  C33  1  0.19770000  0.41830000  0.79080000  1.0
  C  C34  1  0.20110000  0.47760000  0.78540000  1.0
  C  C35  1  0.26480000  0.32820000  0.84090000  1.0
  C  C36  1  0.35790000  0.59790000  0.81120000  1.0
  C  C37  1  0.43050000  0.56540000  0.79570000  1.0
  C  C38  1  0.51400000  0.59150000  0.79610000  1.0
  C  C39  1  0.52890000  0.64830000  0.81210000  1.0
  C  C40  1  0.45640000  0.67780000  0.82780000  1.0
  C  C41  1  0.37280000  0.65430000  0.82650000  1.0
  C  C42  1  0.62150000  0.67600000  0.81160000  1.0
  C  C43  1  0.74350000  0.03400000  0.89060000  1.0
  C  C44  1  0.70480000  0.01370000  0.83680000  1.0
  C  C45  1  0.70520000  0.95640000  0.82340000  1.0
  C  C46  1  0.74330000  0.91670000  0.86340000  1.0
  C  C47  1  0.78090000  0.93550000  0.91660000  1.0
  C  C48  1  0.78050000  0.99360000  0.93080000  1.0
  C  C49  1  0.74590000  0.85420000  0.84950000  1.0
  C  C50  1  0.66580000  0.12670000  0.88270000  1.0
  C  C51  1  0.66590000  0.17790000  0.85610000  1.0
  C  C52  1  0.58130000  0.20670000  0.83540000  1.0
  C  C53  1  0.49630000  0.18440000  0.84190000  1.0
  C  C54  1  0.49610000  0.13360000  0.86990000  1.0
  C  C55  1  0.57900000  0.10420000  0.89080000  1.0
  C  C56  1  0.40730000  0.21620000  0.81650000  1.0
  C  C57  1  0.83560000  0.12040000  0.92340000  1.0
  C  C58  1  0.91590000  0.09740000  0.91080000  1.0
  C  C59  1  0.00290000  0.12420000  0.93150000  1.0
  C  C60  1  0.01220000  0.17280000  0.96180000  1.0
  C  C61  1  0.92940000  0.19430000  0.97440000  1.0
  C  C62  1  0.84480000  0.16870000  0.95520000  1.0
  C  C63  1  0.10790000  0.19740000  0.98330000  1.0
  C  C64  1  0.74390000  0.06190000  0.50460000  1.0
  C  C65  1  0.81000000  0.02270000  0.53610000  1.0
  C  C66  1  0.80670000  0.96600000  0.52220000  1.0
  C  C67  1  0.74140000  0.94390000  0.47660000  1.0
  C  C68  1  0.67520000  0.98250000  0.44670000  1.0
  C  C69  1  0.67670000  0.04030000  0.45960000  1.0
  C  C70  1  0.74390000  0.88400000  0.46020000  1.0
  C  C71  1  0.58320000  0.13290000  0.53000000  1.0
  C  C72  1  0.50190000  0.16260000  0.52010000  1.0
  C  C73  1  0.49210000  0.21260000  0.49130000  1.0
  C  C74  1  0.56750000  0.23430000  0.47250000  1.0
  C  C75  1  0.65100000  0.20440000  0.48120000  1.0
  C  C76  1  0.65570000  0.15220000  0.50940000  1.0
  C  C77  1  0.40150000  0.24730000  0.47690000  1.0
  C  C78  1  0.83040000  0.14950000  0.54650000  1.0
  C  C79  1  0.82590000  0.19330000  0.58370000  1.0
  C  C80  1  0.90650000  0.22090000  0.61260000  1.0
  C  C81  1  0.99430000  0.20510000  0.60610000  1.0
  C  C82  1  0.99820000  0.16380000  0.56570000  1.0
  C  C83  1  0.91700000  0.13590000  0.53480000  1.0
  C  C84  1  0.08360000  0.22800000  0.63890000  1.0
  C  C85  1  0.81550000  0.09980000  0.71410000  1.0
  C  C86  1  0.89350000  0.09280000  0.68960000  1.0
  C  C87  1  0.97880000  0.11720000  0.71180000  1.0
  C  C88  1  0.98840000  0.14990000  0.75960000  1.0
  C  C89  1  0.91200000  0.15850000  0.78380000  1.0
  C  C90  1  0.82500000  0.13250000  0.76000000  1.0
  C  C91  1  0.08370000  0.17550000  0.78560000  1.0
  C  C92  1  0.73460000  0.01090000  0.67960000  1.0
  C  C93  1  0.67470000  0.98510000  0.63590000  1.0
  C  C94  1  0.67390000  0.92520000  0.62990000  1.0
  C  C95  1  0.73730000  0.89170000  0.66666667  1.0
  C  C96  1  0.80230000  0.91830000  0.70920000  1.0
  C  C97  1  0.79890000  0.97760000  0.71460000  1.0
  C  C98  1  0.73520000  0.82820000  0.65910000  1.0
  C  C99  1  0.64210000  0.09790000  0.68880000  1.0
  C  C100  1  0.56950000  0.06540000  0.70430000  1.0
  C  C101  1  0.48600000  0.09150000  0.70390000  1.0
  C  C102  1  0.47110000  0.14830000  0.68790000  1.0
  C  C103  1  0.54360000  0.17780000  0.67220000  1.0
  C  C104  1  0.62720000  0.15430000  0.67350000  1.0
  C  C105  1  0.37850000  0.17600000  0.68840000  1.0
  C  C106  1  0.25650000  0.53400000  0.60940000  1.0
  C  C107  1  0.29520000  0.51370000  0.66320000  1.0
  C  C108  1  0.29480000  0.45640000  0.67660000  1.0
  C  C109  1  0.25670000  0.41670000  0.63660000  1.0
  C  C110  1  0.21910000  0.43550000  0.58340000  1.0
  C  C111  1  0.21950000  0.49360000  0.56920000  1.0
  C  C112  1  0.25410000  0.35420000  0.65050000  1.0
  C  C113  1  0.33420000  0.62670000  0.61730000  1.0
  C  C114  1  0.33410000  0.67790000  0.64390000  1.0
  C  C115  1  0.41870000  0.70670000  0.66460000  1.0
  C  C116  1  0.50370000  0.68440000  0.65810000  1.0
  C  C117  1  0.50390000  0.63360000  0.63010000  1.0
  C  C118  1  0.42100000  0.60420000  0.60920000  1.0
  C  C119  1  0.59270000  0.71620000  0.68350000  1.0
  C  C120  1  0.16440000  0.62040000  0.57660000  1.0
  C  C121  1  0.08410000  0.59740000  0.58920000  1.0
  C  C122  1  0.99710000  0.62420000  0.56850000  1.0
  C  C123  1  0.98780000  0.67280000  0.53820000  1.0
  C  C124  1  0.07060000  0.69430000  0.52560000  1.0
  C  C125  1  0.15520000  0.66870000  0.54480000  1.0
  C  C126  1  0.89210000  0.69740000  0.51670000  1.0
  C  C127  1  0.74390000  0.43810000  0.00460000  1.0
  C  C128  1  0.81000000  0.47730000  0.03610000  1.0
  C  C129  1  0.80670000  0.53400000  0.02220000  1.0
  C  C130  1  0.74140000  0.55610000  0.97660000  1.0
  C  C131  1  0.67520000  0.51750000  0.94670000  1.0
  C  C132  1  0.67670000  0.45970000  0.95960000  1.0
  C  C133  1  0.74390000  0.61600000  0.96020000  1.0
  C  C134  1  0.58320000  0.36710000  0.03000000  1.0
  C  C135  1  0.50190000  0.33740000  0.02010000  1.0
  C  C136  1  0.49210000  0.28740000  0.99130000  1.0
  C  C137  1  0.56750000  0.26570000  0.97250000  1.0
  C  C138  1  0.65100000  0.29560000  0.98120000  1.0
  C  C139  1  0.65570000  0.34780000  0.00940000  1.0
  C  C140  1  0.40150000  0.25270000  0.97690000  1.0
  C  C141  1  0.83040000  0.35050000  0.04650000  1.0
  C  C142  1  0.82590000  0.30670000  0.08370000  1.0
  C  C143  1  0.90650000  0.27910000  0.11260000  1.0
  C  C144  1  0.99430000  0.29490000  0.10610000  1.0
  C  C145  1  0.99820000  0.33620000  0.06570000  1.0
  C  C146  1  0.91700000  0.36410000  0.03480000  1.0
  C  C147  1  0.08360000  0.27200000  0.13890000  1.0
  C  C148  1  0.81550000  0.40020000  0.21410000  1.0
  C  C149  1  0.89350000  0.40720000  0.18960000  1.0
  C  C150  1  0.97880000  0.38280000  0.21180000  1.0
  C  C151  1  0.98840000  0.35010000  0.25960000  1.0
  C  C152  1  0.91200000  0.34150000  0.28380000  1.0
  C  C153  1  0.82500000  0.36750000  0.26000000  1.0
  C  C154  1  0.08370000  0.32450000  0.28560000  1.0
  C  C155  1  0.73460000  0.48910000  0.17960000  1.0
  C  C156  1  0.67470000  0.51490000  0.13590000  1.0
  C  C157  1  0.67390000  0.57480000  0.12990000  1.0
  C  C158  1  0.73730000  0.60830000  0.16660000  1.0
  C  C159  1  0.80230000  0.58170000  0.20920000  1.0
  C  C160  1  0.79890000  0.52240000  0.21460000  1.0
  C  C161  1  0.73520000  0.67180000  0.15910000  1.0
  C  C162  1  0.64210000  0.40210000  0.18880000  1.0
  C  C163  1  0.56950000  0.43460000  0.20430000  1.0
  C  C164  1  0.48600000  0.40850000  0.20390000  1.0
  C  C165  1  0.47110000  0.35170000  0.18790000  1.0
  C  C166  1  0.54360000  0.32220000  0.17220000  1.0
  C  C167  1  0.62720000  0.34570000  0.17350000  1.0
  C  C168  1  0.37850000  0.32400000  0.18840000  1.0
  C  C169  1  0.25650000  0.96600000  0.10940000  1.0
  C  C170  1  0.29520000  0.98630000  0.16320000  1.0
  C  C171  1  0.29480000  0.04360000  0.17660000  1.0
  C  C172  1  0.25670000  0.08330000  0.13660000  1.0
  C  C173  1  0.21910000  0.06450000  0.08340000  1.0
  C  C174  1  0.21950000  0.00640000  0.06920000  1.0
  C  C175  1  0.25410000  0.14580000  0.15050000  1.0
  C  C176  1  0.33420000  0.87330000  0.11730000  1.0
  C  C177  1  0.33410000  0.82210000  0.14390000  1.0
  C  C178  1  0.41870000  0.79330000  0.16460000  1.0
  C  C179  1  0.50370000  0.81560000  0.15810000  1.0
  C  C180  1  0.50390000  0.86640000  0.13010000  1.0
  C  C181  1  0.42100000  0.89580000  0.10920000  1.0
  C  C182  1  0.59270000  0.78380000  0.18350000  1.0
  C  C183  1  0.16440000  0.87960000  0.07660000  1.0
  C  C184  1  0.08410000  0.90260000  0.08920000  1.0
  C  C185  1  0.99710000  0.87580000  0.06850000  1.0
  C  C186  1  0.98780000  0.82720000  0.03820000  1.0
  C  C187  1  0.07060000  0.80570000  0.02560000  1.0
  C  C188  1  0.15520000  0.83130000  0.04480000  1.0
  C  C189  1  0.89210000  0.80260000  0.01670000  1.0
  C  C190  1  0.25610000  0.93810000  0.49540000  1.0
  C  C191  1  0.19000000  0.97730000  0.46390000  1.0
  C  C192  1  0.19330000  0.03400000  0.47780000  1.0
  C  C193  1  0.25860000  0.05610000  0.52340000  1.0
  C  C194  1  0.32480000  0.01750000  0.55330000  1.0
  C  C195  1  0.32330000  0.95970000  0.54040000  1.0
  C  C196  1  0.25610000  0.11600000  0.53980000  1.0
  C  C197  1  0.41680000  0.86710000  0.47000000  1.0
  C  C198  1  0.49810000  0.83740000  0.47990000  1.0
  C  C199  1  0.50790000  0.78740000  0.50870000  1.0
  C  C200  1  0.43250000  0.76570000  0.52750000  1.0
  C  C201  1  0.34900000  0.79560000  0.51880000  1.0
  C  C202  1  0.34430000  0.84780000  0.49060000  1.0
  C  C203  1  0.59850000  0.75270000  0.52310000  1.0
  C  C204  1  0.16960000  0.85050000  0.45350000  1.0
  C  C205  1  0.17410000  0.80670000  0.41630000  1.0
  C  C206  1  0.09350000  0.77910000  0.38740000  1.0
  C  C207  1  0.00570000  0.79490000  0.39390000  1.0
  C  C208  1  0.00180000  0.83620000  0.43430000  1.0
  C  C209  1  0.08300000  0.86410000  0.46520000  1.0
  C  C210  1  0.91640000  0.77200000  0.36110000  1.0
  C  C211  1  0.18450000  0.90020000  0.28590000  1.0
  C  C212  1  0.10650000  0.90720000  0.31040000  1.0
  C  C213  1  0.02120000  0.88280000  0.28820000  1.0
  C  C214  1  0.01160000  0.85010000  0.24040000  1.0
  C  C215  1  0.08800000  0.84150000  0.21620000  1.0
  C  C216  1  0.17500000  0.86750000  0.24000000  1.0
  C  C217  1  0.91630000  0.82450000  0.21440000  1.0
  C  C218  1  0.26540000  0.98910000  0.32040000  1.0
  C  C219  1  0.32530000  0.01490000  0.36410000  1.0
  C  C220  1  0.32610000  0.07480000  0.37010000  1.0
  C  C221  1  0.26270000  0.10830000  0.33340000  1.0
  C  C222  1  0.19770000  0.08170000  0.29080000  1.0
  C  C223  1  0.20110000  0.02240000  0.28540000  1.0
  C  C224  1  0.26480000  0.17180000  0.34090000  1.0
  C  C225  1  0.35790000  0.90210000  0.31120000  1.0
  C  C226  1  0.43050000  0.93460000  0.29570000  1.0
  C  C227  1  0.51400000  0.90850000  0.29610000  1.0
  C  C228  1  0.52890000  0.85170000  0.31210000  1.0
  C  C229  1  0.45640000  0.82220000  0.32780000  1.0
  C  C230  1  0.37280000  0.84570000  0.32650000  1.0
  C  C231  1  0.62150000  0.82400000  0.31160000  1.0
  C  C232  1  0.74350000  0.46600000  0.39060000  1.0
  C  C233  1  0.70480000  0.48630000  0.33680000  1.0
  C  C234  1  0.70520000  0.54360000  0.32340000  1.0
  C  C235  1  0.74330000  0.58330000  0.36340000  1.0
  C  C236  1  0.78090000  0.56450000  0.41660000  1.0
  C  C237  1  0.78050000  0.50640000  0.43080000  1.0
  C  C238  1  0.74590000  0.64580000  0.34950000  1.0
  C  C239  1  0.66580000  0.37330000  0.38270000  1.0
  C  C240  1  0.66590000  0.32210000  0.35610000  1.0
  C  C241  1  0.58130000  0.29330000  0.33540000  1.0
  C  C242  1  0.49630000  0.31560000  0.34190000  1.0
  C  C243  1  0.49610000  0.36640000  0.36990000  1.0
  C  C244  1  0.57900000  0.39580000  0.39080000  1.0
  C  C245  1  0.40730000  0.28380000  0.31650000  1.0
  C  C246  1  0.83560000  0.37960000  0.42340000  1.0
  C  C247  1  0.91590000  0.40260000  0.41080000  1.0
  C  C248  1  0.00290000  0.37580000  0.43150000  1.0
  C  C249  1  0.01220000  0.32720000  0.46180000  1.0
  C  C250  1  0.92940000  0.30570000  0.47440000  1.0
  C  C251  1  0.84480000  0.33130000  0.45520000  1.0
  C  C252  1  0.10790000  0.30260000  0.48330000  1.0
  N  N1  1  0.25450000  0.62030000  0.98090000  1.0
  N  N2  1  0.74710000  0.09430000  0.90270000  1.0
  N  N3  1  0.26990000  0.57050000  0.81110000  1.0
  N  N4  1  0.74550000  0.12030000  0.51910000  1.0
  N  N5  1  0.25290000  0.59430000  0.59730000  1.0
  N  N6  1  0.73010000  0.07050000  0.68890000  1.0
  N  N7  1  0.74550000  0.37970000  0.01910000  1.0
  N  N8  1  0.25290000  0.90570000  0.09730000  1.0
  N  N9  1  0.73010000  0.42950000  0.18890000  1.0
  N  N10  1  0.25450000  0.87970000  0.48090000  1.0
  N  N11  1  0.74710000  0.40570000  0.40270000  1.0
  N  N12  1  0.26990000  0.92950000  0.31110000  1.0
  O  O1  1  0.19120000  0.35100000  0.01470000  1.0
  O  O2  1  0.31770000  0.36410000  0.07990000  1.0
  O  O3  1  0.66990000  0.72660000  0.00800000  1.0
  O  O4  1  0.60420000  0.79150000  0.05120000  1.0
  O  O5  1  0.83840000  0.70780000  0.86610000  1.0
  O  O6  1  0.92000000  0.76400000  0.82370000  1.0
  O  O7  1  0.85680000  0.67610000  0.74350000  1.0
  O  O8  1  0.90510000  0.69460000  0.66530000  1.0
  O  O9  1  0.21030000  0.29690000  0.80410000  1.0
  O  O10  1  0.31850000  0.30620000  0.88100000  1.0
  O  O11  1  0.64320000  0.72490000  0.83490000  1.0
  O  O12  1  0.67500000  0.65290000  0.78330000  1.0
  O  O13  1  0.76680000  0.82090000  0.89050000  1.0
  O  O14  1  0.72880000  0.83810000  0.80090000  1.0
  O  O15  1  0.40610000  0.25550000  0.78240000  1.0
  O  O16  1  0.32980000  0.19550000  0.82550000  1.0
  O  O17  1  0.17540000  0.18210000  0.96490000  1.0
  O  O18  1  0.11210000  0.23550000  0.02070000  1.0
  O  O19  1  0.80880000  0.85100000  0.48530000  1.0
  O  O20  1  0.68230000  0.86410000  0.42010000  1.0
  O  O21  1  0.33010000  0.22660000  0.49200000  1.0
  O  O22  1  0.39580000  0.29150000  0.44880000  1.0
  O  O23  1  0.16160000  0.20780000  0.63390000  1.0
  O  O24  1  0.08000000  0.26400000  0.67630000  1.0
  O  O25  1  0.14320000  0.17610000  0.75650000  1.0
  O  O26  1  0.09490000  0.19460000  0.83470000  1.0
  O  O27  1  0.78970000  0.79690000  0.69590000  1.0
  O  O28  1  0.68150000  0.80620000  0.61900000  1.0
  O  O29  1  0.35680000  0.22490000  0.66510000  1.0
  O  O30  1  0.32500000  0.15290000  0.71670000  1.0
  O  O31  1  0.23320000  0.32090000  0.60950000  1.0
  O  O32  1  0.27120000  0.33810000  0.69910000  1.0
  O  O33  1  0.59390000  0.75550000  0.71760000  1.0
  O  O34  1  0.67020000  0.69550000  0.67450000  1.0
  O  O35  1  0.82460000  0.68210000  0.53510000  1.0
  O  O36  1  0.88790000  0.73550000  0.47930000  1.0
  O  O37  1  0.80880000  0.64900000  0.98530000  1.0
  O  O38  1  0.68230000  0.63590000  0.92010000  1.0
  O  O39  1  0.33010000  0.27340000  0.99200000  1.0
  O  O40  1  0.39580000  0.20850000  0.94880000  1.0
  O  O41  1  0.16160000  0.29220000  0.13390000  1.0
  O  O42  1  0.08000000  0.23600000  0.17630000  1.0
  O  O43  1  0.14320000  0.32390000  0.25650000  1.0
  O  O44  1  0.09490000  0.30540000  0.33470000  1.0
  O  O45  1  0.78970000  0.70310000  0.19590000  1.0
  O  O46  1  0.68150000  0.69380000  0.11900000  1.0
  O  O47  1  0.35680000  0.27510000  0.16510000  1.0
  O  O48  1  0.32500000  0.34710000  0.21670000  1.0
  O  O49  1  0.23320000  0.17910000  0.10950000  1.0
  O  O50  1  0.27120000  0.16190000  0.19910000  1.0
  O  O51  1  0.59390000  0.74450000  0.21760000  1.0
  O  O52  1  0.67020000  0.80450000  0.17450000  1.0
  O  O53  1  0.82460000  0.81790000  0.03510000  1.0
  O  O54  1  0.88790000  0.76450000  0.97930000  1.0
  O  O55  1  0.19120000  0.14900000  0.51470000  1.0
  O  O56  1  0.31770000  0.13590000  0.57990000  1.0
  O  O57  1  0.66990000  0.77340000  0.50800000  1.0
  O  O58  1  0.60420000  0.70850000  0.55120000  1.0
  O  O59  1  0.83840000  0.79220000  0.36610000  1.0
  O  O60  1  0.92000000  0.73600000  0.32370000  1.0
  O  O61  1  0.85680000  0.82390000  0.24350000  1.0
  O  O62  1  0.90510000  0.80540000  0.16530000  1.0
  O  O63  1  0.21030000  0.20310000  0.30410000  1.0
  O  O64  1  0.31850000  0.19380000  0.38100000  1.0
  O  O65  1  0.64320000  0.77510000  0.33490000  1.0
  O  O66  1  0.67500000  0.84710000  0.28330000  1.0
  O  O67  1  0.76680000  0.67910000  0.39050000  1.0
  O  O68  1  0.72880000  0.66190000  0.30090000  1.0
  O  O69  1  0.40610000  0.24450000  0.28240000  1.0
  O  O70  1  0.32980000  0.30450000  0.32550000  1.0
  O  O71  1  0.17540000  0.31790000  0.46490000  1.0
  O  O72  1  0.11210000  0.26450000  0.52070000  1.0
