# generated using pymatgen
data_V4H23C45NO20
_symmetry_space_group_name_H-M   'P 1'
_cell_length_a   6.94322000
_cell_length_b   13.64197000
_cell_length_c   20.42139000
_cell_angle_alpha   77.90128000
_cell_angle_beta   89.63950000
_cell_angle_gamma   89.33615000
_symmetry_Int_Tables_number   1
_chemical_formula_structural   V4H23C45NO20
_chemical_formula_sum   'V4 H23 C45 N1 O20'
_cell_volume   1891.19121220
_cell_formula_units_Z   1
loop_
 _symmetry_equiv_pos_site_id
 _symmetry_equiv_pos_as_xyz
  1  'x, y, z'
loop_
 _atom_site_type_symbol
 _atom_site_label
 _atom_site_symmetry_multiplicity
 _atom_site_fract_x
 _atom_site_fract_y
 _atom_site_fract_z
 _atom_site_occupancy
  V  V0  1  0.93532000  0.51180000  0.49778000  1
  V  V1  1  0.43599000  0.48820000  0.50222000  1
  V  V2  1  0.35183000  0.98820000  0.00222000  1
  V  V3  1  0.85119000  0.01193000  0.99782000  1
  H  H4  1  0.17296000  0.16140000  0.48003000  1
  H  H5  1  0.16521000  0.98583000  0.30423000  1
  H  H6  1  0.17330000  0.03286000  0.41231000  1
  H  H7  1  0.13500000  0.39343000  0.30456000  1
  H  H8  1  0.11850000  0.33460000  0.01732000  1
  H  H9  1  0.13071000  0.43195000  0.20085000  1
  H  H10  1  0.11803000  0.46888000  0.08066000  1
  H  H11  1  0.15246000  0.02856000  0.18369000  1
  H  H12  1  0.28286000  0.27438000  0.69613000  1
  H  H13  1  0.84551000  0.20731000  0.80804000  1
  H  H14  1  0.28690000  0.20511000  0.80195000  1
  H  H15  1  0.93287000  0.82051000  0.19751000  1
  H  H16  1  0.49696000  0.78641000  0.19858000  1
  H  H17  1  0.93867000  0.70340000  0.30661000  1
  H  H18  1  0.49627000  0.70255000  0.29995000  1
  H  H19  1  0.58526000  0.83601000  0.52062000  1
  H  H20  1  0.55205000  0.01050000  0.69685000  1
  H  H21  1  0.55362000  0.96344000  0.58871000  1
  H  H22  1  0.68812000  0.60852000  0.69492000  1
  H  H23  1  0.69609000  0.66750000  0.98212000  1
  H  H24  1  0.70399000  0.57025000  0.79846000  1
  H  H25  1  0.72905000  0.53436000  0.91838000  1
  H  H26  1  0.57894000  0.96884000  0.81710000  1
  C  C27  1  0.65125000  0.61602000  0.38652000  1
  C  C28  1  0.65274000  0.63790000  0.56480000  1
  C  C29  1  0.15906000  0.38510000  0.61394000  1
  C  C30  1  0.15774000  0.36213000  0.43516000  1
  C  C31  1  0.16485000  0.11115000  0.38734000  1
  C  C32  1  0.15257000  0.28520000  0.39508000  1
  C  C33  1  0.12551000  0.31530000  0.07151000  1
  C  C34  1  0.12481000  0.39141000  0.10723000  1
  C  C35  1  0.13191000  0.36871000  0.17696000  1
  C  C36  1  0.14013000  0.26799000  0.21310000  1
  C  C37  1  0.14243000  0.19024000  0.17600000  1
  C  C38  1  0.14606000  0.24183000  0.28464000  1
  C  C39  1  0.15613000  0.13893000  0.31719000  1
  C  C40  1  0.15806000  0.06436000  0.27969000  1
  C  C41  1  0.15091000  0.08938000  0.21029000  1
  C  C42  1  0.14293000  0.31408000  0.32528000  1
  C  C43  1  0.16424000  0.18395000  0.42600000  1
  C  C44  1  0.13479000  0.21505000  0.10510000  1
  C  C45  1  0.99213000  0.29985000  0.72093000  1
  C  C46  1  0.15078000  0.31548000  0.68059000  1
  C  C47  1  0.98707000  0.22622000  0.78624000  1
  C  C48  1  0.14309000  0.18566000  0.82082000  1
  C  C49  1  0.79507000  0.79062000  0.21729000  1
  C  C50  1  0.63569000  0.81587000  0.18014000  1
  C  C51  1  0.79731000  0.72226000  0.28481000  1
  C  C52  1  0.63943000  0.68416000  0.31979000  1
  C  C53  1  0.58296000  0.88636000  0.61335000  1
  C  C54  1  0.63994000  0.71462000  0.60496000  1
  C  C55  1  0.68268000  0.68621000  0.92807000  1
  C  C56  1  0.70186000  0.61078000  0.89212000  1
  C  C57  1  0.68729000  0.63289000  0.82254000  1
  C  C58  1  0.65248000  0.73230000  0.78681000  1
  C  C59  1  0.63114000  0.80921000  0.82416000  1
  C  C60  1  0.63811000  0.75796000  0.71542000  1
  C  C61  1  0.60061000  0.85934000  0.68330000  1
  C  C62  1  0.58025000  0.93310000  0.72106000  1
  C  C63  1  0.59567000  0.90869000  0.79029000  1
  C  C64  1  0.65896000  0.68661000  0.67453000  1
  C  C65  1  0.60135000  0.81424000  0.57447000  1
  C  C66  1  0.64704000  0.78505000  0.89489000  1
  C  C67  1  0.63421000  0.86226000  0.93502000  1
  C  C68  1  0.63531000  0.88423000  0.11351000  1
  C  C69  1  0.12956000  0.13763000  0.06507000  1
  C  C70  1  0.12815000  0.11612000  0.88672000  1
  C  C71  1  0.81346000  0.35430000  0.70270000  1
  N  N72  1  0.67032000  0.39762000  0.68848000  1
  O  O73  1  0.49314000  0.59939000  0.55076000  1
  O  O74  1  0.81978000  0.59460000  0.41322000  1
  O  O75  1  0.99550000  0.40061000  0.44924000  1
  O  O76  1  0.82251000  0.61129000  0.54803000  1
  O  O77  1  0.99825000  0.41742000  0.58501000  1
  O  O78  1  0.49039000  0.58258000  0.41499000  1
  O  O79  1  0.66258000  0.43637000  0.51198000  1
  O  O80  1  0.32829000  0.40540000  0.58678000  1
  O  O81  1  0.32556000  0.38871000  0.45197000  1
  O  O82  1  0.15886000  0.56363000  0.48802000  1
  O  O83  1  0.79677000  0.91731000  0.08498000  1
  O  O84  1  0.46450000  0.88869000  0.95196000  1
  O  O85  1  0.28892000  0.08261000  0.91500000  1
  O  O86  1  0.46737000  0.90537000  0.08677000  1
  O  O87  1  0.29181000  0.09941000  0.05077000  1
  O  O88  1  0.79388000  0.90051000  0.94921000  1
  O  O89  1  0.62464000  0.06357000  0.98801000  1
  O  O90  1  0.96176000  0.11139000  0.04806000  1
  O  O91  1  0.95888000  0.09471000  0.91325000  1
  O  O92  1  0.12825000  0.93643000  0.01199000  1
