# generated using pymatgen
data_LaH12C9(SO2)3
_symmetry_space_group_name_H-M   'P 1'
_cell_length_a   9.12580000
_cell_length_b   11.13800000
_cell_length_c   11.32620000
_cell_angle_alpha   77.31700000
_cell_angle_beta   68.68100000
_cell_angle_gamma   79.25000000
_symmetry_Int_Tables_number   1
_chemical_formula_structural   LaH12C9(SO2)3
_chemical_formula_sum   'La2 H24 C18 S6 O12'
_cell_volume   1039.04880662
_cell_formula_units_Z   2
loop_
 _symmetry_equiv_pos_site_id
 _symmetry_equiv_pos_as_xyz
  1  'x, y, z'
loop_
 _atom_site_type_symbol
 _atom_site_label
 _atom_site_symmetry_multiplicity
 _atom_site_fract_x
 _atom_site_fract_y
 _atom_site_fract_z
 _atom_site_occupancy
  La  La1  1  0.23463000  0.51922000  0.51840000  1.0
  La  La2  1  0.76537000  0.48078000  0.48160000  1.0
  H  H1  1  0.37590000  0.08110000  0.56510000  1.0
  H  H2  1  0.36610000  0.94030000  0.57310000  1.0
  H  H3  1  0.28850000  0.53340000  0.16270000  1.0
  H  H4  1  0.23820000  0.67550000  0.16280000  1.0
  H  H5  1  0.41890000  0.40700000  0.01980000  1.0
  H  H6  1  0.44520000  0.44270000  0.87260000  1.0
  H  H7  1  0.14460000  0.41380000  0.06280000  1.0
  H  H8  1  0.17200000  0.45200000  0.91510000  1.0
  H  H9  1  0.40840000  0.15960000  0.76690000  1.0
  H  H10  1  0.28460000  0.27750000  0.79000000  1.0
  H  H11  1  0.53000000  0.18570000  0.27830000  1.0
  H  H12  1  0.39110000  0.22090000  0.22300000  1.0
  H  H13  1  0.62410000  0.91890000  0.43490000  1.0
  H  H14  1  0.63390000  0.05970000  0.42690000  1.0
  H  H15  1  0.71150000  0.46660000  0.83730000  1.0
  H  H16  1  0.76180000  0.32450000  0.83720000  1.0
  H  H17  1  0.58110000  0.59300000  0.98020000  1.0
  H  H18  1  0.55480000  0.55730000  0.12740000  1.0
  H  H19  1  0.85540000  0.58620000  0.93720000  1.0
  H  H20  1  0.82800000  0.54800000  0.08490000  1.0
  H  H21  1  0.59160000  0.84040000  0.23310000  1.0
  H  H22  1  0.71540000  0.72250000  0.21000000  1.0
  H  H23  1  0.47000000  0.81430000  0.72170000  1.0
  H  H24  1  0.60890000  0.77910000  0.77700000  1.0
  C  C1  1  0.41350000  0.01260000  0.51740000  1.0
  C  C2  1  0.20600000  0.60030000  0.15460000  1.0
  C  C3  1  0.38110000  0.39790000  0.95290000  1.0
  C  C4  1  0.21050000  0.45770000  0.98280000  1.0
  C  C5  1  0.39200000  0.24310000  0.78520000  1.0
  C  C6  1  0.41560000  0.19620000  0.30200000  1.0
  C  C7  1  0.05600000  0.57330000  0.26540000  1.0
  C  C8  1  0.35040000  0.30210000  0.37850000  1.0
  C  C9  1  0.50600000  0.32000000  0.67540000  1.0
  C  C10  1  0.58650000  0.98740000  0.48260000  1.0
  C  C11  1  0.79400000  0.39970000  0.84540000  1.0
  C  C12  1  0.61890000  0.60210000  0.04710000  1.0
  C  C13  1  0.78950000  0.54230000  0.01720000  1.0
  C  C14  1  0.60800000  0.75690000  0.21480000  1.0
  C  C15  1  0.58440000  0.80380000  0.69800000  1.0
  C  C16  1  0.94400000  0.42670000  0.73460000  1.0
  C  C17  1  0.64960000  0.69790000  0.62150000  1.0
  C  C18  1  0.49400000  0.68000000  0.32460000  1.0
  S  S1  1  0.19640000  0.61900000  0.99609000  1.0
  S  S2  1  0.41181000  0.23535000  0.93975000  1.0
  S  S3  1  0.34838000  0.05074000  0.37636000  1.0
  S  S4  1  0.80360000  0.38100000  0.00391000  1.0
  S  S5  1  0.58819000  0.76465000  0.06025000  1.0
  S  S6  1  0.65162000  0.94926000  0.62364000  1.0
  O  O1  1  0.06750000  0.54670000  0.37640000  1.0
  O  O2  1  0.41690000  0.40030000  0.33170000  1.0
  O  O3  1  0.92770000  0.57560000  0.24980000  1.0
  O  O4  1  0.23670000  0.29270000  0.48230000  1.0
  O  O5  1  0.64810000  0.30830000  0.66580000  1.0
  O  O6  1  0.45340000  0.39520000  0.59510000  1.0
  O  O7  1  0.93250000  0.45330000  0.62360000  1.0
  O  O8  1  0.58310000  0.59970000  0.66830000  1.0
  O  O9  1  0.07230000  0.42440000  0.75020000  1.0
  O  O10  1  0.76330000  0.70730000  0.51770000  1.0
  O  O11  1  0.35190000  0.69170000  0.33420000  1.0
  O  O12  1  0.54660000  0.60480000  0.40490000  1.0
