# generated using pymatgen
data_H21C37(NO2)2
_symmetry_space_group_name_H-M   'P 1'
_cell_length_a   16.15060000
_cell_length_b   38.08815000
_cell_length_c   38.08830000
_cell_angle_alpha   120.00039083
_cell_angle_beta   89.99940000
_cell_angle_gamma   90.00040000
_symmetry_Int_Tables_number   1
_chemical_formula_structural   H21C37(NO2)2
_chemical_formula_sum   'H126 C222 N12 O24'
_cell_volume   20290.79440616
_cell_formula_units_Z   6
loop_
 _symmetry_equiv_pos_site_id
 _symmetry_equiv_pos_as_xyz
  1  'x, y, z'
loop_
 _atom_site_type_symbol
 _atom_site_label
 _atom_site_symmetry_multiplicity
 _atom_site_fract_x
 _atom_site_fract_y
 _atom_site_fract_z
 _atom_site_occupancy
  C  1  1  0.05181400  0.00585100  0.50193000  1
  C  2  1  0.09599200  0.00521300  0.53397700  1
  C  3  1  0.18367300  0.00448300  0.53324350  1
  C  4  1  0.22653500  0.00613050  0.50197150  1
  C  5  1  0.18345900  0.00763150  0.47066900  1
  C  6  1  0.09578400  0.00661400  0.46989600  1
  C  7  1  0.05120100  0.00513900  0.56578550  1
  C  8  1  0.05079200  0.00653500  0.43806250  1
  C  10  1  0.96357000  0.00570350  0.50190500  1
  C  11  1  0.91959600  0.00633350  0.53463600  1
  C  12  1  0.83191400  0.00703900  0.53472350  1
  C  13  1  0.78885100  0.00537450  0.50184200  1
  C  14  1  0.83172200  0.00388550  0.46899400  1
  C  15  1  0.91939700  0.00492150  0.46914850  1
  C  16  1  0.96458400  0.00641200  0.56647050  1
  C  18  1  0.96419500  0.00498750  0.43733800  1
  C  31  1  0.05178600  0.50577450  0.00186100  1
  C  32  1  0.09575700  0.53851850  0.00251350  1
  C  33  1  0.18343700  0.53865750  0.00332600  1
  C  34  1  0.22650400  0.50583100  0.00177200  1
  C  35  1  0.18363900  0.47297500  0.00025950  1
  C  36  1  0.09596100  0.47305800  0.00116150  1
  C  37  1  0.05077700  0.57031250  0.00250850  1
  C  38  1  0.05116400  0.44122600  0.00118700  1
  C  40  1  0.96354400  0.50575050  0.00190950  1
  C  41  1  0.91937200  0.53777250  0.00121900  1
  C  42  1  0.83169200  0.53701400  0.00043050  1
  C  43  1  0.78882100  0.50572750  0.00205150  1
  C  44  1  0.83189000  0.47444200  0.00358750  1
  C  45  1  0.91956600  0.47370750  0.00265350  1
  C  46  1  0.96416500  0.56959050  0.00116350  1
  C  48  1  0.96456000  0.44190700  0.00264300  1
  C  61  1  0.05188200  0.50585450  0.50194300  1
  C  62  1  0.09582800  0.47380300  0.46915150  1
  C  63  1  0.18350500  0.47452550  0.46893700  1
  C  64  1  0.22660000  0.50579150  0.50176400  1
  C  65  1  0.18375900  0.53708450  0.53467650  1
  C  66  1  0.09608200  0.53786850  0.53464900  1
  C  67  1  0.05081100  0.44200450  0.43737100  1
  C  68  1  0.05130900  0.56969150  0.56652850  1
  C  70  1  0.96363800  0.50588700  0.50203150  1
  C  71  1  0.91943900  0.47316300  0.47003100  1
  C  72  1  0.83176100  0.47307950  0.47087050  1
  C  73  1  0.78892000  0.50595350  0.50220850  1
  C  74  1  0.83200900  0.53879550  0.53345650  1
  C  75  1  0.91968900  0.53864300  0.53412050  1
  C  76  1  0.96420800  0.44132250  0.43817150  1
  C  78  1  0.96469600  0.57044050  0.56590300  1
  C  91  1  0.48225100  0.09733750  0.27797350  1
  C  92  1  0.53584200  0.10402250  0.31012450  1
  C  93  1  0.54356100  0.07553950  0.32278150  1
  C  94  1  0.49168200  0.04092650  0.30748050  1
  C  95  1  0.43064900  0.03723750  0.27875450  1
  C  96  1  0.42754700  0.06398300  0.26338200  1
  C  97  1  0.50774100  0.00563050  0.31516450  1
  C  98  1  0.52393700  0.97034400  0.27219500  1
  C  99  1  0.47203500  0.93574600  0.25281500  1
  C  100  1  0.47972300  0.90734650  0.21164750  1
  C  101  1  0.53343100  0.91405650  0.18624050  1
  C  102  1  0.58820800  0.94737950  0.20508650  1
  C  103  1  0.58509500  0.97405100  0.24722200  1
  C  104  1  0.57988800  0.01365400  0.34434950  1
  C  105  1  0.43544600  0.99760750  0.33625150  1
  C  106  1  0.44124300  0.96537450  0.34492450  1
  C  107  1  0.37945800  0.95792850  0.36626950  1
  C  108  1  0.31047300  0.98388700  0.38174050  1
  C  109  1  0.30356300  0.01635950  0.37402150  1
  C  110  1  0.36472500  0.02300800  0.35176000  1
  C  111  1  0.57391900  0.04588650  0.38525000  1
  C  112  1  0.63556600  0.05335000  0.41410750  1
  C  113  1  0.70459500  0.02743000  0.40368750  1
  C  114  1  0.71163500  0.99493700  0.36351250  1
  C  115  1  0.65059100  0.98825650  0.33454050  1
  C  132  1  0.25299200  0.97910700  0.40702850  1
  C  133  1  0.76205400  0.03229300  0.43379450  1
  C  134  1  0.54030900  0.88477600  0.14523200  1
  C  135  1  0.47539000  0.12672150  0.26638050  1
  C  140  1  0.48186000  0.19013200  0.91024700  1
  C  141  1  0.53528300  0.21559950  0.90347400  1
  C  142  1  0.54298400  0.25676000  0.93190450  1
  C  143  1  0.49121600  0.27608100  0.96655800  1
  C  144  1  0.43011500  0.25108300  0.97025800  1
  C  145  1  0.42705200  0.20895500  0.94355950  1
  C  146  1  0.50744600  0.31904950  0.00184600  1
  C  147  1  0.52364700  0.31130350  0.03709350  1
  C  148  1  0.47187300  0.32660500  0.07174300  1
  C  149  1  0.47957500  0.31383800  0.10014050  1
  C  150  1  0.53325100  0.28170950  0.09343850  1
  C  151  1  0.58796200  0.26720100  0.06008650  1
  C  152  1  0.58477800  0.28261200  0.03337300  1
  C  153  1  0.57965800  0.34017050  0.99380500  1
  C  154  1  0.43526200  0.34823500  0.00994500  1
  C  155  1  0.44127400  0.38912400  0.04219250  1
  C  156  1  0.37962500  0.41799000  0.04970250  1
  C  157  1  0.31041100  0.40757050  0.02389000  1
  C  158  1  0.30328700  0.36739200  0.99140950  1
  C  159  1  0.36437800  0.33841300  0.98465600  1
  C  160  1  0.57371300  0.34888000  0.96160250  1
  C  161  1  0.63540800  0.37026750  0.95415900  1
  C  162  1  0.70459500  0.38561750  0.97999500  1
  C  163  1  0.71165300  0.37785000  0.01243200  1
  C  164  1  0.65049800  0.35561500  0.01912800  1
  C  181  1  0.25301400  0.43771100  0.02877450  1
  C  182  1  0.76211100  0.41085100  0.97514100  1
  C  183  1  0.54032200  0.27011900  0.12281600  1
  C  184  1  0.47505600  0.14914100  0.88091950  1
  C  189  1  0.48187300  0.72988600  0.81760350  1
  C  190  1  0.53517100  0.69758600  0.79213450  1
  C  191  1  0.54289100  0.68484100  0.75097300  1
  C  192  1  0.49127100  0.70023050  0.73165450  1
  C  193  1  0.43024700  0.72897800  0.75665300  1
  C  194  1  0.42713800  0.74440600  0.79878350  1
  C  195  1  0.50760500  0.69255150  0.68869200  1
  C  196  1  0.52388300  0.73553750  0.69642150  1
  C  197  1  0.47228200  0.75486050  0.68102800  1
  C  198  1  0.47998600  0.79602650  0.69378450  1
  C  199  1  0.53335800  0.82147900  0.72605300  1
  C  200  1  0.58801200  0.80266950  0.74061400  1
  C  201  1  0.58484200  0.76054500  0.72520750  1
  C  202  1  0.57981400  0.66337150  0.66762050  1
  C  203  1  0.43543300  0.67147850  0.65948600  1
  C  204  1  0.44160100  0.66276950  0.61857900  1
  C  205  1  0.37998100  0.64142050  0.58968900  1
  C  206  1  0.31072300  0.62603550  0.60008700  1
  C  207  1  0.30347900  0.63376900  0.64027400  1
  C  208  1  0.36448300  0.65603450  0.66928650  1
  C  209  1  0.57372800  0.62245150  0.65887550  1
  C  210  1  0.63544500  0.59360950  0.63755950  1
  C  211  1  0.70482400  0.60409450  0.62232550  1
  C  212  1  0.71203700  0.64430800  0.63013400  1
  C  213  1  0.65084400  0.67325100  0.65229250  1
  C  230  1  0.25333900  0.60078350  0.56993500  1
  C  231  1  0.76231400  0.57397850  0.59711450  1
  C  232  1  0.54014200  0.86247600  0.73773250  1
  C  233  1  0.47516100  0.74159700  0.85860900  1
  C  238  1  0.48167600  0.91420650  0.72596750  1
  C  239  1  0.53495900  0.90731350  0.69364300  1
  C  240  1  0.54268700  0.93567550  0.68083000  1
  C  241  1  0.49117300  0.97041900  0.69622400  1
  C  242  1  0.43011700  0.97422850  0.72498600  1
  C  243  1  0.42706300  0.94759300  0.74049600  1
  C  244  1  0.50758100  0.00569100  0.68853300  1
  C  245  1  0.52392600  0.04095550  0.73150700  1
  C  246  1  0.47241300  0.07570800  0.75081650  1
  C  247  1  0.48016500  0.10413350  0.79197200  1
  C  248  1  0.53350600  0.09731400  0.81742950  1
  C  249  1  0.58808600  0.06391250  0.79863650  1
  C  250  1  0.58486100  0.03716400  0.75651700  1
  C  251  1  0.57978700  0.99753200  0.65933900  1
  C  252  1  0.43544100  0.01385550  0.66746850  1
  C  253  1  0.44170800  0.04603700  0.65873800  1
  C  254  1  0.38004300  0.05366200  0.63747350  1
  C  255  1  0.31069900  0.02793400  0.62213450  1
  C  256  1  0.30335200  0.99549250  0.62987800  1
  C  257  1  0.36440900  0.98866700  0.65206450  1
  C  258  1  0.57364200  0.96535250  0.61842350  1
  C  259  1  0.63539800  0.95775200  0.58957700  1
  C  260  1  0.70475000  0.98348600  0.60002250  1
  C  261  1  0.71200100  0.01590500  0.64022650  1
  C  262  1  0.65085100  0.02271100  0.66919200  1
  C  279  1  0.25332600  0.03288950  0.59691550  1
  C  280  1  0.76220900  0.97857300  0.56989600  1
  C  281  1  0.54024100  0.12664300  0.85841400  1
  C  282  1  0.47490800  0.88495300  0.73773200  1
  C  287  1  0.48196600  0.82130400  0.09343000  1
  C  288  1  0.53527700  0.79584200  0.10025350  1
  C  289  1  0.54307800  0.75469450  0.07181050  1
  C  290  1  0.49152600  0.73538900  0.03707850  1
  C  291  1  0.43055800  0.76038750  0.03328350  1
  C  292  1  0.42749200  0.80252150  0.05997750  1
  C  293  1  0.50780400  0.69241350  0.00180000  1
  C  294  1  0.52423100  0.70011100  0.96653300  1
  C  295  1  0.47270800  0.68470400  0.93178800  1
  C  296  1  0.48051100  0.69744400  0.90337300  1
  C  297  1  0.53380800  0.72975100  0.91025000  1
  C  298  1  0.58832700  0.74436900  0.94367550  1
  C  299  1  0.58525700  0.72888300  0.97033100  1
  C  300  1  0.57990800  0.67131350  0.00994300  1
  C  301  1  0.43553300  0.66325650  0.99366650  1
  C  302  1  0.44165800  0.62232800  0.96150650  1
  C  303  1  0.37992200  0.59348750  0.95395500  1
  C  304  1  0.31057800  0.60395050  0.97969350  1
  C  305  1  0.30338000  0.64415600  0.01211300  1
  C  306  1  0.36452900  0.67311350  0.01888500  1
  C  307  1  0.57367100  0.66257700  0.04211850  1
  C  308  1  0.63527100  0.64122800  0.04966950  1
  C  309  1  0.70468100  0.62595100  0.02397700  1
  C  310  1  0.71201800  0.63373200  0.99156050  1
  C  311  1  0.65095500  0.65593350  0.98475650  1
  C  328  1  0.25316900  0.57381650  0.97480800  1
  C  329  1  0.76207400  0.60072150  0.02890350  1
  C  330  1  0.54045900  0.74160000  0.88105400  1
  C  331  1  0.47509700  0.86230900  0.12271500  1
  C  336  1  0.48227000  0.28182100  0.18640500  1
  C  337  1  0.53595000  0.31394450  0.21182950  1
  C  338  1  0.54369800  0.32666350  0.25298200  1
  C  339  1  0.49183600  0.31139850  0.27233000  1
  C  340  1  0.43076100  0.28267600  0.24734250  1
  C  341  1  0.42755800  0.26728700  0.20522200  1
  C  342  1  0.50793500  0.31913800  0.31532900  1
  C  343  1  0.52415000  0.27617650  0.30767650  1
  C  344  1  0.47234600  0.25685150  0.32298750  1
  C  345  1  0.48007200  0.21569750  0.31026350  1
  C  346  1  0.53363700  0.19024750  0.27809050  1
  C  347  1  0.58841900  0.20907300  0.26359200  1
  C  348  1  0.58533200  0.25120300  0.27901600  1
  C  349  1  0.58008700  0.34833950  0.33645050  1
  C  350  1  0.43565100  0.34023350  0.34444950  1
  C  351  1  0.44157100  0.34896550  0.38537050  1
  C  352  1  0.37977700  0.37028350  0.41416900  1
  C  353  1  0.31061500  0.38563150  0.40366650  1
  C  354  1  0.30362500  0.37788450  0.36346700  1
  C  355  1  0.36483600  0.35568250  0.33455750  1
  C  356  1  0.57405600  0.38922400  0.34508250  1
  C  357  1  0.63570000  0.41809500  0.36644150  1
  C  358  1  0.70484100  0.40769850  0.38189800  1
  C  359  1  0.71193900  0.36752950  0.37423350  1
  C  360  1  0.65092600  0.33852750  0.35195150  1
  C  377  1  0.25303200  0.41084150  0.43372750  1
  C  378  1  0.76218300  0.43785650  0.40717800  1
  C  379  1  0.54057000  0.14927750  0.26647150  1
  C  380  1  0.47527400  0.27021600  0.14544250  1
  H  9  1  0.28999100  0.00620300  0.50197100  1
  H  17  1  0.72539400  0.00527900  0.50183150  1
  H  19  1  0.93498800  0.00672600  0.59035850  1
  H  20  1  0.08094300  0.00475800  0.58929100  1
  H  21  1  0.93447300  0.00451900  0.41340450  1
  H  22  1  0.08037600  0.00698500  0.41455650  1
  H  24  1  0.25498600  0.03771750  0.45207300  1
  H  26  1  0.76007200  0.97372050  0.42036300  1
  H  28  1  0.76118800  0.03727950  0.58366000  1
  H  30  1  0.25441900  0.97421050  0.55196650  1
  H  39  1  0.28996000  0.50586100  0.00175700  1
  H  47  1  0.72536800  0.50572350  0.00211000  1
  H  49  1  0.93442600  0.59308000  0.00075050  1
  H  50  1  0.08037600  0.59421550  0.00285700  1
  H  51  1  0.93496500  0.41837800  0.00304450  1
  H  52  1  0.08089900  0.41731650  0.00076050  1
  H  54  1  0.25437600  0.42397200  0.97007950  1
  H  56  1  0.76075300  0.45578250  0.03378450  1
  H  58  1  0.76113100  0.55578200  0.97017750  1
  H  60  1  0.25373200  0.58776550  0.03357550  1
  H  69  1  0.29005600  0.50576350  0.50170200  1
  H  77  1  0.72546200  0.50598600  0.50226500  1
  H  79  1  0.93445600  0.41742050  0.41468550  1
  H  80  1  0.08038300  0.41847800  0.41342950  1
  H  81  1  0.93511300  0.59434750  0.58946250  1
  H  82  1  0.08106400  0.59318450  0.59042350  1
  H  84  1  0.25462300  0.55582050  0.58364150  1
  H  86  1  0.76149600  0.58787500  0.55228850  1
  H  88  1  0.76070000  0.42418250  0.45215550  1
  H  90  1  0.25447200  0.45585400  0.42007550  1
  H  116  1  0.38782100  0.93484950  0.37235100  1
  H  117  1  0.49174200  0.94664450  0.33550450  1
  H  118  1  0.25444400  0.03592100  0.38510550  1
  H  119  1  0.35780200  0.04789850  0.34860250  1
  H  120  1  0.52341900  0.06461500  0.39450150  1
  H  121  1  0.62713700  0.07647300  0.44324150  1
  H  122  1  0.76079000  0.97539850  0.35508600  1
  H  123  1  0.65761800  0.96336750  0.30649850  1
  H  124  1  0.62423700  0.99843150  0.25922150  1
  H  125  1  0.63103000  0.95245100  0.18829900  1
  H  126  1  0.44258100  0.88225450  0.20034350  1
  H  127  1  0.42505600  0.93078100  0.26757750  1
  H  128  1  0.39151200  0.01285750  0.26634750  1
  H  129  1  0.59054500  0.08045600  0.34249400  1
  H  130  1  0.57307000  0.12908200  0.32392800  1
  H  131  1  0.38478200  0.05894550  0.24151050  1
  H  165  1  0.38805500  0.44711350  0.07284900  1
  H  166  1  0.49185400  0.39837350  0.06087000  1
  H  167  1  0.25406000  0.35897450  0.97191400  1
  H  168  1  0.35735900  0.31039600  0.95973350  1
  H  169  1  0.52315300  0.33947900  0.94291200  1
  H  170  1  0.62704500  0.37628500  0.93103650  1
  H  171  1  0.76089700  0.38886200  0.03192000  1
  H  172  1  0.65754500  0.35241700  0.04398950  1
  H  173  1  0.62386000  0.27020000  0.00897100  1
  H  174  1  0.63079200  0.24534800  0.05502250  1
  H  175  1  0.44249500  0.32766400  0.12525350  1
  H  176  1  0.42484100  0.34630500  0.07669550  1
  H  177  1  0.39100200  0.26307900  0.99464950  1
  H  178  1  0.58993600  0.27153950  0.92694500  1
  H  179  1  0.57248700  0.20431550  0.87840500  1
  H  180  1  0.38431500  0.19213800  0.94863450  1
  H  214  1  0.38854500  0.63537050  0.56055000  1
  H  215  1  0.49225100  0.67216050  0.60933900  1
  H  216  1  0.25418100  0.62272350  0.64868050  1
  H  217  1  0.35735600  0.65917100  0.69731700  1
  H  218  1  0.52305400  0.61316450  0.66820450  1
  H  219  1  0.62696300  0.56446550  0.63150700  1
  H  220  1  0.76142200  0.65278100  0.61920000  1
  H  221  1  0.65802500  0.70132100  0.65553350  1
  H  222  1  0.62390400  0.74854350  0.73761850  1
  H  223  1  0.63069000  0.81948700  0.76254150  1
  H  224  1  0.44291500  0.80731350  0.67995800  1
  H  225  1  0.42536600  0.74009550  0.66125800  1
  H  226  1  0.39117700  0.74140100  0.74466850  1
  H  227  1  0.58980000  0.66506950  0.73620650  1
  H  228  1  0.57230900  0.68378200  0.80342300  1
  H  229  1  0.38447200  0.76633800  0.81560550  1
  H  263  1  0.38873100  0.07670300  0.63136150  1
  H  264  1  0.49243700  0.06461850  0.66808600  1
  H  265  1  0.25396400  0.97609350  0.61888150  1
  H  266  1  0.35715200  0.96381900  0.65526850  1
  H  267  1  0.52291300  0.94677250  0.60914800  1
  H  268  1  0.62677800  0.93472450  0.56041500  1
  H  269  1  0.76138500  0.03531050  0.64867500  1
  H  270  1  0.65806500  0.04754900  0.69725300  1
  H  271  1  0.62385600  0.01272900  0.74452550  1
  H  272  1  0.63072800  0.05879400  0.81546000  1
  H  273  1  0.44314900  0.12926700  0.80324300  1
  H  274  1  0.42551500  0.08072400  0.73605150  1
  H  275  1  0.39126300  0.99871700  0.73748750  1
  H  276  1  0.58955400  0.93061600  0.66102100  1
  H  277  1  0.57192000  0.88216000  0.67980200  1
  H  278  1  0.38446400  0.95276650  0.76247400  1
  H  312  1  0.38851900  0.56432900  0.93091150  1
  H  313  1  0.49235600  0.61303950  0.94290650  1
  H  314  1  0.25401400  0.65261950  0.03152900  1
  H  315  1  0.35736300  0.70117750  0.04372350  1
  H  316  1  0.52296800  0.67193650  0.06071750  1
  H  317  1  0.62668600  0.63518850  0.07276400  1
  H  318  1  0.76141700  0.62275800  0.97216550  1
  H  319  1  0.65823200  0.65916400  0.95992600  1
  H  320  1  0.62409700  0.74138600  0.99482300  1
  H  321  1  0.63087600  0.76636800  0.94885400  1
  H  322  1  0.44351400  0.68360400  0.87823000  1
  H  323  1  0.42589900  0.66486600  0.92671900  1
  H  324  1  0.39172800  0.74843800  0.00878800  1
  H  325  1  0.58982400  0.73989400  0.07687750  1
  H  326  1  0.57216100  0.80710950  0.12543150  1
  H  327  1  0.38492300  0.81935500  0.05482900  1
  H  361  1  0.38819200  0.37635300  0.44332200  1
  H  362  1  0.49213800  0.33959250  0.39468350  1
  H  363  1  0.25441000  0.38890950  0.35498350  1
  H  364  1  0.35785200  0.35249250  0.30649850  1
  H  365  1  0.52349500  0.39846150  0.33563100  1
  H  366  1  0.62724100  0.44722400  0.37244150  1
  H  367  1  0.76115700  0.35911950  0.38532100  1
  H  368  1  0.65794500  0.31051400  0.34886600  1
  H  369  1  0.62438900  0.26318650  0.26658850  1
  H  370  1  0.63120500  0.19226650  0.24172250  1
  H  371  1  0.44303300  0.20442750  0.32411850  1
  H  372  1  0.42543000  0.27163500  0.34275000  1
  H  373  1  0.39158500  0.27030950  0.25934450  1
  H  374  1  0.59059900  0.34643750  0.26776750  1
  H  375  1  0.57301400  0.32778650  0.20055400  1
  H  376  1  0.38472500  0.24543700  0.18842750  1
  N  23  1  0.22848200  0.01148300  0.44267650  1
  N  25  1  0.78651900  0.99997450  0.43717400  1
  N  27  1  0.78683900  0.01087800  0.56654150  1
  N  29  1  0.22898400  0.00063800  0.56114400  1
  N  53  1  0.22899900  0.44128200  0.99651300  1
  N  55  1  0.78683200  0.44648550  0.00747550  1
  N  57  1  0.78637400  0.56495400  0.99664750  1
  N  59  1  0.22856900  0.57042600  0.00709600  1
  N  83  1  0.22909800  0.56499350  0.56640750  1
  N  85  1  0.78690800  0.57059050  0.56142850  1
  N  87  1  0.78642600  0.44135050  0.44295350  1
  N  89  1  0.22855900  0.44653550  0.43710800  1
  O  136  1  0.78480200  0.07038550  0.46206000  1
  O  137  1  0.40437700  0.13753550  0.26517250  1
  O  138  1  0.23014100  0.94104850  0.39727550  1
  O  139  1  0.61130400  0.87393000  0.13319800  1
  O  185  1  0.78461000  0.40113300  0.93704850  1
  O  186  1  0.40407500  0.13706800  0.87008600  1
  O  187  1  0.23079800  0.46617450  0.06687750  1
  O  188  1  0.61139000  0.26894700  0.13358650  1
  O  234  1  0.78440600  0.54547800  0.60672400  1
  O  235  1  0.40421700  0.74280800  0.87070700  1
  O  236  1  0.23118200  0.61044950  0.54148250  1
  O  237  1  0.61111400  0.87455100  0.73896350  1
  O  283  1  0.78435000  0.94045750  0.54142900  1
  O  284  1  0.40393800  0.87415350  0.73904150  1
  O  285  1  0.23121300  0.07101900  0.60660500  1
  O  286  1  0.61120400  0.13743450  0.87055300  1
  O  332  1  0.78403000  0.61033250  0.06702950  1
  O  333  1  0.40412300  0.87446200  0.13343700  1
  O  334  1  0.23120000  0.54525350  0.93670050  1
  O  335  1  0.61139700  0.74291600  0.87022200  1
  O  381  1  0.78466800  0.46622750  0.39745450  1
  O  382  1  0.40430900  0.26860250  0.13320250  1
  O  383  1  0.23071400  0.40117350  0.46215950  1
  O  384  1  0.61150800  0.13703250  0.26491450  1
