# generated using pymatgen
data_BaP4H27(C16O9)2
_symmetry_space_group_name_H-M   'P 1'
_cell_length_a   8.33649000
_cell_length_b   13.03935000
_cell_length_c   18.81662000
_cell_angle_alpha   100.41021000
_cell_angle_beta   90.73432000
_cell_angle_gamma   99.19967000
_symmetry_Int_Tables_number   1
_chemical_formula_structural   BaP4H27(C16O9)2
_chemical_formula_sum   'Ba2 P8 H54 C64 O36'
_cell_volume   1984.03339921
_cell_formula_units_Z   2
loop_
 _symmetry_equiv_pos_site_id
 _symmetry_equiv_pos_as_xyz
  1  'x, y, z'
loop_
 _atom_site_type_symbol
 _atom_site_label
 _atom_site_symmetry_multiplicity
 _atom_site_fract_x
 _atom_site_fract_y
 _atom_site_fract_z
 _atom_site_occupancy
  Ba  Ba0  1  0.85278000  0.54834000  0.46507000  1
  Ba  Ba1  1  0.33706000  0.45175000  0.53494000  1
  P  P2  1  0.04104000  0.39477000  0.33633000  1
  P  P3  1  0.67288000  0.75403000  0.55610000  1
  P  P4  1  0.13328000  0.81734000  0.40186000  1
  P  P5  1  0.14867000  0.60532000  0.66368000  1
  P  P6  1  0.06070000  0.17675000  0.59634000  1
  P  P7  1  0.63802000  0.60583000  0.27393000  1
  P  P8  1  0.52060000  0.23058000  0.44036000  1
  P  P9  1  0.54997000  0.39373000  0.72501000  1
  H  H10  1  0.45144000  0.87961000  0.74145000  1
  H  H11  1  0.52371000  0.75212000  0.21683000  1
  H  H12  1  0.64722000  0.91980000  0.18085000  1
  H  H13  1  0.21726000  0.11133000  0.26435000  1
  H  H14  1  0.71069000  0.80545000  0.12742000  1
  H  H15  1  0.23751000  0.87050000  0.19492000  1
  H  H16  1  0.16042000  0.31331000  0.72928000  1
  H  H17  1  0.94727000  0.25660000  0.72697000  1
  H  H18  1  0.22121000  0.20260000  0.81800000  1
  H  H19  1  0.07558000  0.28649000  0.85065000  1
  H  H20  1  0.00798000  0.14758000  0.81664000  1
  H  H21  1  0.46887000  0.93953000  0.66231000  1
  H  H22  1  0.67598000  0.22953000  0.67764000  1
  H  H23  1  0.48401000  0.14211000  0.66550000  1
  H  H24  1  0.72637000  0.18152000  0.79601000  1
  H  H25  1  0.69850000  0.06854000  0.72342000  1
  H  H26  1  0.53631000  0.09088000  0.78482000  1
  H  H27  1  0.81292000  0.51128000  0.66482000  1
  H  H28  1  0.86521000  0.37484000  0.20052000  1
  H  H29  1  0.30636000  0.65714000  0.80325000  1
  H  H30  1  0.61288000  0.60126000  0.12633000  1
  H  H31  1  0.35217000  0.53344000  0.34517000  1
  H  H32  1  0.29476000  0.94940000  0.71808000  1
  H  H33  1  0.77118000  0.37338000  0.08245000  1
  H  H34  1  0.40529000  0.65728000  0.92240000  1
  H  H35  1  0.29533000  0.75968000  0.28549000  1
  H  H36  1  0.51915000  0.60421000  0.00748000  1
  H  H37  1  0.85844000  0.96291000  0.58247000  1
  H  H38  1  0.38653000  0.72264000  0.46467000  1
  H  H39  1  0.24142000  0.73405000  0.15536000  1
  H  H40  1  0.04937000  0.77965000  0.16795000  1
  H  H41  1  0.56367000  0.90926000  0.31733000  1
  H  H42  1  0.73343000  0.20426000  0.18779000  1
  H  H43  1  0.71522000  0.05863000  0.30192000  1
  H  H44  1  0.77368000  0.24482000  0.31894000  1
  H  H45  1  0.85666000  0.02236000  0.40958000  1
  H  H46  1  0.98385000  0.91016000  0.73982000  1
  H  H47  1  0.56556000  0.77555000  0.80509000  1
  H  H48  1  0.31049000  0.27398000  0.34878000  1
  H  H49  1  0.52998000  0.33828000  0.23422000  1
  H  H50  1  0.48758000  0.06009000  0.21449000  1
  H  H51  1  0.24312000  0.21873000  0.21613000  1
  H  H52  1  0.09722000  0.67849000  0.26210000  1
  H  H53  1  0.50777000  0.47640000  0.87546000  1
  H  H54  1  0.91801000  0.04203000  0.27539000  1
  H  H55  1  0.82910000  0.23062000  0.99323000  1
  H  H56  1  0.38867000  0.01135000  0.32786000  1
  H  H57  1  0.88045000  0.31687000  0.48391000  1
  H  H58  1  0.38446000  0.74579000  0.62816000  1
  H  H59  1  0.18116000  0.89996000  0.58772000  1
  H  H60  1  0.87119000  0.70304000  0.65224000  1
  H  H61  1  0.67247000  0.64694000  0.67767000  1
  H  H62  1  0.84754000  0.88896000  0.19641000  1
  H  H63  1  0.91510000  0.72807000  0.77629000  1
  C  C64  1  0.71817000  0.85502000  0.18235000  1
  C  C65  1  0.89918000  0.40165000  0.09521000  1
  C  C66  1  0.80297000  0.36850000  0.94043000  1
  C  C67  1  0.16843000  0.75922000  0.26639000  1
  C  C68  1  0.95052000  0.43156000  0.97046000  1
  C  C69  1  0.72324000  0.39899000  0.88330000  1
  C  C70  1  0.81764000  0.45125000  0.83399000  1
  C  C71  1  0.98246000  0.49584000  0.85490000  1
  C  C72  1  0.04503000  0.49188000  0.92559000  1
  C  C73  1  0.75633000  0.45842000  0.76411000  1
  C  C74  1  0.86117000  0.50432000  0.71671000  1
  C  C75  1  0.64983000  0.78725000  0.23653000  1
  C  C76  1  0.02460000  0.54525000  0.73453000  1
  C  C77  1  0.08209000  0.54891000  0.80707000  1
  C  C78  1  0.16271000  0.48903000  0.06820000  1
  C  C79  1  0.17438000  0.78789000  0.19153000  1
  C  C80  1  0.21718000  0.49335000  0.14168000  1
  C  C81  1  0.11063000  0.45061000  0.19174000  1
  C  C82  1  0.95322000  0.40466000  0.16585000  1
  C  C83  1  0.23257000  0.60791000  0.83479000  1
  C  C84  1  0.29068000  0.60733000  0.90473000  1
  C  C85  1  0.20300000  0.54539000  0.95020000  1
  C  C86  1  0.40242000  0.24439000  0.31221000  1
  C  C87  1  0.26601000  0.53756000  0.01998000  1
  C  C88  1  0.42978000  0.57507000  0.04315000  1
  C  C89  1  0.37835000  0.53995000  0.16469000  1
  C  C90  1  0.48531000  0.57329000  0.11308000  1
  C  C91  1  0.29360000  0.79498000  0.64982000  1
  C  C92  1  0.42635000  0.55374000  0.23876000  1
  C  C93  1  0.31477000  0.52007000  0.28855000  1
  C  C94  1  0.16233000  0.46045000  0.26633000  1
  C  C95  1  0.75736000  0.17968000  0.52875000  1
  C  C96  1  0.43466000  0.80578000  0.46914000  1
  C  C97  1  0.30939000  0.17108000  0.24603000  1
  C  C98  1  0.41023000  0.97371000  0.43732000  1
  C  C99  1  0.34454000  0.86936000  0.43857000  1
  C  C100  1  0.57941000  0.84849000  0.50962000  1
  C  C101  1  0.63962000  0.96040000  0.51684000  1
  C  C102  1  0.55358000  0.02452000  0.47958000  1
  C  C103  1  0.38230000  0.89716000  0.69579000  1
  C  C104  1  0.61386000  0.13613000  0.48695000  1
  C  C105  1  0.84897000  0.11683000  0.56000000  1
  C  C106  1  0.78705000  0.00886000  0.55643000  1
  C  C107  1  0.86723000  0.20322000  0.29192000  1
  C  C108  1  0.07326000  0.24136000  0.73404000  1
  C  C109  1  0.84542000  0.09291000  0.31078000  1
  C  C110  1  0.76157000  0.72104000  0.68136000  1
  C  C111  1  0.81461000  0.76729000  0.76113000  1
  C  C112  1  0.64485000  0.85328000  0.30955000  1
  C  C113  1  0.84408000  0.18834000  0.21114000  1
  C  C114  1  0.89728000  0.09129000  0.38655000  1
  C  C115  1  0.88297000  0.88379000  0.77160000  1
  C  C116  1  0.67728000  0.74473000  0.81026000  1
  C  C117  1  0.50287000  0.33669000  0.29032000  1
  C  C118  1  0.41723000  0.11362000  0.19559000  1
  C  C119  1  0.09588000  0.21804000  0.80953000  1
  C  C120  1  0.55033000  0.41049000  0.89238000  1
  C  C121  1  0.75233000  0.26096000  0.95776000  1
  C  C122  1  0.33744000  0.01643000  0.38042000  1
  C  C123  1  0.82566000  0.29077000  0.53087000  1
  C  C124  1  0.20070000  0.82010000  0.58978000  1
  C  C125  1  0.57130000  0.19495000  0.70656000  1
  C  C126  1  0.63683000  0.12959000  0.75579000  1
  C  C127  1  0.00399000  0.43821000  0.04387000  1
  O  O128  1  0.87309000  0.42589000  0.32514000  1
  O  O129  1  0.18596000  0.12266000  0.54970000  1
  O  O130  1  0.10361000  0.15458000  0.68302000  1
  O  O131  1  0.12242000  0.43437000  0.41438000  1
  O  O132  1  0.57837000  0.63380000  0.53638000  1
  O  O133  1  0.34151000  0.23185000  0.46551000  1
  O  O134  1  0.50612000  0.19068000  0.34565000  1
  O  O135  1  0.41517000  0.45707000  0.75306000  1
  O  O136  1  0.48880000  0.26975000  0.74815000  1
  O  O137  1  0.65950000  0.62710000  0.36881000  1
  O  O138  1  0.73667000  0.51844000  0.24654000  1
  O  O139  1  0.68972000  0.79339000  0.65043000  1
  O  O140  1  0.02372000  0.25643000  0.31582000  1
  O  O141  1  0.74868000  0.71077000  0.24006000  1
  O  O142  1  0.84820000  0.76819000  0.53453000  1
  O  O143  1  0.08116000  0.68595000  0.40481000  1
  O  O144  1  0.01002000  0.87467000  0.44769000  1
  O  O145  1  0.72823000  0.84239000  0.36044000  1
  O  O146  1  0.94556000  0.15479000  0.17110000  1
  O  O147  1  0.99194000  0.16391000  0.42203000  1
  O  O148  1  0.82752000  0.94911000  0.81509000  1
  O  O149  1  0.69094000  0.69145000  0.85640000  1
  O  O150  1  0.09319000  0.83228000  0.31310000  1
  O  O151  1  0.55941000  0.41081000  0.33732000  1
  O  O152  1  0.42486000  0.12570000  0.13281000  1
  O  O153  1  0.45694000  0.35199000  0.92259000  1
  O  O154  1  0.62966000  0.20263000  0.93017000  1
  O  O155  1  0.20878000  0.04769000  0.38905000  1
  O  O156  1  0.81934000  0.35506000  0.58542000  1
  O  O157  1  0.14113000  0.74737000  0.54268000  1
  O  O158  1  0.31661000  0.57414000  0.67490000  1
  O  O159  1  0.06729000  0.56572000  0.58563000  1
  O  O160  1  0.53021000  0.37299000  0.63120000  1
  O  O161  1  0.18248000  0.74362000  0.69182000  1
  O  O162  1  0.61134000  0.36629000  0.46363000  1
  O  O163  1  0.10855000  0.31414000  0.59520000  1
