# generated using pymatgen
data_H46C77N6
_symmetry_space_group_name_H-M   'P 1'
_cell_length_a   21.29950000
_cell_length_b   34.20177520
_cell_length_c   35.80880000
_cell_angle_alpha   89.99956407
_cell_angle_beta   89.99860000
_cell_angle_gamma   71.85758243
_symmetry_Int_Tables_number   1
_chemical_formula_structural   H46C77N6
_chemical_formula_sum   'H184 C308 N24'
_cell_volume   24789.16582843
_cell_formula_units_Z   4
loop_
 _symmetry_equiv_pos_site_id
 _symmetry_equiv_pos_as_xyz
  1  'x, y, z'
loop_
 _atom_site_type_symbol
 _atom_site_label
 _atom_site_symmetry_multiplicity
 _atom_site_fract_x
 _atom_site_fract_y
 _atom_site_fract_z
 _atom_site_occupancy
  C  1  1  0.12712400  0.75195900  0.74382600  1
  C  2  1  0.09253850  0.79654200  0.87657000  1
  C  3  1  0.05288150  0.90152600  0.77326750  1
  C  4  1  0.05094900  0.82442100  0.90223300  1
  C  5  1  0.05006200  0.81502500  0.94031500  1
  C  6  1  0.09017300  0.77703800  0.95436300  1
  C  7  1  0.13182050  0.74847700  0.92962800  1
  C  8  1  0.13285400  0.75826900  0.89138900  1
  C  9  1  0.17088500  0.71203600  0.75151700  1
  C  10  1  0.18562750  0.68072200  0.72434550  1
  C  11  1  0.15782650  0.68861400  0.68836700  1
  C  12  1  0.11302050  0.72764200  0.68043300  1
  C  13  1  0.09773800  0.75866500  0.70782300  1
  C  14  1  0.02447400  0.91026600  0.73707450  1
  C  15  1  0.00329700  0.95028500  0.72228450  1
  C  16  1  0.00660450  0.98413000  0.74355650  1
  C  17  1  0.03007500  0.97690900  0.78065900  1
  C  18  1  0.05303800  0.93635200  0.79504700  1
  C  30  1  0.07750250  0.85923800  0.78646300  1
  C  31  1  0.09962050  0.82595300  0.76099500  1
  C  32  1  0.11228250  0.78426100  0.77136500  1
  C  33  1  0.10741900  0.77593800  0.80975100  1
  C  34  1  0.09363850  0.80702200  0.83748000  1
  C  35  1  0.07827400  0.84839800  0.82474900  1
  C  43  1  0.83748000  0.32673700  0.74372100  1
  C  44  1  0.87232350  0.28230300  0.87653600  1
  C  45  1  0.91039250  0.17724300  0.77381200  1
  C  46  1  0.91413000  0.25430100  0.90203400  1
  C  47  1  0.91498450  0.26335900  0.94017100  1
  C  48  1  0.87463150  0.30112400  0.95447300  1
  C  49  1  0.83273850  0.32981500  0.92990200  1
  C  50  1  0.83185500  0.32040300  0.89155800  1
  C  51  1  0.79364750  0.36663100  0.75142450  1
  C  52  1  0.77885250  0.39793200  0.72425750  1
  C  53  1  0.80669000  0.39004100  0.68829100  1
  C  54  1  0.85153850  0.35103500  0.68034100  1
  C  55  1  0.86686100  0.32001500  0.70772100  1
  C  56  1  0.93882200  0.16706900  0.73769000  1
  C  57  1  0.96146150  0.12621400  0.72460100  1
  C  58  1  0.95915050  0.09360900  0.74797300  1
  C  59  1  0.93389250  0.10245600  0.78433300  1
  C  60  1  0.90942150  0.14349200  0.79679350  1
  C  72  1  0.88662350  0.21966300  0.78652350  1
  C  73  1  0.86518000  0.25276300  0.76089250  1
  C  74  1  0.85239850  0.29448400  0.77126500  1
  C  75  1  0.85706700  0.30297600  0.80965400  1
  C  76  1  0.87095000  0.27199000  0.83743550  1
  C  77  1  0.88604000  0.23067100  0.82476900  1
  C  85  1  0.83971350  0.32661100  0.25654650  1
  C  86  1  0.84973950  0.28225900  0.12372600  1
  C  87  1  0.91565250  0.17704500  0.22655950  1
  C  88  1  0.83623300  0.25443100  0.09790950  1
  C  89  1  0.82591500  0.26402400  0.05984950  1
  C  90  1  0.82766950  0.30221000  0.04606300  1
  C  91  1  0.84065950  0.33065200  0.07092750  1
  C  92  1  0.85174700  0.32060300  0.10908550  1
  C  93  1  0.84356600  0.36653000  0.24885050  1
  C  94  1  0.82705200  0.39783700  0.27602550  1
  C  95  1  0.80713250  0.38994800  0.31199950  1
  C  96  1  0.80131900  0.35092800  0.31993650  1
  C  97  1  0.81706550  0.31989700  0.29255300  1
  C  98  1  0.89642000  0.16781900  0.26269500  1
  C  99  1  0.91452800  0.12747000  0.27666200  1
  C  100  1  0.95032100  0.09401000  0.25448400  1
  C  101  1  0.96730750  0.10172300  0.21780750  1
  C  102  1  0.95041800  0.14256900  0.20427750  1
  C  114  1  0.89761500  0.21943100  0.21369300  1
  C  115  1  0.88620800  0.25261300  0.23929150  1
  C  116  1  0.85711850  0.29432900  0.22898950  1
  C  117  1  0.84392100  0.30274800  0.19061500  1
  C  118  1  0.86119950  0.27175000  0.16281100  1
  C  119  1  0.88730600  0.23038100  0.17544650  1
  C  127  1  0.12481300  0.75192000  0.25654650  1
  C  128  1  0.11494200  0.79635500  0.12374700  1
  C  129  1  0.04884700  0.90150000  0.22659600  1
  C  130  1  0.12862400  0.82426100  0.09809500  1
  C  131  1  0.13880750  0.81491000  0.06000250  1
  C  132  1  0.13664500  0.77693700  0.04594600  1
  C  133  1  0.12362300  0.74834800  0.07067500  1
  C  134  1  0.11283650  0.75810900  0.10892000  1
  C  135  1  0.12094000  0.71200400  0.24886000  1
  C  136  1  0.13746350  0.68069900  0.27603500  1
  C  137  1  0.15739100  0.68858900  0.31200800  1
  C  138  1  0.16322300  0.72760500  0.31993650  1
  C  139  1  0.14746850  0.75863500  0.29255150  1
  C  140  1  0.06814250  0.91070000  0.26272300  1
  C  141  1  0.05004100  0.95103700  0.27671600  1
  C  142  1  0.01420950  0.98451900  0.25457700  1
  C  143  1  0.99725500  0.97684000  0.21788050  1
  C  144  1  0.01410400  0.93599800  0.20433200  1
  C  156  1  0.06684700  0.85911200  0.21372600  1
  C  157  1  0.07830900  0.82591400  0.23930900  1
  C  158  1  0.10739400  0.78420100  0.22898950  1
  C  159  1  0.12057200  0.77578700  0.19060750  1
  C  160  1  0.10330900  0.80680600  0.16282950  1
  C  161  1  0.07715600  0.84817000  0.17548250  1
  C  337  1  0.27251500  0.56485200  0.50032200  1
  C  338  1  0.27227900  0.52406800  0.50024300  1
  C  339  1  0.20752850  0.52407100  0.50010850  1
  C  340  1  0.16651100  0.56485700  0.50003600  1
  C  341  1  0.09770100  0.57370300  0.49994250  1
  C  342  1  0.06932550  0.54126100  0.49997750  1
  C  343  1  0.11255600  0.49995500  0.50006800  1
  C  344  1  0.18150800  0.49115200  0.50011400  1
  C  345  1  0.33121400  0.49114800  0.50023250  1
  C  346  1  0.39136500  0.49994800  0.50028150  1
  C  347  1  0.39329600  0.54125000  0.50037250  1
  C  348  1  0.33248150  0.57369600  0.50041200  1
  C  349  1  0.19072250  0.62311600  0.46839300  1
  C  350  1  0.16958100  0.66399800  0.48065100  1
  C  351  1  0.17036500  0.66399800  0.51970400  1
  C  352  1  0.19005000  0.62311800  0.53196700  1
  C  353  1  0.15733250  0.69629700  0.54581800  1
  C  354  1  0.16393550  0.68687000  0.58431400  1
  C  355  1  0.18152750  0.64558400  0.59734850  1
  C  356  1  0.19487350  0.61370100  0.57034800  1
  C  357  1  0.19530450  0.61369100  0.43001400  1
  C  358  1  0.17670400  0.64557000  0.40301350  1
  C  359  1  0.15299950  0.68685700  0.41604150  1
  C  360  1  0.15022850  0.69629200  0.45453750  1
  C  373  1  0.20489350  0.59409900  0.50018100  1
  C  374  1  0.18936850  0.63477700  0.63504500  1
  C  375  1  0.17962550  0.63475300  0.36532300  1
  C  376  1  0.45118450  0.55215300  0.50037400  1
  C  377  1  0.00053350  0.55216500  0.49997450  1
  C  382  1  0.69209250  0.51369800  0.50030700  1
  C  383  1  0.69232100  0.55448200  0.50023100  1
  C  384  1  0.75707100  0.55448500  0.50009750  1
  C  385  1  0.79808950  0.51370200  0.50001350  1
  C  386  1  0.86690300  0.50485600  0.49992850  1
  C  387  1  0.89527100  0.53730300  0.49997200  1
  C  388  1  0.85203700  0.57860700  0.50006400  1
  C  389  1  0.78308650  0.58740700  0.50011000  1
  C  390  1  0.63338200  0.58740000  0.50023100  1
  C  391  1  0.57323500  0.57859600  0.50027900  1
  C  392  1  0.57131200  0.53729000  0.50036800  1
  C  393  1  0.63212700  0.50484800  0.50040200  1
  C  394  1  0.77389500  0.45543600  0.46837450  1
  C  395  1  0.79511500  0.41455400  0.48063700  1
  C  396  1  0.79431200  0.41455600  0.51968900  1
  C  397  1  0.77458000  0.45544200  0.53193900  1
  C  398  1  0.80728300  0.38226800  0.54580950  1
  C  399  1  0.80060250  0.39171600  0.58430150  1
  C  400  1  0.78299150  0.43300800  0.59731550  1
  C  401  1  0.76971650  0.46488000  0.57031050  1
  C  402  1  0.76930650  0.46485800  0.42999850  1
  C  403  1  0.78787850  0.43297500  0.40299950  1
  C  404  1  0.81154500  0.39168600  0.41602850  1
  C  405  1  0.81436150  0.38225600  0.45452500  1
  C  418  1  0.75971700  0.48445700  0.50015450  1
  C  419  1  0.77511600  0.44385900  0.63499300  1
  C  420  1  0.78491400  0.44378800  0.36530900  1
  C  421  1  0.51342100  0.52638600  0.50037100  1
  C  422  1  0.96406350  0.52639900  0.49997200  1
  C  1033  1  0.89237600  0.75195900  0.43663900  1
  C  1034  1  0.85779050  0.79654200  0.56938300  1
  C  1035  1  0.81813350  0.90152600  0.46608050  1
  C  1036  1  0.81620100  0.82442100  0.59504600  1
  C  1037  1  0.81531400  0.81502500  0.63312800  1
  C  1038  1  0.85542500  0.77703800  0.64717600  1
  C  1039  1  0.89707250  0.74847700  0.62244100  1
  C  1040  1  0.89810600  0.75826900  0.58420200  1
  C  1041  1  0.93613700  0.71203600  0.44433000  1
  C  1042  1  0.95087950  0.68072200  0.41715850  1
  C  1043  1  0.92307850  0.68861400  0.38118000  1
  C  1044  1  0.87827250  0.72764200  0.37324600  1
  C  1045  1  0.86299000  0.75866500  0.40063600  1
  C  1046  1  0.78972600  0.91026600  0.42988750  1
  C  1047  1  0.76854900  0.95028500  0.41509750  1
  C  1048  1  0.77185650  0.98413000  0.43636950  1
  C  1049  1  0.79532700  0.97690900  0.47347200  1
  C  1050  1  0.81829000  0.93635200  0.48786000  1
  C  1062  1  0.84275450  0.85923800  0.47927600  1
  C  1063  1  0.86487250  0.82595300  0.45380800  1
  C  1064  1  0.87753450  0.78426100  0.46417800  1
  C  1065  1  0.87267100  0.77593800  0.50256400  1
  C  1066  1  0.85889050  0.80702200  0.53029300  1
  C  1067  1  0.84352600  0.84839800  0.51756200  1
  C  1075  1  0.60273200  0.32673700  0.43653400  1
  C  1076  1  0.63757550  0.28230300  0.56934900  1
  C  1077  1  0.67564450  0.17724300  0.46662500  1
  C  1078  1  0.67938220  0.25430100  0.59484700  1
  C  1079  1  0.68023670  0.26335900  0.63298400  1
  C  1080  1  0.63988350  0.30112400  0.64728600  1
  C  1081  1  0.59799050  0.32981500  0.62271500  1
  C  1082  1  0.59710700  0.32040300  0.58437100  1
  C  1083  1  0.55889950  0.36663100  0.44423750  1
  C  1084  1  0.54410450  0.39793200  0.41707050  1
  C  1085  1  0.57194200  0.39004100  0.38110400  1
  C  1086  1  0.61679050  0.35103500  0.37315400  1
  C  1087  1  0.63211300  0.32001500  0.40053400  1
  C  1088  1  0.70407400  0.16706900  0.43050300  1
  C  1089  1  0.72671350  0.12621400  0.41741400  1
  C  1090  1  0.72440250  0.09360900  0.44078600  1
  C  1091  1  0.69914450  0.10245600  0.47714600  1
  C  1092  1  0.67467350  0.14349200  0.48960650  1
  C  1104  1  0.65187550  0.21966300  0.47933650  1
  C  1105  1  0.63043200  0.25276300  0.45370550  1
  C  1106  1  0.61765050  0.29448400  0.46407800  1
  C  1107  1  0.62231900  0.30297600  0.50246700  1
  C  1108  1  0.63620200  0.27199000  0.53024850  1
  C  1109  1  0.65129200  0.23067100  0.51758200  1
  C  1117  1  0.60496550  0.32661100  0.94935940  1
  C  1118  1  0.61499150  0.28225900  0.81653900  1
  C  1119  1  0.68090450  0.17704500  0.91937240  1
  C  1120  1  0.60148500  0.25443100  0.79072250  1
  C  1121  1  0.59116700  0.26402400  0.75266250  1
  C  1122  1  0.59292150  0.30221000  0.73887600  1
  C  1123  1  0.60591150  0.33065200  0.76374050  1
  C  1124  1  0.61699900  0.32060300  0.80189850  1
  C  1125  1  0.60881800  0.36653000  0.94166340  1
  C  1126  1  0.59230400  0.39783700  0.96883840  1
  C  1127  1  0.57238450  0.38994800  0.00481250  1
  C  1128  1  0.56657100  0.35092800  0.01274950  1
  C  1129  1  0.58231750  0.31989700  0.98536590  1
  C  1130  1  0.66167200  0.16781900  0.95550790  1
  C  1131  1  0.67978000  0.12747000  0.96947490  1
  C  1132  1  0.71557300  0.09401000  0.94729690  1
  C  1133  1  0.73255950  0.10172300  0.91062040  1
  C  1134  1  0.71567000  0.14256900  0.89709050  1
  C  1146  1  0.66286700  0.21943100  0.90650590  1
  C  1147  1  0.65146000  0.25261300  0.93210440  1
  C  1148  1  0.62237050  0.29432900  0.92180240  1
  C  1149  1  0.60917300  0.30274800  0.88342800  1
  C  1150  1  0.62645150  0.27175000  0.85562400  1
  C  1151  1  0.65255800  0.23038100  0.86825950  1
  C  1159  1  0.89006500  0.75192000  0.94935940  1
  C  1160  1  0.88019400  0.79635500  0.81656000  1
  C  1161  1  0.81409900  0.90150000  0.91940890  1
  C  1162  1  0.89387620  0.82426100  0.79090800  1
  C  1163  1  0.90405970  0.81491000  0.75281550  1
  C  1164  1  0.90189700  0.77693700  0.73875900  1
  C  1165  1  0.88887500  0.74834800  0.76348800  1
  C  1166  1  0.87808850  0.75810900  0.80173300  1
  C  1167  1  0.88619200  0.71200400  0.94167290  1
  C  1168  1  0.90271550  0.68069900  0.96884790  1
  C  1169  1  0.92264300  0.68858900  0.00482100  1
  C  1170  1  0.92847500  0.72760500  0.01274950  1
  C  1171  1  0.91272050  0.75863500  0.98536440  1
  C  1172  1  0.83339450  0.91070000  0.95553590  1
  C  1173  1  0.81529300  0.95103700  0.96952890  1
  C  1174  1  0.77946150  0.98451900  0.94738990  1
  C  1175  1  0.76250700  0.97684000  0.91069340  1
  C  1176  1  0.77935600  0.93599800  0.89714500  1
  C  1188  1  0.83209900  0.85911200  0.90653890  1
  C  1189  1  0.84356100  0.82591400  0.93212190  1
  C  1190  1  0.87264600  0.78420100  0.92180240  1
  C  1191  1  0.88582400  0.77578700  0.88342050  1
  C  1192  1  0.86856100  0.80680600  0.85564250  1
  C  1193  1  0.84240800  0.84817000  0.86829550  1
  C  1369  1  0.03776720  0.56485200  0.19313500  1
  C  1370  1  0.03753100  0.52406800  0.19305600  1
  C  1371  1  0.97278050  0.52407100  0.19292150  1
  C  1372  1  0.93176300  0.56485700  0.19284900  1
  C  1373  1  0.86295300  0.57370300  0.19275550  1
  C  1374  1  0.83457750  0.54126100  0.19279050  1
  C  1375  1  0.87780800  0.49995500  0.19288100  1
  C  1376  1  0.94676000  0.49115200  0.19292700  1
  C  1377  1  0.09646620  0.49114800  0.19304550  1
  C  1378  1  0.15661720  0.49994800  0.19309450  1
  C  1379  1  0.15854820  0.54125000  0.19318550  1
  C  1380  1  0.09773370  0.57369600  0.19322500  1
  C  1381  1  0.95597450  0.62311600  0.16120600  1
  C  1382  1  0.93483300  0.66399800  0.17346400  1
  C  1383  1  0.93561700  0.66399800  0.21251700  1
  C  1384  1  0.95530200  0.62311800  0.22478000  1
  C  1385  1  0.92258450  0.69629700  0.23863100  1
  C  1386  1  0.92918750  0.68687000  0.27712700  1
  C  1387  1  0.94677950  0.64558400  0.29016150  1
  C  1388  1  0.96012550  0.61370100  0.26316100  1
  C  1389  1  0.96055650  0.61369100  0.12282700  1
  C  1390  1  0.94195600  0.64557000  0.09582650  1
  C  1391  1  0.91825150  0.68685700  0.10885450  1
  C  1392  1  0.91548050  0.69629200  0.14735050  1
  C  1405  1  0.97014550  0.59409900  0.19299400  1
  C  1406  1  0.95462050  0.63477700  0.32785800  1
  C  1407  1  0.94487750  0.63475300  0.05813600  1
  C  1408  1  0.21643667  0.55215300  0.19318700  1
  C  1409  1  0.76578550  0.55216500  0.19278750  1
  C  1414  1  0.45734450  0.51369800  0.19312000  1
  C  1415  1  0.45757300  0.55448200  0.19304400  1
  C  1416  1  0.52232300  0.55448500  0.19291050  1
  C  1417  1  0.56334170  0.51370200  0.19282650  1
  C  1418  1  0.63215520  0.50485600  0.19274150  1
  C  1419  1  0.66052320  0.53730300  0.19278500  1
  C  1420  1  0.61728920  0.57860700  0.19287700  1
  C  1421  1  0.54833870  0.58740700  0.19292300  1
  C  1422  1  0.39863400  0.58740000  0.19304400  1
  C  1423  1  0.33848700  0.57859600  0.19309200  1
  C  1424  1  0.33656400  0.53729000  0.19318100  1
  C  1425  1  0.39737900  0.50484800  0.19321500  1
  C  1426  1  0.53914700  0.45543600  0.16118750  1
  C  1427  1  0.56036700  0.41455400  0.17345000  1
  C  1428  1  0.55956400  0.41455600  0.21250200  1
  C  1429  1  0.53983200  0.45544200  0.22475200  1
  C  1430  1  0.57253500  0.38226800  0.23862250  1
  C  1431  1  0.56585450  0.39171600  0.27711450  1
  C  1432  1  0.54824350  0.43300800  0.29012850  1
  C  1433  1  0.53496850  0.46488000  0.26312350  1
  C  1434  1  0.53455850  0.46485800  0.12281150  1
  C  1435  1  0.55313050  0.43297500  0.09581250  1
  C  1436  1  0.57679700  0.39168600  0.10884150  1
  C  1437  1  0.57961350  0.38225600  0.14733800  1
  C  1450  1  0.52496900  0.48445700  0.19296750  1
  C  1451  1  0.54036800  0.44385900  0.32780600  1
  C  1452  1  0.55016600  0.44378800  0.05812200  1
  C  1453  1  0.27867300  0.52638600  0.19318400  1
  C  1454  1  0.72931568  0.52639900  0.19278500  1
  H  19  1  0.16285100  0.72123200  0.93952000  1
  H  20  1  0.16565550  0.73737000  0.87471000  1
  H  21  1  0.02075400  0.83675300  0.95792900  1
  H  22  1  0.06384650  0.78627100  0.70110700  1
  H  23  1  0.19416400  0.70548700  0.77679000  1
  H  24  1  0.21829950  0.65250500  0.73065750  1
  H  25  1  0.09027200  0.73364100  0.65501500  1
  H  26  1  0.01899300  0.88738300  0.72031200  1
  H  27  1  0.03407600  0.00081600  0.79663400  1
  H  28  1  0.07284650  0.93259200  0.82128100  1
  H  29  1  0.98622750  0.95439700  0.69535550  1
  H  36  1  0.11238150  0.74639100  0.81756700  1
  H  37  1  0.10652700  0.83220200  0.73368900  1
  H  38  1  0.06604450  0.87154200  0.84390500  1
  H  39  1  0.01961700  0.85211000  0.89367900  1
  H  61  1  0.80141100  0.35686900  0.93997700  1
  H  62  1  0.79898050  0.34136900  0.87496300  1
  H  63  1  0.94428450  0.24143700  0.95763600  1
  H  64  1  0.90082800  0.29243200  0.70101700  1
  H  65  1  0.77028200  0.37315600  0.77667550  1
  H  66  1  0.74613450  0.42613700  0.73056600  1
  H  67  1  0.87430700  0.34505600  0.65492650  1
  H  68  1  0.94418750  0.18935000  0.72012050  1
  H  69  1  0.93105400  0.07915600  0.80154000  1
  H  70  1  0.88894450  0.14818000  0.82283300  1
  H  71  1  0.98006650  0.12040200  0.69809900  1
  H  78  1  0.85201100  0.33253800  0.81745500  1
  H  79  1  0.85868450  0.24634800  0.73357750  1
  H  80  1  0.89821000  0.20770900  0.84406600  1
  H  81  1  0.94560400  0.22671800  0.89334300  1
  H  103  1  0.84401850  0.35806300  0.06120500  1
  H  104  1  0.86356250  0.34145400  0.12586350  1
  H  105  1  0.81815300  0.24247400  0.04209950  1
  H  106  1  0.81078650  0.29228900  0.29926700  1
  H  107  1  0.86037200  0.37306500  0.22359400  1
  H  108  1  0.83154900  0.42604500  0.26971550  1
  H  109  1  0.78461050  0.34492800  0.34536450  1
  H  110  1  0.86851600  0.19046700  0.27984400  1
  H  111  1  0.99460400  0.07794700  0.20148750  1
  H  112  1  0.96657800  0.14673700  0.17818200  1
  H  113  1  0.90159150  0.12279500  0.30347200  1
  H  120  1  0.81923550  0.33229900  0.18286100  1
  H  121  1  0.89929250  0.24627900  0.26659300  1
  H  122  1  0.89813900  0.20733500  0.15620550  1
  H  123  1  0.83261100  0.22669600  0.10634500  1
  H  145  1  0.11976200  0.72112800  0.06076900  1
  H  146  1  0.10093600  0.73720700  0.12560000  1
  H  147  1  0.14637200  0.83664800  0.04239550  1
  H  148  1  0.15375700  0.78624000  0.29926250  1
  H  149  1  0.10418600  0.70545900  0.22359300  1
  H  150  1  0.13300600  0.65248300  0.26971800  1
  H  151  1  0.17992050  0.73361000  0.34536550  1
  H  152  1  0.09604300  0.88804000  0.27985950  1
  H  153  1  0.96987300  0.00062500  0.20160100  1
  H  154  1  0.99791950  0.93185500  0.17823500  1
  H  155  1  0.06297400  0.95567900  0.30353400  1
  H  162  1  0.14520000  0.74623600  0.18282450  1
  H  163  1  0.06523700  0.83223900  0.26661600  1
  H  164  1  0.06627350  0.87122800  0.15625400  1
  H  165  1  0.13232500  0.85193400  0.10665650  1
  H  361  1  0.13618650  0.71062800  0.39770900  1
  H  362  1  0.13279000  0.72619300  0.46327250  1
  H  363  1  0.14482200  0.72619900  0.53707850  1
  H  364  1  0.15689000  0.71064800  0.60264800  1
  H  365  1  0.20926300  0.58341400  0.57824300  1
  H  366  1  0.21114450  0.58340400  0.42212500  1
  H  367  1  0.06896700  0.60394100  0.49991400  1
  H  368  1  0.09526750  0.47531600  0.50012400  1
  H  369  1  0.21178050  0.46134900  0.50021050  1
  H  370  1  0.33097700  0.60393400  0.50044100  1
  H  371  1  0.33074200  0.46134400  0.50013500  1
  H  372  1  0.43329150  0.47530800  0.50022300  1
  H  378  1  0.18907400  0.60530700  0.35855100  1
  H  379  1  0.20930700  0.60532700  0.64182250  1
  H  380  1  0.44536950  0.58202800  0.50038200  1
  H  381  1  0.97647400  0.58204100  0.49996650  1
  H  406  1  0.82832950  0.36791200  0.39769800  1
  H  407  1  0.83178700  0.35235300  0.46326300  1
  H  408  1  0.81974150  0.35236500  0.53708000  1
  H  409  1  0.80755300  0.36795000  0.60263900  1
  H  410  1  0.75527100  0.49517100  0.57819150  1
  H  411  1  0.75340800  0.49514300  0.42210500  1
  H  412  1  0.89563700  0.47461900  0.49989800  1
  H  413  1  0.86932450  0.60324500  0.50012550  1
  H  414  1  0.75281300  0.61720800  0.50021050  1
  H  415  1  0.63363450  0.47461000  0.50043100  1
  H  416  1  0.63385000  0.61720400  0.50013500  1
  H  417  1  0.53130750  0.60323500  0.50022450  1
  H  423  1  0.77543450  0.47323600  0.35853050  1
  H  424  1  0.75515350  0.47331300  0.64175150  1
  H  425  1  0.51924000  0.49651000  0.50037650  1
  H  426  1  0.98812350  0.49652300  0.49996600  1
  H  1051  1  0.92810300  0.72123200  0.63233300  1
  H  1052  1  0.93090750  0.73737000  0.56752300  1
  H  1053  1  0.78600600  0.83675300  0.65074200  1
  H  1054  1  0.82909850  0.78627100  0.39392000  1
  H  1055  1  0.95941620  0.70548700  0.46960300  1
  H  1056  1  0.98355170  0.65250500  0.42347050  1
  H  1057  1  0.85552400  0.73364100  0.34782800  1
  H  1058  1  0.78424500  0.88738300  0.41312500  1
  H  1059  1  0.79932800  0.00081600  0.48944700  1
  H  1060  1  0.83809870  0.93259200  0.51409400  1
  H  1061  1  0.75147950  0.95439700  0.38816850  1
  H  1068  1  0.87763350  0.74639100  0.51038000  1
  H  1069  1  0.87177900  0.83220200  0.42650200  1
  H  1070  1  0.83129650  0.87154200  0.53671800  1
  H  1071  1  0.78486900  0.85211000  0.58649200  1
  H  1093  1  0.56666300  0.35686900  0.63279000  1
  H  1094  1  0.56423250  0.34136900  0.56777600  1
  H  1095  1  0.70953670  0.24143700  0.65044900  1
  H  1096  1  0.66608020  0.29243200  0.39383000  1
  H  1097  1  0.53553400  0.37315600  0.46948850  1
  H  1098  1  0.51138650  0.42613700  0.42337900  1
  H  1099  1  0.63955920  0.34505600  0.34773950  1
  H  1100  1  0.70943970  0.18935000  0.41293350  1
  H  1101  1  0.69630600  0.07915600  0.49435300  1
  H  1102  1  0.65419650  0.14818000  0.51564600  1
  H  1103  1  0.74531870  0.12040200  0.39091200  1
  H  1110  1  0.61726300  0.33253800  0.51026800  1
  H  1111  1  0.62393650  0.24634800  0.42639050  1
  H  1112  1  0.66346200  0.20770900  0.53687900  1
  H  1113  1  0.71085620  0.22671800  0.58615600  1
  H  1135  1  0.60927050  0.35806300  0.75401800  1
  H  1136  1  0.62881450  0.34145400  0.81867650  1
  H  1137  1  0.58340500  0.24247400  0.73491250  1
  H  1138  1  0.57603850  0.29228900  0.99207994  1
  H  1139  1  0.62562420  0.37306500  0.91640690  1
  H  1140  1  0.59680120  0.42604500  0.96252840  1
  H  1141  1  0.54986250  0.34492800  0.03817750  1
  H  1142  1  0.63376800  0.19046700  0.97265690  1
  H  1143  1  0.75985600  0.07794700  0.89430050  1
  H  1144  1  0.73183020  0.14673700  0.87099500  1
  H  1145  1  0.66684350  0.12279500  0.99628494  1
  H  1152  1  0.58448750  0.33229900  0.87567400  1
  H  1153  1  0.66454450  0.24627900  0.95940590  1
  H  1154  1  0.66339100  0.20733500  0.84901850  1
  H  1155  1  0.59786300  0.22669600  0.79915800  1
  H  1177  1  0.88501400  0.72112800  0.75358200  1
  H  1178  1  0.86618800  0.73720700  0.81841300  1
  H  1179  1  0.91162420  0.83664800  0.73520850  1
  H  1180  1  0.91900920  0.78624000  0.99207544  1
  H  1181  1  0.86943800  0.70545900  0.91640590  1
  H  1182  1  0.89825800  0.65248300  0.96253090  1
  H  1183  1  0.94517270  0.73361000  0.03817850  1
  H  1184  1  0.86129520  0.88804000  0.97267240  1
  H  1185  1  0.73512500  0.00062500  0.89441400  1
  H  1186  1  0.76317150  0.93185500  0.87104800  1
  H  1187  1  0.82822620  0.95567900  0.99634694  1
  H  1194  1  0.91045200  0.74623600  0.87563750  1
  H  1195  1  0.83048900  0.83223900  0.95942890  1
  H  1196  1  0.83152550  0.87122800  0.84906700  1
  H  1197  1  0.89757720  0.85193400  0.79946950  1
  H  1393  1  0.90143850  0.71062800  0.09052200  1
  H  1394  1  0.89804200  0.72619300  0.15608550  1
  H  1395  1  0.91007400  0.72619900  0.22989150  1
  H  1396  1  0.92214200  0.71064800  0.29546100  1
  H  1397  1  0.97451500  0.58341400  0.27105600  1
  H  1398  1  0.97639650  0.58340400  0.11493800  1
  H  1399  1  0.83421900  0.60394100  0.19272700  1
  H  1400  1  0.86051950  0.47531600  0.19293700  1
  H  1401  1  0.97703250  0.46134900  0.19302350  1
  H  1402  1  0.09622920  0.60393400  0.19325400  1
  H  1403  1  0.09599420  0.46134400  0.19294800  1
  H  1404  1  0.19854370  0.47530800  0.19303600  1
  H  1410  1  0.95432600  0.60530700  0.05136400  1
  H  1411  1  0.97455900  0.60532700  0.33463550  1
  H  1412  1  0.21062150  0.58202800  0.19319500  1
  H  1413  1  0.74172600  0.58204100  0.19277950  1
  H  1438  1  0.59358150  0.36791200  0.09051100  1
  H  1439  1  0.59703900  0.35235300  0.15607600  1
  H  1440  1  0.58499350  0.35236500  0.22989300  1
  H  1441  1  0.57280500  0.36795000  0.29545200  1
  H  1442  1  0.52052300  0.49517100  0.27100450  1
  H  1443  1  0.51866000  0.49514300  0.11491800  1
  H  1444  1  0.66088920  0.47461900  0.19271100  1
  H  1445  1  0.63457670  0.60324500  0.19293850  1
  H  1446  1  0.51806520  0.61720800  0.19302350  1
  H  1447  1  0.39888650  0.47461000  0.19324400  1
  H  1448  1  0.39910200  0.61720400  0.19294800  1
  H  1449  1  0.29655950  0.60323500  0.19303750  1
  H  1455  1  0.54068650  0.47323600  0.05134350  1
  H  1456  1  0.52040550  0.47331300  0.33456450  1
  H  1457  1  0.28449200  0.49651000  0.19318950  1
  H  1458  1  0.75337550  0.49652300  0.19277900  1
  N  40  1  0.99391700  0.01956400  0.72527650  1
  N  41  1  0.17517700  0.65949300  0.66286350  1
  N  42  1  0.09089050  0.77361800  0.99097000  1
  N  82  1  0.97716950  0.05537800  0.73587500  1
  N  83  1  0.78930350  0.41917700  0.66282800  1
  N  84  1  0.87327100  0.30340400  0.99115000  1
  N  124  1  0.97107100  0.05804900  0.27152650  1
  N  125  1  0.79540300  0.41907000  0.33749500  1
  N  126  1  0.82349250  0.30677300  0.00957500  1
  N  166  1  0.99338250  0.02042200  0.27172300  1
  N  167  1  0.16912600  0.65946500  0.33750300  1
  N  168  1  0.13937450  0.77350800  0.00934200  1
  N  1072  1  0.75916900  0.01956400  0.41808950  1
  N  1073  1  0.94042900  0.65949300  0.35567650  1
  N  1074  1  0.85614250  0.77361800  0.68378300  1
  N  1114  1  0.74242150  0.05537800  0.42868800  1
  N  1115  1  0.55455550  0.41917700  0.35564100  1
  N  1116  1  0.63852300  0.30340400  0.68396300  1
  N  1156  1  0.73632300  0.05804900  0.96433940  1
  N  1157  1  0.56065500  0.41907000  0.03030800  1
  N  1158  1  0.58874450  0.30677300  0.70238800  1
  N  1198  1  0.75863450  0.02042200  0.96453590  1
  N  1199  1  0.93437800  0.65946500  0.03031600  1
  N  1200  1  0.90462650  0.77350800  0.70215500  1
