# generated using pymatgen
data_ZnH4(C2O)4
_symmetry_space_group_name_H-M   'P 1'
_cell_length_a   9.61137000
_cell_length_b   9.84448000
_cell_length_c   10.29949000
_cell_angle_alpha   97.97786000
_cell_angle_beta   110.87408000
_cell_angle_gamma   114.00533000
_symmetry_Int_Tables_number   1
_chemical_formula_structural   ZnH4(C2O)4
_chemical_formula_sum   'Zn3 H12 C24 O12'
_cell_volume   784.50046646
_cell_formula_units_Z   3
loop_
 _symmetry_equiv_pos_site_id
 _symmetry_equiv_pos_as_xyz
  1  'x, y, z'
loop_
 _atom_site_type_symbol
 _atom_site_label
 _atom_site_symmetry_multiplicity
 _atom_site_fract_x
 _atom_site_fract_y
 _atom_site_fract_z
 _atom_site_occupancy
  Zn  Zn1  1  0.56775000  0.21938000  0.40746000  1.0
  Zn  Zn2  1  0.43225000  0.78062000  0.59254000  1.0
  Zn  Zn3  1  0.50000000  0.50000000  0.50000000  1.0
  H  H1  1  0.79781000  0.60416000  0.92672000  1.0
  H  H2  1  0.99104000  0.30754000  0.80885000  1.0
  H  H3  1  0.14454000  0.85521000  0.44795000  1.0
  H  H4  1  0.08497000  0.26631000  0.47515000  1.0
  H  H5  1  0.63431000  0.67009000  0.26045000  1.0
  H  H6  1  0.42786000  0.21842000  0.94448000  1.0
  H  H7  1  0.20219000  0.39584000  0.07328000  1.0
  H  H8  1  0.00896000  0.69246000  0.19115000  1.0
  H  H9  1  0.85546000  0.14479000  0.55205000  1.0
  H  H10  1  0.91503000  0.73370000  0.52485000  1.0
  H  H11  1  0.36569000  0.32991000  0.73955000  1.0
  H  H12  1  0.57214000  0.78158000  0.05552000  1.0
  C  C1  1  0.75231000  0.39589000  0.69543000  1.0
  C  C2  1  0.88143000  0.45038000  0.85219000  1.0
  C  C3  1  0.88657000  0.55930000  0.96003000  1.0
  C  C4  1  0.99577000  0.39167000  0.89298000  1.0
  C  C5  1  0.27198000  0.14537000  0.42121000  1.0
  C  C6  1  0.12859000  0.06802000  0.45791000  1.0
  C  C7  1  0.08178000  0.91812000  0.47242000  1.0
  C  C8  1  0.04598000  0.14962000  0.48533000  1.0
  C  C9  1  0.56623000  0.37205000  0.23540000  1.0
  C  C10  1  0.53519000  0.43828000  0.11402000  1.0
  C  C11  1  0.57633000  0.59724000  0.14638000  1.0
  C  C12  1  0.45881000  0.34116000  0.96729000  1.0
  C  C13  1  0.24769000  0.60411000  0.30457000  1.0
  C  C14  1  0.11857000  0.54962000  0.14781000  1.0
  C  C15  1  0.11343000  0.44070000  0.03997000  1.0
  C  C16  1  0.00423000  0.60833000  0.10702000  1.0
  C  C17  1  0.72802000  0.85463000  0.57878000  1.0
  C  C18  1  0.87141000  0.93199000  0.54209000  1.0
  C  C19  1  0.91822000  0.08188000  0.52758000  1.0
  C  C20  1  0.95402000  0.85038000  0.51467000  1.0
  C  C21  1  0.43377000  0.62795000  0.76460000  1.0
  C  C22  1  0.46481000  0.56173000  0.88597000  1.0
  C  C23  1  0.42367000  0.40276000  0.85362000  1.0
  C  C24  1  0.54119000  0.65884000  0.03271000  1.0
  O  O1  1  0.63749000  0.43547000  0.66481000  1.0
  O  O2  1  0.76397000  0.30663000  0.59938000  1.0
  O  O3  1  0.29908000  0.27272000  0.39283000  1.0
  O  O4  1  0.36385000  0.07910000  0.42263000  1.0
  O  O5  1  0.61992000  0.45564000  0.36779000  1.0
  O  O6  1  0.53710000  0.22854000  0.20761000  1.0
  O  O7  1  0.36251000  0.56453000  0.33519000  1.0
  O  O8  1  0.23603000  0.69337000  0.40061000  1.0
  O  O9  1  0.70092000  0.72729000  0.60717000  1.0
  O  O10  1  0.63615000  0.92091000  0.57737000  1.0
  O  O11  1  0.38008000  0.54437000  0.63221000  1.0
  O  O12  1  0.46290000  0.77146000  0.79238000  1.0
