# generated using pymatgen
data_H15(C5N)4
_symmetry_space_group_name_H-M   'P 1'
_cell_length_a   38.79873886
_cell_length_b   38.79806517
_cell_length_c   38.79828005
_cell_angle_alpha   116.16326462
_cell_angle_beta   106.23271868
_cell_angle_gamma   106.23266520
_symmetry_Int_Tables_number   1
_chemical_formula_structural   H15(C5N)4
_chemical_formula_sum   'H120 C160 N32'
_cell_volume   44493.70184581
_cell_formula_units_Z   8
loop_
 _symmetry_equiv_pos_site_id
 _symmetry_equiv_pos_as_xyz
  1  'x, y, z'
loop_
 _atom_site_type_symbol
 _atom_site_label
 _atom_site_symmetry_multiplicity
 _atom_site_fract_x
 _atom_site_fract_y
 _atom_site_fract_z
 _atom_site_occupancy
  C  1  1  0.98014750  0.99949700  0.98510750  1
  C  2  1  0.98880550  0.99660000  0.02171250  1
  C  3  1  0.95795400  0.96685200  0.02221300  1
  C  4  1  0.91961500  0.93896250  0.98510650  1
  C  5  1  0.91039900  0.94019300  0.94800300  1
  C  6  1  0.94064500  0.97154800  0.94850400  1
  C  7  1  0.02844350  0.02389700  0.05701150  1
  C  8  1  0.93264200  0.97588650  0.91320350  1
  C  10  1  0.01091750  0.03026900  0.98510750  1
  C  11  1  0.05041950  0.05821900  0.02171250  1
  C  12  1  0.08066550  0.08957300  0.02221250  1
  C  13  1  0.07145000  0.09080600  0.98510800  1
  C  14  1  0.03311400  0.06291250  0.94800050  1
  C  15  1  0.00226250  0.03316800  0.94850450  1
  C  16  1  0.05842350  0.05388250  0.05701400  1
  C  18  1  0.96262400  0.00586800  0.91320300  1
  C  23  1  0.86981000  0.90689600  0.90921300  1
  C  26  1  0.96344500  0.96505350  0.06100350  1
  C  29  1  0.12125250  0.12287750  0.06100700  1
  C  32  1  0.02762100  0.06471000  0.90921000  1
  C  35  1  0.51090600  0.03026550  0.48509750  1
  C  36  1  0.50225050  0.05820950  0.47353800  1
  C  37  1  0.53310050  0.08955700  0.47463450  1
  C  38  1  0.57144100  0.09079600  0.48509600  1
  C  39  1  0.58065900  0.06291500  0.49555600  1
  C  40  1  0.55040950  0.03316600  0.49665850  1
  C  41  1  0.46261400  0.05387150  0.46119550  1
  C  42  1  0.55841250  0.00587200  0.50900450  1
  C  44  1  0.48013650  0.99949900  0.48510250  1
  C  45  1  0.44063400  0.99659700  0.47354400  1
  C  46  1  0.41038150  0.96684850  0.47464500  1
  C  47  1  0.41960250  0.93897100  0.48511050  1
  C  48  1  0.45794200  0.94020800  0.49556900  1
  C  49  1  0.48879250  0.97155500  0.49666450  1
  C  50  1  0.43263000  0.02388950  0.46119550  1
  C  52  1  0.52843100  0.97589350  0.50900750  1
  C  57  1  0.62124600  0.06471000  0.50284300  1
  C  60  1  0.52761450  0.12286400  0.46735550  1
  C  63  1  0.36979700  0.96505600  0.46736100  1
  C  66  1  0.46343300  0.90691050  0.50286050  1
  C  69  1  0.98015050  0.01490800  0.46973050  1
  C  70  1  0.94064900  0.00335650  0.46683550  1
  C  71  1  0.91040000  0.00446300  0.43709100  1
  C  72  1  0.91961150  0.01490150  0.40919500  1
  C  73  1  0.95794750  0.02534800  0.41042450  1
  C  74  1  0.98880050  0.02645400  0.44177650  1
  C  75  1  0.93264900  0.99102000  0.49413700  1
  C  76  1  0.02843750  0.03879050  0.44610900  1
  C  78  1  0.01092250  0.01490900  0.50050150  1
  C  79  1  0.00226950  0.00336000  0.52845350  1
  C  80  1  0.03312600  0.00447100  0.55981000  1
  C  81  1  0.07146050  0.01491400  0.56103650  1
  C  82  1  0.08067300  0.02535800  0.53314400  1
  C  83  1  0.05042250  0.02645950  0.50339600  1
  C  84  1  0.96263300  0.99102000  0.52411900  1
  C  86  1  0.05842150  0.03879500  0.47609350  1
  C  91  1  0.96343200  0.03262250  0.37711550  1
  C  94  1  0.86981200  0.99717000  0.43529200  1
  C  97  1  0.02763250  0.99717900  0.59310750  1
  C  100  1  0.12125650  0.03263950  0.53493400  1
  C  103  1  0.51092550  0.51488850  0.50048400  1
  C  104  1  0.55043200  0.55148800  0.52842600  1
  C  105  1  0.58068250  0.55198550  0.55977200  1
  C  106  1  0.57145900  0.51488800  0.56101800  1
  C  107  1  0.53311800  0.47778700  0.53313800  1
  C  108  1  0.50226650  0.47828850  0.50338900  1
  C  109  1  0.55843550  0.58678700  0.52408550  1
  C  110  1  0.46262650  0.44299250  0.47609900  1
  C  112  1  0.48015450  0.51488850  0.46971500  1
  C  113  1  0.48881200  0.55148900  0.46681100  1
  C  114  1  0.45796050  0.55198900  0.43706050  1
  C  115  1  0.41961950  0.51489050  0.40918300  1
  C  116  1  0.41039950  0.47778800  0.41042050  1
  C  117  1  0.44065050  0.47828950  0.44177200  1
  C  118  1  0.52845200  0.58678800  0.49410400  1
  C  120  1  0.43264500  0.44299050  0.44611450  1
  C  125  1  0.52762350  0.43900000  0.53494150  1
  C  128  1  0.62126650  0.59078100  0.59308150  1
  C  131  1  0.46345000  0.59078500  0.43527300  1
  C  134  1  0.36981000  0.43899950  0.37712550  1
  C  273  1  0.65328750  0.66539100  0.65566250  1
  C  274  1  0.66599700  0.70229850  0.65429450  1
  C  275  1  0.70281950  0.73982300  0.68786050  1
  C  276  1  0.72688600  0.74054800  0.72340700  1
  C  278  1  0.67789450  0.66751400  0.69176050  1
  C  279  1  0.76416050  0.77658500  0.75944550  1
  C  280  1  0.78822750  0.81213050  0.76017000  1
  C  281  1  0.82505750  0.84569300  0.79769050  1
  C  282  1  0.83776850  0.84431950  0.83459700  1
  C  283  1  0.81315900  0.80822150  0.83247450  1
  C  295  1  0.83777000  0.02770250  0.47786650  1
  C  296  1  0.82505900  0.01361750  0.50205950  1
  C  297  1  0.78822650  0.01034250  0.50274600  1
  C  298  1  0.76416200  0.02182600  0.47940800  1
  C  300  1  0.81316100  0.03919300  0.45538100  1
  C  301  1  0.72688400  0.02058250  0.47816550  1
  C  302  1  0.70282650  0.99725200  0.48965950  1
  C  303  1  0.66599450  0.99793750  0.48638700  1
  C  304  1  0.65328250  0.02213250  0.47230400  1
  C  305  1  0.67788550  0.04461150  0.46080500  1
  C  317  1  0.97547950  0.00762650  0.13561500  1
  C  318  1  0.01375600  0.03182200  0.17252300  1
  C  319  1  0.01771300  0.03250700  0.21004200  1
  C  320  1  0.98288800  0.00917500  0.21076600  1
  C  322  1  0.94150250  0.98514550  0.13773800  1
  C  323  1  0.98288600  0.00793200  0.24680200  1
  C  324  1  0.01770700  0.01941500  0.28234900  1
  C  325  1  0.01374400  0.01614500  0.31591000  1
  C  326  1  0.97546550  0.00206700  0.31453850  1
  C  327  1  0.94149300  0.99057600  0.27843700  1
  C  339  1  0.51558850  0.18544650  0.49791400  1
  C  340  1  0.47731150  0.18408050  0.48384300  1
  C  341  1  0.47335350  0.21764550  0.48058300  1
  C  342  1  0.50817350  0.25319000  0.49205850  1
  C  344  1  0.54956400  0.22154400  0.50940000  1
  C  345  1  0.50817350  0.28923050  0.49082500  1
  C  346  1  0.47335100  0.28995200  0.46748300  1
  C  347  1  0.47730700  0.32747500  0.46817700  1
  C  348  1  0.51558550  0.36438300  0.49237250  1
  C  349  1  0.54956050  0.36226000  0.51485750  1
  C  449  1  0.33776950  0.36438250  0.31454700  1
  C  450  1  0.32505850  0.32747750  0.31592100  1
  C  451  1  0.28823000  0.28995500  0.28235600  1
  C  452  1  0.26416400  0.28923050  0.24681050  1
  C  454  1  0.31316150  0.36225850  0.27844700  1
  C  455  1  0.22688800  0.25319250  0.21077350  1
  C  456  1  0.20282300  0.21764500  0.21004800  1
  C  457  1  0.16599450  0.18408200  0.17252650  1
  C  458  1  0.15328400  0.18545600  0.13562200  1
  C  459  1  0.17789050  0.22155550  0.13774500  1
  C  471  1  0.15328700  0.00208900  0.49235600  1
  C  472  1  0.16599450  0.01616500  0.46815550  1
  C  473  1  0.20282450  0.01943250  0.46746400  1
  C  474  1  0.22688650  0.00795050  0.49080400  1
  C  476  1  0.17789400  0.99059650  0.51483950  1
  C  477  1  0.26416450  0.00919000  0.49204350  1
  C  478  1  0.28822500  0.03252300  0.48055500  1
  C  479  1  0.32505550  0.03183450  0.48382500  1
  C  480  1  0.33776400  0.00763500  0.49790300  1
  C  481  1  0.31315650  0.98515250  0.50939700  1
  C  493  1  0.01558200  0.02213300  0.83459500  1
  C  494  1  0.97730500  0.99794000  0.79768800  1
  C  495  1  0.97334650  0.99725700  0.76017150  1
  C  496  1  0.00817100  0.02058750  0.75944550  1
  C  498  1  0.04955950  0.04461350  0.83247200  1
  C  499  1  0.00817400  0.02183500  0.72341300  1
  C  500  1  0.97335150  0.01035150  0.68786300  1
  C  501  1  0.97731250  0.01362800  0.65430750  1
  C  502  1  0.01559150  0.02771250  0.65568100  1
  C  503  1  0.04956700  0.03920450  0.69178150  1
  C  515  1  0.47546600  0.84432850  0.47232050  1
  C  516  1  0.51374250  0.84569800  0.48639450  1
  C  517  1  0.51770300  0.81213600  0.48966100  1
  C  518  1  0.48288500  0.77659350  0.47818850  1
  C  520  1  0.44149200  0.80823150  0.46083750  1
  C  521  1  0.48288650  0.74055400  0.47942250  1
  C  522  1  0.51771200  0.73983200  0.50276200  1
  C  523  1  0.51375550  0.70230550  0.50206000  1
  C  524  1  0.47548000  0.66539600  0.47786100  1
  C  525  1  0.44150100  0.66751900  0.45537900  1
  H  9  1  0.89763500  0.91698150  0.98510750  1
  H  17  1  0.09343050  0.11278800  0.98510950  1
  H  19  1  0.08640650  0.07233100  0.08356650  1
  H  20  1  0.03654700  0.02246600  0.08356400  1
  H  21  1  0.95451800  0.00729800  0.88665000  1
  H  22  1  0.90466000  0.95743750  0.88665050  1
  H  24  1  0.85053900  0.88719900  0.91629300  1
  H  25  1  0.85410600  0.92350650  0.90056150  1
  H  27  1  0.98870800  0.95800300  0.06965500  1
  H  28  1  0.93666950  0.93870150  0.05392400  1
  H  30  1  0.14052150  0.14257650  0.05392700  1
  H  31  1  0.13695850  0.10627100  0.06966150  1
  H  33  1  0.05439850  0.09106000  0.91628850  1
  H  34  1  0.00236050  0.07176250  0.90055800  1
  H  43  1  0.59342250  0.11277600  0.48509650  1
  H  51  1  0.39762400  0.91699400  0.48511500  1
  H  53  1  0.40464800  0.02246250  0.45166250  1
  H  54  1  0.45450800  0.07231700  0.45165700  1
  H  55  1  0.53653600  0.95744900  0.51854900  1
  H  56  1  0.58639600  0.00730450  0.51854250  1
  H  58  1  0.64051800  0.09105900  0.50241600  1
  H  59  1  0.63694950  0.07176150  0.53515700  1
  H  61  1  0.50234900  0.10626050  0.43504550  1
  H  62  1  0.55439200  0.14256000  0.46778100  1
  H  64  1  0.35052400  0.93870500  0.46778700  1
  H  65  1  0.35409200  0.95800550  0.43504750  1
  H  67  1  0.43665700  0.88721600  0.50243800  1
  H  68  1  0.48869750  0.92352050  0.53517300  1
  H  77  1  0.89762950  0.01489800  0.38721150  1
  H  85  1  0.09344050  0.01491350  0.58301700  1
  H  87  1  0.95453050  0.98148950  0.54256900  1
  H  88  1  0.90466850  0.98148650  0.49270900  1
  H  89  1  0.08640300  0.04832700  0.47752000  1
  H  90  1  0.03653950  0.04832400  0.42765950  1
  H  92  1  0.93665500  0.03219400  0.35741600  1
  H  93  1  0.98869500  0.06493450  0.39371650  1
  H  95  1  0.85411100  0.96485450  0.42824050  1
  H  96  1  0.85053950  0.99759450  0.40894100  1
  H  98  1  0.05441200  0.99760900  0.61280600  1
  H  99  1  0.00237300  0.96486500  0.57649800  1
  H  101  1  0.14052850  0.03221600  0.56128750  1
  H  102  1  0.13696250  0.06495050  0.54198100  1
  H  111  1  0.59343850  0.51488750  0.58300000  1
  H  119  1  0.39763950  0.51489350  0.38720500  1
  H  121  1  0.53655750  0.61333850  0.49267000  1
  H  122  1  0.58642100  0.61333650  0.54252850  1
  H  123  1  0.40466100  0.41644000  0.42767000  1
  H  124  1  0.45452200  0.41643850  0.47752950  1
  H  126  1  0.55439950  0.44608000  0.56129350  1
  H  127  1  0.50236200  0.43035100  0.54199400  1
  H  129  1  0.63697400  0.59944250  0.57647850  1
  H  130  1  0.64053650  0.58370000  0.61277850  1
  H  132  1  0.43667400  0.58370750  0.40892350  1
  H  133  1  0.48871200  0.59944450  0.42822250  1
  H  135  1  0.35053950  0.44607800  0.35742550  1
  H  136  1  0.35410900  0.43035000  0.39373700  1
  H  285  1  0.82144200  0.80547950  0.85818550  1
  H  286  1  0.77997300  0.81363800  0.73366400  1
  H  287  1  0.84249450  0.87124350  0.79808700  1
  H  288  1  0.66961100  0.64179917  0.69450017  1
  H  289  1  0.64856300  0.70190200  0.62874000  1
  H  290  1  0.71107700  0.76632950  0.68635350  1
  H  292  1  0.59898900  0.61925500  0.63511900  1
  H  294  1  0.89207000  0.86484700  0.88071900  1
  H  307  1  0.66959950  0.06204050  0.44978200  1
  H  308  1  0.71107700  0.97899400  0.49941400  1
  H  309  1  0.64856300  0.98090100  0.49450800  1
  H  310  1  0.82144500  0.05020817  0.43794217  1
  H  311  1  0.84249450  0.00550150  0.51909900  1
  H  312  1  0.77997350  0.00058250  0.52099900  1
  H  314  1  0.89207100  0.06148000  0.48604700  1
  H  316  1  0.59897850  0.01395000  0.43853250  1
  H  329  1  0.91303850  0.97955450  0.27569700  1
  H  330  1  0.04571850  0.02917200  0.28385650  1
  H  331  1  0.03889950  0.02426500  0.34146450  1
  H  332  1  0.91305000  0.96771350  0.11202150  1
  H  333  1  0.03891250  0.04886350  0.17213200  1
  H  334  1  0.04572500  0.05076850  0.23655250  1
  H  336  1  0.94989100  0.01580900  0.08949400  1
  H  338  1  0.94986700  0.96830450  0.33507350  1
  H  351  1  0.57801400  0.38797300  0.53228500  1
  H  352  1  0.44533750  0.26344700  0.44923450  1
  H  353  1  0.45215050  0.32786800  0.45113650  1
  H  354  1  0.57801650  0.22428200  0.52041750  1
  H  355  1  0.45215900  0.15853050  0.47573050  1
  H  356  1  0.44534300  0.21614350  0.47083050  1
  H  358  1  0.54118450  0.16490850  0.53167300  1
  H  360  1  0.54117500  0.41049900  0.48418600  1
  H  461  1  0.16960500  0.22429550  0.11203050  1
  H  462  1  0.21107950  0.21613900  0.23655350  1
  H  463  1  0.14856150  0.15853000  0.17212950  1
  H  464  1  0.32144750  0.38797350  0.27570900  1
  H  465  1  0.34249200  0.32787350  0.34147350  1
  H  466  1  0.27997250  0.26345150  0.28386700  1
  H  468  1  0.39207150  0.41050400  0.33507550  1
  H  470  1  0.09898250  0.16492050  0.08949400  1
  H  483  1  0.32143900  0.96771950  0.52041650  1
  H  484  1  0.27997650  0.05078400  0.47080550  1
  H  485  1  0.34248900  0.04887350  0.47570850  1
  H  486  1  0.16961000  0.97957700  0.53227200  1
  H  487  1  0.14856000  0.02428150  0.45111550  1
  H  488  1  0.21107650  0.02918900  0.44920850  1
  H  490  1  0.09898600  0.96832450  0.48418450  1
  H  492  1  0.39206550  0.01581250  0.53167300  1
  H  505  1  0.07802100  0.05021317  0.69450617  1
  H  506  1  0.94533950  0.00058950  0.68635600  1
  H  507  1  0.95215950  0.00550950  0.62875400  1
  H  508  1  0.07801300  0.06204400  0.85818700  1
  H  509  1  0.95214800  0.98090350  0.79808550  1
  H  510  1  0.94533400  0.97900000  0.73366300  1
  H  512  1  0.04117350  0.01395150  0.88071800  1
  H  514  1  0.04118700  0.06149050  0.63515650  1
  H  527  1  0.41305000  0.64178967  0.43793467  1
  H  528  1  0.54572250  0.76633750  0.52101100  1
  H  529  1  0.53891400  0.70191000  0.51909500  1
  H  530  1  0.41303900  0.80549300  0.44981800  1
  H  531  1  0.53889650  0.87124750  0.49450400  1
  H  532  1  0.54571650  0.81364200  0.49941650  1
  H  534  1  0.44986650  0.86485400  0.43854650  1
  H  536  1  0.44989100  0.61926150  0.48602750  1
  N  277  1  0.71291050  0.70425850  0.72351300  1
  N  284  1  0.77813950  0.77647450  0.79573200  1
  N  291  1  0.61639450  0.62796700  0.62182150  1
  N  293  1  0.87466750  0.87815050  0.87201600  1
  N  299  1  0.77814150  0.03591700  0.45710150  1
  N  306  1  0.71290350  0.04288850  0.46407600  1
  N  313  1  0.87466850  0.03077200  0.47734750  1
  N  315  1  0.61638350  0.02265050  0.46923900  1
  N  321  1  0.94649350  0.98686600  0.17447750  1
  N  328  1  0.94648950  0.99384700  0.24669050  1
  N  335  1  0.97189600  0.00710950  0.09819850  1
  N  337  1  0.97187900  0.99900900  0.34837400  1
  N  343  1  0.54456800  0.25329400  0.50613400  1
  N  350  1  0.54456800  0.32551700  0.51313300  1
  N  357  1  0.51917450  0.15161150  0.50097200  1
  N  359  1  0.51917050  0.40179850  0.49288800  1
  N  453  1  0.27814350  0.32551700  0.24670150  1
  N  460  1  0.21290900  0.25330350  0.17448750  1
  N  467  1  0.37466850  0.40180100  0.34837850  1
  N  469  1  0.11638750  0.15162000  0.09820050  1
  N  475  1  0.21291050  0.99386550  0.51311500  1
  N  482  1  0.27814050  0.98687800  0.50612850  1
  N  489  1  0.11638950  0.99902700  0.49287850  1
  N  491  1  0.37466050  0.00711350  0.50096800  1
  N  497  1  0.04456650  0.04289250  0.79573200  1
  N  504  1  0.04457000  0.03592750  0.72352550  1
  N  511  1  0.01916700  0.02265250  0.87201250  1
  N  513  1  0.01918050  0.03078400  0.62185250  1
  N  519  1  0.44648900  0.77648550  0.46410850  1
  N  526  1  0.44649400  0.70426450  0.45711050  1
  N  533  1  0.47187600  0.87815900  0.46925100  1
  N  535  1  0.47189900  0.62797550  0.47733150  1
