# generated using pymatgen
data_LiH4C5NO
_symmetry_space_group_name_H-M   'P 1'
_cell_length_a   11.05023000
_cell_length_b   11.05023000
_cell_length_c   11.16016000
_cell_angle_alpha   90.00000000
_cell_angle_beta   90.00000000
_cell_angle_gamma   90.00000000
_symmetry_Int_Tables_number   1
_chemical_formula_structural   LiH4C5NO
_chemical_formula_sum   'Li8 H32 C40 N8 O8'
_cell_volume   1362.74016408
_cell_formula_units_Z   8
loop_
 _symmetry_equiv_pos_site_id
 _symmetry_equiv_pos_as_xyz
  1  'x, y, z'
loop_
 _atom_site_type_symbol
 _atom_site_label
 _atom_site_symmetry_multiplicity
 _atom_site_fract_x
 _atom_site_fract_y
 _atom_site_fract_z
 _atom_site_occupancy
  Li  Li1  1  0.91479000  0.59007000  0.83695000  1.0
  Li  Li2  1  0.08521000  0.40993000  0.83695000  1.0
  Li  Li3  1  0.59007000  0.08521000  0.16305000  1.0
  Li  Li4  1  0.40993000  0.91479000  0.16305000  1.0
  Li  Li5  1  0.08527000  0.59028000  0.66393000  1.0
  Li  Li6  1  0.91473000  0.40972000  0.66393000  1.0
  Li  Li7  1  0.40972000  0.08527000  0.33608000  1.0
  Li  Li8  1  0.59028000  0.91473000  0.33608000  1.0
  H  H1  1  0.20797000  0.52259000  0.04106000  1.0
  H  H2  1  0.12686000  0.82374000  0.80752000  1.0
  H  H3  1  0.32863000  0.66395000  0.16599000  1.0
  H  H4  1  0.25069000  0.95348000  0.94167000  1.0
  H  H5  1  0.79203000  0.47741000  0.04106000  1.0
  H  H6  1  0.87314000  0.17626000  0.80752000  1.0
  H  H7  1  0.67137000  0.33605000  0.16599000  1.0
  H  H8  1  0.74931000  0.04652000  0.94167000  1.0
  H  H9  1  0.52259000  0.79203000  0.95894000  1.0
  H  H10  1  0.82374000  0.87314000  0.19249000  1.0
  H  H11  1  0.66395000  0.67137000  0.83401000  1.0
  H  H12  1  0.95348000  0.74931000  0.05833000  1.0
  H  H13  1  0.47741000  0.20797000  0.95894000  1.0
  H  H14  1  0.17626000  0.12686000  0.19249000  1.0
  H  H15  1  0.33605000  0.32863000  0.83401000  1.0
  H  H16  1  0.04652000  0.25069000  0.05833000  1.0
  H  H17  1  0.79228000  0.52244000  0.45971000  1.0
  H  H18  1  0.87291000  0.82407000  0.69279000  1.0
  H  H19  1  0.67200000  0.66342000  0.33433000  1.0
  H  H20  1  0.74944000  0.95351000  0.55813000  1.0
  H  H21  1  0.20772000  0.47756000  0.45971000  1.0
  H  H22  1  0.12709000  0.17593000  0.69279000  1.0
  H  H23  1  0.32800000  0.33658000  0.33433000  1.0
  H  H24  1  0.25056000  0.04649000  0.55813000  1.0
  H  H25  1  0.47756000  0.79228000  0.54029000  1.0
  H  H26  1  0.17593000  0.87291000  0.30722000  1.0
  H  H27  1  0.33658000  0.67200000  0.66568000  1.0
  H  H28  1  0.04649000  0.74944000  0.44187000  1.0
  H  H29  1  0.52244000  0.20772000  0.54029000  1.0
  H  H30  1  0.82407000  0.12709000  0.30722000  1.0
  H  H31  1  0.66342000  0.32800000  0.66568000  1.0
  H  H32  1  0.95351000  0.25056000  0.44187000  1.0
  C  C1  1  0.21567000  0.61760000  0.01628000  1.0
  C  C2  1  0.17058000  0.78529000  0.88623000  1.0
  C  C3  1  0.28283000  0.69683000  0.08571000  1.0
  C  C4  1  0.23971000  0.85739000  0.96133000  1.0
  C  C5  1  0.15748000  0.66016000  0.91119000  1.0
  C  C6  1  0.78433000  0.38240000  0.01628000  1.0
  C  C7  1  0.82942000  0.21471000  0.88623000  1.0
  C  C8  1  0.71717000  0.30317000  0.08571000  1.0
  C  C9  1  0.76029000  0.14261000  0.96133000  1.0
  C  C10  1  0.84252000  0.33984000  0.91119000  1.0
  C  C11  1  0.61760000  0.78433000  0.98373000  1.0
  C  C12  1  0.78529000  0.82942000  0.11377000  1.0
  C  C13  1  0.69683000  0.71717000  0.91430000  1.0
  C  C14  1  0.85739000  0.76029000  0.03867000  1.0
  C  C15  1  0.66016000  0.84252000  0.08881000  1.0
  C  C16  1  0.38240000  0.21567000  0.98373000  1.0
  C  C17  1  0.21471000  0.17058000  0.11377000  1.0
  C  C18  1  0.30317000  0.28283000  0.91430000  1.0
  C  C19  1  0.14261000  0.23971000  0.03867000  1.0
  C  C20  1  0.33984000  0.15748000  0.08881000  1.0
  C  C21  1  0.78456000  0.61748000  0.48435000  1.0
  C  C22  1  0.82935000  0.78542000  0.61410000  1.0
  C  C23  1  0.71756000  0.69656000  0.41461000  1.0
  C  C24  1  0.76042000  0.85738000  0.53871000  1.0
  C  C25  1  0.84223000  0.66013000  0.58972000  1.0
  C  C26  1  0.21544000  0.38252000  0.48435000  1.0
  C  C27  1  0.17065000  0.21458000  0.61410000  1.0
  C  C28  1  0.28244000  0.30344000  0.41461000  1.0
  C  C29  1  0.23958000  0.14262000  0.53871000  1.0
  C  C30  1  0.15777000  0.33987000  0.58972000  1.0
  C  C31  1  0.38252000  0.78456000  0.51565000  1.0
  C  C32  1  0.21458000  0.82935000  0.38590000  1.0
  C  C33  1  0.30344000  0.71756000  0.58540000  1.0
  C  C34  1  0.14262000  0.76042000  0.46130000  1.0
  C  C35  1  0.33987000  0.84223000  0.41028000  1.0
  C  C36  1  0.61748000  0.21544000  0.51565000  1.0
  C  C37  1  0.78542000  0.17065000  0.38590000  1.0
  C  C38  1  0.69656000  0.28244000  0.58540000  1.0
  C  C39  1  0.85738000  0.23958000  0.46130000  1.0
  C  C40  1  0.66013000  0.15777000  0.41028000  1.0
  N  N1  1  0.29689000  0.81628000  0.06092000  1.0
  N  N2  1  0.70311000  0.18372000  0.06092000  1.0
  N  N3  1  0.81628000  0.70311000  0.93909000  1.0
  N  N4  1  0.18372000  0.29689000  0.93909000  1.0
  N  N5  1  0.70342000  0.81608000  0.43906000  1.0
  N  N6  1  0.29658000  0.18392000  0.43906000  1.0
  N  N7  1  0.18392000  0.70342000  0.56095000  1.0
  N  N8  1  0.81608000  0.29658000  0.56095000  1.0
  O  O1  1  0.09448000  0.58774000  0.84123000  1.0
  O  O2  1  0.90552000  0.41226000  0.84123000  1.0
  O  O3  1  0.58774000  0.90552000  0.15877000  1.0
  O  O4  1  0.41226000  0.09449000  0.15877000  1.0
  O  O5  1  0.90441000  0.58772000  0.66052000  1.0
  O  O6  1  0.09559000  0.41228000  0.66052000  1.0
  O  O7  1  0.41228000  0.90441000  0.33949000  1.0
  O  O8  1  0.58772000  0.09559000  0.33949000  1.0
