# generated using pymatgen
data_H32C45N4
_symmetry_space_group_name_H-M   'P 1'
_cell_length_a   17.27620000
_cell_length_b   17.27620000
_cell_length_c   34.55230000
_cell_angle_alpha   90.00380000
_cell_angle_beta   89.99620000
_cell_angle_gamma   90.00000000
_symmetry_Int_Tables_number   1
_chemical_formula_structural   H32C45N4
_chemical_formula_sum   'H64 C90 N8'
_cell_volume   10312.72426544
_cell_formula_units_Z   2
loop_
 _symmetry_equiv_pos_site_id
 _symmetry_equiv_pos_as_xyz
  1  'x, y, z'
loop_
 _atom_site_type_symbol
 _atom_site_label
 _atom_site_symmetry_multiplicity
 _atom_site_fract_x
 _atom_site_fract_y
 _atom_site_fract_z
 _atom_site_occupancy
  C  1  1  0.04141200  0.81410500  0.98634900  1
  C  2  1  0.01512600  0.73743900  0.98708000  1
  C  3  1  0.93353500  0.73784000  0.98760400  1
  C  4  1  0.90823300  0.81476700  0.98737800  1
  C  5  1  0.82835300  0.83282000  0.98766500  1
  C  6  1  0.77128700  0.77345100  0.98802100  1
  C  7  1  0.79832400  0.69564400  0.98810800  1
  C  8  1  0.87837100  0.67769400  0.98787600  1
  C  9  1  0.06938000  0.67648900  0.98660000  1
  C  10  1  0.14954800  0.69328600  0.98480900  1
  C  11  1  0.17736800  0.77068700  0.98340500  1
  C  12  1  0.12150100  0.83106600  0.98433600  1
  C  13  1  0.97412600  0.92281100  0.95363300  1
  C  14  1  0.97462500  0.99959600  0.96654300  1
  C  15  1  0.97548400  0.99945900  0.00738000  1
  C  16  1  0.97592800  0.92261300  0.02021200  1
  C  17  1  0.97490200  0.05977400  0.03487400  1
  C  18  1  0.97433600  0.04212600  0.07493500  1
  C  19  1  0.97422400  0.96444300  0.08864500  1
  C  20  1  0.97524600  0.90486500  0.06021600  1
  C  21  1  0.97206000  0.90521500  0.91365100  1
  C  22  1  0.97064600  0.96490200  0.88529100  1
  C  23  1  0.97151700  0.04254800  0.89902900  1
  C  24  1  0.97338600  0.06002800  0.93911000  1
  C  37  1  0.97507700  0.86857900  0.98687600  1
  C  38  1  0.97256400  0.94486600  0.12829500  1
  C  39  1  0.96739600  0.94519700  0.84571100  1
  C  40  1  0.25609400  0.78838200  0.97837100  1
  C  41  1  0.69220200  0.79357700  0.98888600  1
  C  46  1  0.81341300  0.90482400  0.48687300  1
  C  47  1  0.73678500  0.93121300  0.48759400  1
  C  48  1  0.73728900  0.01281000  0.48777900  1
  C  49  1  0.81424100  0.03801800  0.48716000  1
  C  50  1  0.83234100  0.11790600  0.48730700  1
  C  51  1  0.77302300  0.17503400  0.48792700  1
  C  52  1  0.69520300  0.14805100  0.48834100  1
  C  53  1  0.67719100  0.06802000  0.48824500  1
  C  54  1  0.67576500  0.87703900  0.48722900  1
  C  55  1  0.69246600  0.79684100  0.48549300  1
  C  56  1  0.76983600  0.76894800  0.48401100  1
  C  57  1  0.83028600  0.82472100  0.48491100  1
  C  58  1  0.92194100  0.97098700  0.45349200  1
  C  59  1  0.99879500  0.97184500  0.46632500  1
  C  60  1  0.99897700  0.97205200  0.50714400  1
  C  61  1  0.92225800  0.97107500  0.52014200  1
  C  62  1  0.05960000  0.97306800  0.53445300  1
  C  63  1  0.04238000  0.97373800  0.57455200  1
  C  64  1  0.96484300  0.97338200  0.58846400  1
  C  65  1  0.90494600  0.97186800  0.56019700  1
  C  66  1  0.90429200  0.96850900  0.41349200  1
  C  67  1  0.96406600  0.96724800  0.38519300  1
  C  68  1  0.04170900  0.96935000  0.39884400  1
  C  69  1  0.05922500  0.97157500  0.43889400  1
  C  82  1  0.86797700  0.97108200  0.48687900  1
  C  83  1  0.94580700  0.97604100  0.62816100  1
  C  84  1  0.94504600  0.96064000  0.34570500  1
  C  85  1  0.78744500  0.69024300  0.47887400  1
  C  86  1  0.79315800  0.25413700  0.48878100  1
  C  91  1  0.97924000  0.98293800  0.19517000  1
  C  92  1  0.04002600  0.94564100  0.21583800  1
  C  93  1  0.03846900  0.94487800  0.25695200  1
  C  94  1  0.97943200  0.98111500  0.27875700  1
  C  95  1  0.91967600  0.02016600  0.25806600  1
  C  97  1  0.92034100  0.01947800  0.21692300  1
  C  99  1  0.85740300  0.06570000  0.27718200  1
  C  103  1  0.10815400  0.90966500  0.19662900  1
  C  109  1  0.98480600  0.97482600  0.69486200  1
  C  110  1  0.94822600  0.91605300  0.71722800  1
  C  111  1  0.94530500  0.92341600  0.75819000  1
  C  112  1  0.97915000  0.98653600  0.77826400  1
  C  113  1  0.01549800  0.04512800  0.75570800  1
  C  115  1  0.01823000  0.03791600  0.71479300  1
  C  117  1  0.05300400  0.11456600  0.77303300  1
  C  121  1  0.91419300  0.84503500  0.69986100  1
  C  127  1  0.38994200  0.75429700  0.99013300  1
  C  128  1  0.43443600  0.82090900  0.00003100  1
  C  129  1  0.51654700  0.81773700  0.99745000  1
  C  130  1  0.55716700  0.74982500  0.98652300  1
  C  131  1  0.51245300  0.68303500  0.97752500  1
  C  133  1  0.43046800  0.68650800  0.97950600  1
  C  135  1  0.54752600  0.60770400  0.96606400  1
  C  139  1  0.39980200  0.89399600  0.01479500  1
  C  145  1  0.75356700  0.55639300  0.49054300  1
  C  146  1  0.82023000  0.51192000  0.50037800  1
  C  147  1  0.81713800  0.42981700  0.49771800  1
  C  148  1  0.74926000  0.38917500  0.48676000  1
  C  149  1  0.68241100  0.43386800  0.47784600  1
  C  151  1  0.68579800  0.51584700  0.47991600  1
  C  153  1  0.60709600  0.39877800  0.46637700  1
  C  157  1  0.89328000  0.54657900  0.51517500  1
  H  25  1  0.97007900  0.08755500  0.87979900  1
  H  26  1  0.97342100  0.11641300  0.94808700  1
  H  27  1  0.97429600  0.11619200  0.02595700  1
  H  28  1  0.97337900  0.08711500  0.09419000  1
  H  29  1  0.97497400  0.84788000  0.06834800  1
  H  30  1  0.97137700  0.84824600  0.90548800  1
  H  31  1  0.81234300  0.88988100  0.98760700  1
  H  32  1  0.75963600  0.65082900  0.98852700  1
  H  33  1  0.89600100  0.62120600  0.98796000  1
  H  34  1  0.13857400  0.88776200  0.98301600  1
  H  35  1  0.05096200  0.62026000  0.98685100  1
  H  36  1  0.18766700  0.64801700  0.98347000  1
  H  42  1  0.95861300  0.88992900  0.83904300  1
  H  43  1  0.96724300  0.88920100  0.13531300  1
  H  44  1  0.26943900  0.83490000  0.96274600  1
  H  45  1  0.67898000  0.84928200  0.99155700  1
  H  70  1  0.08667300  0.96763700  0.37958400  1
  H  71  1  0.11562000  0.97191500  0.44785100  1
  H  72  1  0.11591900  0.97386500  0.52538300  1
  H  73  1  0.08757200  0.97518900  0.59367100  1
  H  74  1  0.84805600  0.97189700  0.56849700  1
  H  75  1  0.84738900  0.96674700  0.40526100  1
  H  76  1  0.88940700  0.13388400  0.48709300  1
  H  77  1  0.65041900  0.18676600  0.48897400  1
  H  78  1  0.62069600  0.05043700  0.48866500  1
  H  79  1  0.88695300  0.80759700  0.48346700  1
  H  80  1  0.61956100  0.89553300  0.48738800  1
  H  81  1  0.64715400  0.75877900  0.48412100  1
  H  87  1  0.89376700  0.93811700  0.33891200  1
  H  88  1  0.89027800  0.98195500  0.63533200  1
  H  89  1  0.83381400  0.67694000  0.46312400  1
  H  90  1  0.84890500  0.26736700  0.49121500  1
  H  96  1  0.08315200  0.91891300  0.27155900  1
  H  98  1  0.87792500  0.04889200  0.20226700  1
  H  100  1  0.86426200  0.07005900  0.30839900  1
  H  101  1  0.80140300  0.03892200  0.27124400  1
  H  102  1  0.85690000  0.12465800  0.26578800  1
  H  104  1  0.10808000  0.91648600  0.16531700  1
  H  105  1  0.10945800  0.84782200  0.20309500  1
  H  106  1  0.16131000  0.93605500  0.20750300  1
  H  114  1  0.91835700  0.88094400  0.77382500  1
  H  116  1  0.04569500  0.07995400  0.69896600  1
  H  118  1  0.04903600  0.11642200  0.80449900  1
  H  119  1  0.02559500  0.16688000  0.76178200  1
  H  120  1  0.11428600  0.11552000  0.76531100  1
  H  122  1  0.92231700  0.84147300  0.66866200  1
  H  123  1  0.85212900  0.84337500  0.70576200  1
  H  124  1  0.94107200  0.79384100  0.71262300  1
  H  132  1  0.54763100  0.86574100  0.00511400  1
  H  134  1  0.39917100  0.63772700  0.97305100  1
  H  136  1  0.61053200  0.60911600  0.96478500  1
  H  137  1  0.52643300  0.59101200  0.93746500  1
  H  138  1  0.53091700  0.56307700  0.98684400  1
  H  140  1  0.33803400  0.88953300  0.02048200  1
  H  141  1  0.40903400  0.94021700  0.99374500  1
  H  142  1  0.42740300  0.91040900  0.04202300  1
  H  150  1  0.86516800  0.39873100  0.50534700  1
  H  152  1  0.63696900  0.54712300  0.47352500  1
  H  154  1  0.60856700  0.33577800  0.46502800  1
  H  155  1  0.59034300  0.41998200  0.43781100  1
  H  156  1  0.56248400  0.41525100  0.48719500  1
  H  158  1  0.88878200  0.60833500  0.52088000  1
  H  159  1  0.93953200  0.53740600  0.49413500  1
  H  160  1  0.90966900  0.51894200  0.54239500  1
  N  107  1  0.97853200  0.99370000  0.15647800  1
  N  108  1  0.98913300  0.98248000  0.31753600  1
  N  125  1  0.99521800  0.97225700  0.65618500  1
  N  126  1  0.97804600  0.99279200  0.81733200  1
  N  143  1  0.31221600  0.74747800  0.99221100  1
  N  144  1  0.63538400  0.74520000  0.98622400  1
  N  161  1  0.74666000  0.63408800  0.49276000  1
  N  162  1  0.74471500  0.31095400  0.48639600  1
