# generated using pymatgen
data_Cu3H30C38(N2O7)2
_symmetry_space_group_name_H-M   'P 1'
_cell_length_a   12.17916000
_cell_length_b   12.17948000
_cell_length_c   19.63496000
_cell_angle_alpha   83.96030000
_cell_angle_beta   83.96130000
_cell_angle_gamma   62.00095000
_symmetry_Int_Tables_number   1
_chemical_formula_structural   Cu3H30C38(N2O7)2
_chemical_formula_sum   'Cu6 H60 C76 N8 O28'
_cell_volume   2552.22276542
_cell_formula_units_Z   2
loop_
 _symmetry_equiv_pos_site_id
 _symmetry_equiv_pos_as_xyz
  1  'x, y, z'
loop_
 _atom_site_type_symbol
 _atom_site_label
 _atom_site_symmetry_multiplicity
 _atom_site_fract_x
 _atom_site_fract_y
 _atom_site_fract_z
 _atom_site_occupancy
  Cu  Cu0  1  0.93560000  0.44580000  0.18601000  1
  Cu  Cu1  1  0.98096000  0.23396000  0.14935000  1
  Cu  Cu2  1  0.31691000  0.64350000  0.43848000  1
  Cu  Cu3  1  0.55419000  0.06442000  0.81398000  1
  Cu  Cu4  1  0.76604000  0.01905000  0.85064000  1
  Cu  Cu5  1  0.35651000  0.68307000  0.56153000  1
  H  H6  1  0.12011000  0.37198000  0.37485000  1
  H  H7  1  0.62451000  0.25479000  0.02066000  1
  H  H8  1  0.54945000  0.51082000  0.24039000  1
  H  H9  1  0.30975000  0.04751000  0.51096000  1
  H  H10  1  0.14675000  0.01859000  0.33504000  1
  H  H11  1  0.31653000  0.38110000  0.17293000  1
  H  H12  1  0.31495000  0.18238000  0.00466000  1
  H  H13  1  0.32741000  0.33029000  0.60857000  1
  H  H14  1  0.17675000  0.52413000  0.38815000  1
  H  H15  1  0.48203000  0.22207000  0.23225000  1
  H  H16  1  0.64607000  0.15760000  0.23745000  1
  H  H17  1  0.47961000  0.13234000  0.43413000  1
  H  H18  1  0.48552000  0.04734000  0.51361000  1
  H  H19  1  0.16448000  0.59278000  0.16794000  1
  H  H20  1  0.36676000  0.70627000  0.28878000  1
  H  H21  1  0.70857000  0.29067000  0.33108000  1
  H  H22  1  0.57093000  0.42603000  0.35568000  1
  H  H23  1  0.52916000  0.15316000  0.62146000  1
  H  H24  1  0.57512000  0.27008000  0.59579000  1
  H  H25  1  0.10072000  0.50606000  0.27703000  1
  H  H26  1  0.80479000  0.16736000  0.09986000  1
  H  H27  1  0.60316000  0.22011000  0.47426000  1
  H  H28  1  0.67045000  0.06962000  0.51804000  1
  H  H29  1  0.79368000  0.99058000  0.05139000  1
  H  H30  1  0.30661000  0.69024000  0.17346000  1
  H  H31  1  0.18148000  0.95827000  0.12601000  1
  H  H32  1  0.18653000  0.76981000  0.08174000  1
  H  H33  1  0.43986000  0.33650000  0.33490000  1
  H  H34  1  0.57433000  0.19647000  0.35696000  1
  H  H35  1  0.98817000  0.78452000  0.04537000  1
  H  H36  1  0.62801000  0.87989000  0.62516000  1
  H  H37  1  0.74520000  0.37551000  0.97933000  1
  H  H38  1  0.48917000  0.45057000  0.75961000  1
  H  H39  1  0.95250000  0.69026000  0.48905000  1
  H  H40  1  0.98142000  0.85326000  0.66496000  1
  H  H41  1  0.61892000  0.68346000  0.82705000  1
  H  H42  1  0.81762000  0.68505000  0.99533000  1
  H  H43  1  0.66971000  0.67260000  0.39143000  1
  H  H44  1  0.47587000  0.82325000  0.61185000  1
  H  H45  1  0.77794000  0.51797000  0.76775000  1
  H  H46  1  0.84241000  0.35394000  0.76256000  1
  H  H47  1  0.86767000  0.52039000  0.56587000  1
  H  H48  1  0.95267000  0.51447000  0.48639000  1
  H  H49  1  0.40723000  0.83552000  0.83206000  1
  H  H50  1  0.29373000  0.63324000  0.71122000  1
  H  H51  1  0.70933000  0.29145000  0.66892000  1
  H  H52  1  0.57397000  0.42908000  0.64432000  1
  H  H53  1  0.84683000  0.47086000  0.37854000  1
  H  H54  1  0.72990000  0.42491000  0.40422000  1
  H  H55  1  0.49394000  0.89929000  0.72297000  1
  H  H56  1  0.83264000  0.19521000  0.90014000  1
  H  H57  1  0.77990000  0.39684000  0.52575000  1
  H  H58  1  0.93038000  0.32956000  0.48197000  1
  H  H59  1  0.00943000  0.20633000  0.94860000  1
  H  H60  1  0.30976000  0.69340000  0.82654000  1
  H  H61  1  0.04172000  0.81853000  0.87399000  1
  H  H62  1  0.23019000  0.81347000  0.91827000  1
  H  H63  1  0.66350000  0.56015000  0.66510000  1
  H  H64  1  0.80354000  0.42568000  0.64304000  1
  H  H65  1  0.21548000  0.01183000  0.95464000  1
  C  C66  1  0.73963000  0.38527000  0.21610000  1
  C  C67  1  0.47728000  0.20952000  0.00748000  1
  C  C68  1  0.26936000  0.88804000  0.44951000  1
  C  C69  1  0.15406000  0.27311000  0.38831000  1
  C  C70  1  0.47979000  0.32027000  0.10254000  1
  C  C71  1  0.38046000  0.43834000  0.53449000  1
  C  C72  1  0.53601000  0.26053000  0.04201000  1
  C  C73  1  0.54141000  0.37889000  0.13762000  1
  C  C74  1  0.54037000  0.14411000  0.94361000  1
  C  C75  1  0.60868000  0.40974000  0.24412000  1
  C  C76  1  0.22380000  0.21807000  0.44602000  1
  C  C77  1  0.25985000  0.09256000  0.46507000  1
  C  C78  1  0.16695000  0.07464000  0.36635000  1
  C  C79  1  0.05777000  0.25879000  0.28447000  1
  C  C80  1  0.30204000  0.28450000  0.09150000  1
  C  C81  1  0.12732000  0.20141000  0.34779000  1
  C  C82  1  0.36248000  0.33277000  0.12670000  1
  C  C83  1  0.24934000  0.29604000  0.49007000  1
  C  C84  1  0.17481000  0.30387000  0.11759000  1
  C  C85  1  0.36040000  0.22108000  0.03219000  1
  C  C86  1  0.39224000  0.31137000  0.56297000  1
  C  C87  1  0.23082000  0.02126000  0.42595000  1
  C  C88  1  0.20119000  0.56040000  0.33897000  1
  C  C89  1  0.55596000  0.24034000  0.24665000  1
  C  C90  1  0.47928000  0.13547000  0.48969000  1
  C  C91  1  0.19561000  0.59962000  0.21659000  1
  C  C92  1  0.30904000  0.66176000  0.28326000  1
  C  C93  1  0.61167000  0.35287000  0.31905000  1
  C  C94  1  0.52783000  0.22084000  0.57953000  1
  C  C95  1  0.15929000  0.55139000  0.27739000  1
  C  C96  1  0.88661000  0.07725000  0.09476000  1
  C  C97  1  0.58406000  0.15703000  0.51202000  1
  C  C98  1  0.88098000  0.97783000  0.06897000  1
  C  C99  1  0.27315000  0.65434000  0.21954000  1
  C  C100  1  0.09767000  0.95987000  0.11019000  1
  C  C101  1  0.09953000  0.85569000  0.08568000  1
  C  C102  1  0.53872000  0.27799000  0.32038000  1
  C  C103  1  0.98938000  0.86434000  0.06496000  1
  C  C104  1  0.61472000  0.26039000  0.78390000  1
  C  C105  1  0.79048000  0.52273000  0.99252000  1
  C  C106  1  0.11196000  0.73064000  0.55049000  1
  C  C107  1  0.72689000  0.84594000  0.61170000  1
  C  C108  1  0.67973000  0.52022000  0.89745000  1
  C  C109  1  0.56166000  0.61954000  0.46551000  1
  C  C110  1  0.73947000  0.46401000  0.95799000  1
  C  C111  1  0.62111000  0.45860000  0.86238000  1
  C  C112  1  0.85589000  0.45963000  0.05639000  1
  C  C113  1  0.59026000  0.39133000  0.75588000  1
  C  C114  1  0.78193000  0.77620000  0.55399000  1
  C  C115  1  0.90745000  0.74015000  0.53493000  1
  C  C116  1  0.92537000  0.83305000  0.63365000  1
  C  C117  1  0.74122000  0.94224000  0.71553000  1
  C  C118  1  0.71551000  0.69797000  0.90849000  1
  C  C119  1  0.79859000  0.87268000  0.65221000  1
  C  C120  1  0.66724000  0.63752000  0.87329000  1
  C  C121  1  0.70397000  0.75066000  0.50993000  1
  C  C122  1  0.69612000  0.82519000  0.88241000  1
  C  C123  1  0.77892000  0.63961000  0.96780000  1
  C  C124  1  0.68863000  0.60776000  0.43704000  1
  C  C125  1  0.97874000  0.76919000  0.57406000  1
  C  C126  1  0.43961000  0.79881000  0.66103000  1
  C  C127  1  0.75967000  0.44405000  0.75335000  1
  C  C128  1  0.86454000  0.52072000  0.51031000  1
  C  C129  1  0.40038000  0.80438000  0.78341000  1
  C  C130  1  0.33824000  0.69096000  0.71674000  1
  C  C131  1  0.64713000  0.38834000  0.68095000  1
  C  C132  1  0.77916000  0.47219000  0.42047000  1
  C  C133  1  0.44862000  0.84071000  0.72261000  1
  C  C134  1  0.92275000  0.11340000  0.90525000  1
  C  C135  1  0.84297000  0.41595000  0.48798000  1
  C  C136  1  0.02217000  0.11903000  0.93104000  1
  C  C137  1  0.34566000  0.72685000  0.78046000  1
  C  C138  1  0.04012000  0.90233000  0.88981000  1
  C  C139  1  0.14431000  0.90047000  0.91433000  1
  C  C140  1  0.72202000  0.46129000  0.67962000  1
  C  C141  1  0.13566000  0.01063000  0.93505000  1
  N  N142  1  0.27422000  0.61515000  0.34190000  1
  N  N143  1  0.36492000  0.24478000  0.51469000  1
  N  N144  1  0.55655000  0.34925000  0.20625000  1
  N  N145  1  0.99270000  0.06898000  0.11524000  1
  N  N146  1  0.38485000  0.72578000  0.65810000  1
  N  N147  1  0.75523000  0.63508000  0.48531000  1
  N  N148  1  0.65075000  0.44346000  0.79375000  1
  N  N149  1  0.93102000  0.00731000  0.88477000  1
  O  O150  1  0.25603000  0.82182000  0.40786000  1
  O  O151  1  0.37820000  0.50609000  0.58019000  1
  O  O152  1  0.81045000  0.27898000  0.19269000  1
  O  O153  1  0.05581000  0.18607000  0.24309000  1
  O  O154  1  0.00512000  0.37849000  0.27611000  1
  O  O155  1  0.37750000  0.46454000  0.47001000  1
  O  O156  1  0.31160000  0.85219000  0.50868000  1
  O  O157  1  0.65791000  0.10304000  0.93568000  1
  O  O158  1  0.14465000  0.21977000  0.10786000  1
  O  O159  1  0.76800000  0.47199000  0.22218000  1
  O  O160  1  0.10675000  0.40490000  0.14787000  1
  O  O161  1  0.47163000  0.13367000  0.90224000  1
  O  O162  1  0.16586000  0.40095000  0.50515000  1
  O  O163  1  0.57311000  0.45388000  0.10523000  1
  O  O164  1  0.17818000  0.74397000  0.59214000  1
  O  O165  1  0.49390000  0.62181000  0.41981000  1
  O  O166  1  0.72102000  0.18956000  0.80731000  1
  O  O167  1  0.81397000  0.94420000  0.75691000  1
  O  O168  1  0.62153000  0.99488000  0.72390000  1
  O  O169  1  0.53547000  0.62248000  0.52999000  1
  O  O170  1  0.14779000  0.68841000  0.49132000  1
  O  O171  1  0.89696000  0.34209000  0.06432000  1
  O  O172  1  0.78023000  0.85535000  0.89213000  1
  O  O173  1  0.52800000  0.23202000  0.77782000  1
  O  O174  1  0.59508000  0.89327000  0.85213000  1
  O  O175  1  0.86634000  0.52836000  0.09776000  1
  O  O176  1  0.59905000  0.83413000  0.49485000  1
  O  O177  1  0.54612000  0.42689000  0.89477000  1
