# generated using pymatgen
data_Cu2H13C27NO8
_symmetry_space_group_name_H-M   'P 1'
_cell_length_a   17.64052000
_cell_length_b   17.64055000
_cell_length_c   17.64043000
_cell_angle_alpha   97.32946000
_cell_angle_beta   97.33912000
_cell_angle_gamma   97.32943000
_symmetry_Int_Tables_number   1
_chemical_formula_structural   Cu2H13C27NO8
_chemical_formula_sum   'Cu6 H39 C81 N3 O24'
_cell_volume   5341.97187334
_cell_formula_units_Z   3
loop_
 _symmetry_equiv_pos_site_id
 _symmetry_equiv_pos_as_xyz
  1  'x, y, z'
loop_
 _atom_site_type_symbol
 _atom_site_label
 _atom_site_symmetry_multiplicity
 _atom_site_fract_x
 _atom_site_fract_y
 _atom_site_fract_z
 _atom_site_occupancy
  Cu  Cu0  1  0.27321000  0.59507000  0.59508000  1
  Cu  Cu1  1  0.13936000  0.54218000  0.54217000  1
  Cu  Cu2  1  0.59508000  0.59507000  0.27320000  1
  Cu  Cu3  1  0.54217000  0.54218000  0.13935000  1
  Cu  Cu4  1  0.59507000  0.27321000  0.59507000  1
  Cu  Cu5  1  0.54218000  0.13936000  0.54217000  1
  H  H6  1  0.26618000  0.62252000  0.83511000  1
  H  H7  1  0.23901000  0.62561000  0.96977000  1
  H  H8  1  0.00370000  0.52349000  0.88637000  1
  H  H9  1  0.03117000  0.52154000  0.75000000  1
  H  H10  1  0.22265000  0.56057000  0.06007000  1
  H  H11  1  0.30702000  0.55927000  0.14357000  1
  H  H12  1  0.62252000  0.83509000  0.26618000  1
  H  H13  1  0.62561000  0.96975000  0.23901000  1
  H  H14  1  0.52348000  0.88639000  0.00368000  1
  H  H15  1  0.52154000  0.75002000  0.03117000  1
  H  H16  1  0.56057000  0.06007000  0.22265000  1
  H  H17  1  0.55927000  0.14357000  0.30702000  1
  H  H18  1  0.83509000  0.26618000  0.62251000  1
  H  H19  1  0.96976000  0.23901000  0.62561000  1
  H  H20  1  0.88638000  0.00370000  0.52348000  1
  H  H21  1  0.75001000  0.03118000  0.52154000  1
  H  H22  1  0.06007000  0.22266000  0.56056000  1
  H  H23  1  0.14357000  0.30703000  0.55927000  1
  H  H24  1  0.26619000  0.83509000  0.62252000  1
  H  H25  1  0.23901000  0.96975000  0.62561000  1
  H  H26  1  0.00369000  0.88639000  0.52348000  1
  H  H27  1  0.03118000  0.75002000  0.52153000  1
  H  H28  1  0.22266000  0.06007000  0.56056000  1
  H  H29  1  0.30703000  0.14357000  0.55927000  1
  H  H30  1  0.62252000  0.26618000  0.83509000  1
  H  H31  1  0.62561000  0.23901000  0.96976000  1
  H  H32  1  0.52348000  0.00370000  0.88638000  1
  H  H33  1  0.52154000  0.03118000  0.75001000  1
  H  H34  1  0.56057000  0.22266000  0.06006000  1
  H  H35  1  0.55927000  0.30703000  0.14356000  1
  H  H36  1  0.83511000  0.62252000  0.26617000  1
  H  H37  1  0.96977000  0.62561000  0.23901000  1
  H  H38  1  0.88637000  0.52348000  0.00369000  1
  H  H39  1  0.75000000  0.52154000  0.03117000  1
  H  H40  1  0.06008000  0.56057000  0.22265000  1
  H  H41  1  0.14358000  0.55927000  0.30701000  1
  H  H42  1  0.38639000  0.58194000  0.38638000  1
  H  H43  1  0.58193000  0.38637000  0.38637000  1
  H  H44  1  0.38637000  0.38637000  0.58193000  1
  C  C45  1  0.16884000  0.56781000  0.70389000  1
  C  C46  1  0.15075000  0.57039000  0.78429000  1
  C  C47  1  0.20914000  0.60009000  0.84669000  1
  C  C48  1  0.19367000  0.60087000  0.92209000  1
  C  C49  1  0.11987000  0.57170000  0.93716000  1
  C  C50  1  0.06102000  0.54440000  0.87438000  1
  C  C51  1  0.07626000  0.54340000  0.79873000  1
  C  C52  1  0.10469000  0.56870000  0.01755000  1
  C  C53  1  0.16549000  0.56402000  0.07563000  1
  C  C54  1  0.29234000  0.56277000  0.20173000  1
  C  C55  1  0.35330000  0.56939000  0.26242000  1
  C  C56  1  0.43362000  0.57000000  0.24390000  1
  C  C57  1  0.56781000  0.70389000  0.16884000  1
  C  C58  1  0.57039000  0.78429000  0.15075000  1
  C  C59  1  0.60010000  0.84668000  0.20914000  1
  C  C60  1  0.60086000  0.92208000  0.19367000  1
  C  C61  1  0.57169000  0.93716000  0.11986000  1
  C  C62  1  0.54439000  0.87440000  0.06101000  1
  C  C63  1  0.54340000  0.79874000  0.07626000  1
  C  C64  1  0.56869000  0.01756000  0.10469000  1
  C  C65  1  0.56402000  0.07563000  0.16549000  1
  C  C66  1  0.56277000  0.20173000  0.29233000  1
  C  C67  1  0.56939000  0.26242000  0.35330000  1
  C  C68  1  0.57000000  0.24390000  0.43362000  1
  C  C69  1  0.70389000  0.16885000  0.56781000  1
  C  C70  1  0.78429000  0.15075000  0.57039000  1
  C  C71  1  0.84668000  0.20915000  0.60009000  1
  C  C72  1  0.92209000  0.19367000  0.60086000  1
  C  C73  1  0.93716000  0.11987000  0.57169000  1
  C  C74  1  0.87440000  0.06102000  0.54439000  1
  C  C75  1  0.79874000  0.07627000  0.54340000  1
  C  C76  1  0.01756000  0.10470000  0.56869000  1
  C  C77  1  0.07563000  0.16550000  0.56402000  1
  C  C78  1  0.20173000  0.29234000  0.56277000  1
  C  C79  1  0.26242000  0.35330000  0.56939000  1
  C  C80  1  0.24390000  0.43362000  0.57000000  1
  C  C81  1  0.16885000  0.70389000  0.56781000  1
  C  C82  1  0.15075000  0.78429000  0.57039000  1
  C  C83  1  0.20915000  0.84668000  0.60009000  1
  C  C84  1  0.19367000  0.92208000  0.60086000  1
  C  C85  1  0.11987000  0.93716000  0.57169000  1
  C  C86  1  0.06101000  0.87440000  0.54439000  1
  C  C87  1  0.07626000  0.79874000  0.54340000  1
  C  C88  1  0.10470000  0.01756000  0.56869000  1
  C  C89  1  0.16549000  0.07563000  0.56402000  1
  C  C90  1  0.29234000  0.20173000  0.56277000  1
  C  C91  1  0.35330000  0.26242000  0.56939000  1
  C  C92  1  0.43362000  0.24390000  0.57000000  1
  C  C93  1  0.56781000  0.16885000  0.70389000  1
  C  C94  1  0.57039000  0.15075000  0.78429000  1
  C  C95  1  0.60009000  0.20915000  0.84668000  1
  C  C96  1  0.60086000  0.19367000  0.92209000  1
  C  C97  1  0.57169000  0.11987000  0.93716000  1
  C  C98  1  0.54439000  0.06102000  0.87439000  1
  C  C99  1  0.54340000  0.07627000  0.79874000  1
  C  C100  1  0.56869000  0.10470000  0.01755000  1
  C  C101  1  0.56402000  0.16550000  0.07563000  1
  C  C102  1  0.56277000  0.29234000  0.20172000  1
  C  C103  1  0.56939000  0.35330000  0.26241000  1
  C  C104  1  0.57000000  0.43362000  0.24389000  1
  C  C105  1  0.70389000  0.56781000  0.16884000  1
  C  C106  1  0.78429000  0.57039000  0.15074000  1
  C  C107  1  0.84669000  0.60009000  0.20914000  1
  C  C108  1  0.92209000  0.60087000  0.19366000  1
  C  C109  1  0.93716000  0.57170000  0.11986000  1
  C  C110  1  0.87438000  0.54440000  0.06101000  1
  C  C111  1  0.79873000  0.54340000  0.07626000  1
  C  C112  1  0.01755000  0.56870000  0.10468000  1
  C  C113  1  0.07563000  0.56402000  0.16548000  1
  C  C114  1  0.20174000  0.56277000  0.29233000  1
  C  C115  1  0.26243000  0.56939000  0.35330000  1
  C  C116  1  0.24391000  0.57000000  0.43362000  1
  C  C117  1  0.15203000  0.56244000  0.15202000  1
  C  C118  1  0.21565000  0.56175000  0.21564000  1
  C  C119  1  0.33900000  0.57494000  0.33899000  1
  C  C120  1  0.56244000  0.15203000  0.15203000  1
  C  C121  1  0.56175000  0.21565000  0.21564000  1
  C  C122  1  0.57494000  0.33899000  0.33898000  1
  C  C123  1  0.15203000  0.15203000  0.56243000  1
  C  C124  1  0.21565000  0.21565000  0.56175000  1
  C  C125  1  0.33899000  0.33899000  0.57494000  1
  N  N126  1  0.03139000  0.57031000  0.03138000  1
  N  N127  1  0.57030000  0.03140000  0.03139000  1
  N  N128  1  0.03140000  0.03140000  0.57030000  1
  O  O129  1  0.23909000  0.59132000  0.69671000  1
  O  O130  1  0.11387000  0.54203000  0.64796000  1
  O  O131  1  0.43985000  0.54559000  0.17367000  1
  O  O132  1  0.48914000  0.59433000  0.29907000  1
  O  O133  1  0.59132000  0.69671000  0.23909000  1
  O  O134  1  0.54203000  0.64797000  0.11387000  1
  O  O135  1  0.54559000  0.17367000  0.43985000  1
  O  O136  1  0.59433000  0.29908000  0.48913000  1
  O  O137  1  0.69671000  0.23909000  0.59132000  1
  O  O138  1  0.64796000  0.11387000  0.54203000  1
  O  O139  1  0.17367000  0.43986000  0.54559000  1
  O  O140  1  0.29907000  0.48913000  0.59433000  1
  O  O141  1  0.23909000  0.69671000  0.59132000  1
  O  O142  1  0.11387000  0.64797000  0.54203000  1
  O  O143  1  0.43985000  0.17367000  0.54558000  1
  O  O144  1  0.48914000  0.29908000  0.59432000  1
  O  O145  1  0.59132000  0.23909000  0.69670000  1
  O  O146  1  0.54204000  0.11387000  0.64796000  1
  O  O147  1  0.54559000  0.43986000  0.17366000  1
  O  O148  1  0.59433000  0.48913000  0.29907000  1
  O  O149  1  0.69671000  0.59132000  0.23908000  1
  O  O150  1  0.64796000  0.54203000  0.11386000  1
  O  O151  1  0.17368000  0.54559000  0.43985000  1
  O  O152  1  0.29908000  0.59433000  0.48914000  1
