# generated using pymatgen
data_Ce2H12(C4O5)3
_symmetry_space_group_name_H-M   'P 1'
_cell_length_a   9.49782265
_cell_length_b   9.52588000
_cell_length_c   17.31543000
_cell_angle_alpha   90.00045000
_cell_angle_beta   90.00327513
_cell_angle_gamma   119.80467890
_symmetry_Int_Tables_number   1
_chemical_formula_structural   Ce2H12(C4O5)3
_chemical_formula_sum   'Ce4 H24 C24 O30'
_cell_volume   1359.39129714
_cell_formula_units_Z   2
loop_
 _symmetry_equiv_pos_site_id
 _symmetry_equiv_pos_as_xyz
  1  'x, y, z'
loop_
 _atom_site_type_symbol
 _atom_site_label
 _atom_site_symmetry_multiplicity
 _atom_site_fract_x
 _atom_site_fract_y
 _atom_site_fract_z
 _atom_site_occupancy
  Ce  Ce0  1  0.33283000  0.66639000  0.24974000  1
  Ce  Ce1  1  0.66552000  0.33368000  0.74995000  1
  Ce  Ce2  1  0.99833000  0.99901000  0.00085000  1
  Ce  Ce3  1  0.99890000  0.99928000  0.50106000  1
  H  H4  1  0.01742000  0.58319000  0.08526000  1
  H  H5  1  0.18279000  0.67461000  0.01925000  1
  H  H6  1  0.41704000  0.43430000  0.08529000  1
  H  H7  1  0.32519000  0.50774000  0.01922000  1
  H  H8  1  0.56538000  0.98266000  0.08530000  1
  H  H9  1  0.49195000  0.81743000  0.01923000  1
  H  H10  1  0.01752000  0.58279000  0.41480000  1
  H  H11  1  0.18286000  0.67419000  0.48075000  1
  H  H12  1  0.41745000  0.43471000  0.41472000  1
  H  H13  1  0.32544000  0.50830000  0.48066000  1
  H  H14  1  0.56498000  0.98287000  0.41482000  1
  H  H15  1  0.49151000  0.81759000  0.48089000  1
  H  H16  1  0.43416000  0.41685000  0.91480000  1
  H  H17  1  0.50841000  0.32551000  0.98066000  1
  H  H18  1  0.98308000  0.56562000  0.91486000  1
  H  H19  1  0.81761000  0.49221000  0.98084000  1
  H  H20  1  0.58281000  0.01701000  0.91483000  1
  H  H21  1  0.67432000  0.18228000  0.98093000  1
  H  H22  1  0.43480000  0.41721000  0.58530000  1
  H  H23  1  0.50881000  0.32575000  0.51931000  1
  H  H24  1  0.98279000  0.56498000  0.58528000  1
  H  H25  1  0.81753000  0.49163000  0.51921000  1
  H  H26  1  0.58227000  0.01732000  0.58528000  1
  H  H27  1  0.67378000  0.18257000  0.51915000  1
  C  C28  1  0.18553000  0.83594000  0.10674000  1
  C  C29  1  0.09439000  0.69406000  0.05206000  1
  C  C30  1  0.16387000  0.34961000  0.10679000  1
  C  C31  1  0.30588000  0.40028000  0.05196000  1
  C  C32  1  0.64998000  0.81397000  0.10700000  1
  C  C33  1  0.59933000  0.90544000  0.05207000  1
  C  C34  1  0.18514000  0.83566000  0.39347000  1
  C  C35  1  0.09436000  0.69359000  0.44801000  1
  C  C36  1  0.16410000  0.34954000  0.39333000  1
  C  C37  1  0.30631000  0.40076000  0.44804000  1
  C  C38  1  0.65031000  0.81454000  0.39347000  1
  C  C39  1  0.59891000  0.90574000  0.44809000  1
  C  C40  1  0.34982000  0.16406000  0.89325000  1
  C  C41  1  0.40043000  0.30596000  0.94799000  1
  C  C42  1  0.81408000  0.65020000  0.89324000  1
  C  C43  1  0.90567000  0.59954000  0.94811000  1
  C  C44  1  0.83589000  0.18574000  0.89333000  1
  C  C45  1  0.69372000  0.09420000  0.94807000  1
  C  C46  1  0.34983000  0.16454000  0.60655000  1
  C  C47  1  0.40087000  0.30646000  0.55195000  1
  C  C48  1  0.81417000  0.64989000  0.60661000  1
  C  C49  1  0.90567000  0.59906000  0.55188000  1
  C  C50  1  0.83525000  0.18570000  0.60671000  1
  C  C51  1  0.69311000  0.09436000  0.55198000  1
  O  O52  1  0.26539000  0.81389000  0.16007000  1
  O  O53  1  0.17919000  0.96319000  0.09525000  1
  O  O54  1  0.18574000  0.45091000  0.16018000  1
  O  O55  1  0.03656000  0.21616000  0.09540000  1
  O  O56  1  0.54815000  0.73484000  0.16027000  1
  O  O57  1  0.78360000  0.81949000  0.09586000  1
  O  O58  1  0.26475000  0.81385000  0.33987000  1
  O  O59  1  0.17854000  0.96252000  0.40557000  1
  O  O60  1  0.18591000  0.45083000  0.33981000  1
  O  O61  1  0.03739000  0.21621000  0.40504000  1
  O  O62  1  0.54922000  0.73520000  0.33990000  1
  O  O63  1  0.78403000  0.82094000  0.40569000  1
  O  O64  1  0.45220000  0.18631000  0.84010000  1
  O  O65  1  0.21652000  0.03697000  0.90419000  1
  O  O66  1  0.73358000  0.54778000  0.84037000  1
  O  O67  1  0.82123000  0.78424000  0.90396000  1
  O  O68  1  0.81363000  0.26593000  0.84028000  1
  O  O69  1  0.96324000  0.17892000  0.90486000  1
  O  O70  1  0.45139000  0.18580000  0.65992000  1
  O  O71  1  0.21627000  0.03775000  0.59513000  1
  O  O72  1  0.73377000  0.54820000  0.65975000  1
  O  O73  1  0.82110000  0.78372000  0.59543000  1
  O  O74  1  0.81344000  0.26573000  0.65998000  1
  O  O75  1  0.96257000  0.17892000  0.59507000  1
  O  O76  1  0.99972000  0.72943000  0.99999000  1
  O  O77  1  0.27039000  0.27042000  0.00008000  1
  O  O78  1  0.72957000  0.99969000  0.00012000  1
  O  O79  1  0.99973000  0.72892000  0.50011000  1
  O  O80  1  0.27089000  0.27110000  0.49999000  1
  O  O81  1  0.72893000  0.99997000  0.50005000  1
