# generated using pymatgen
data_Cr3H12C26NO17
_symmetry_space_group_name_H-M   'P 1'
_cell_length_a   10.91836602
_cell_length_b   10.96124000
_cell_length_c   18.86663000
_cell_angle_alpha   89.99444000
_cell_angle_beta   89.98203180
_cell_angle_gamma   119.83269567
_symmetry_Int_Tables_number   1
_chemical_formula_structural   Cr3H12C26NO17
_chemical_formula_sum   'Cr6 H24 C52 N2 O34'
_cell_volume   1958.71819841
_cell_formula_units_Z   2
loop_
 _symmetry_equiv_pos_site_id
 _symmetry_equiv_pos_as_xyz
  1  'x, y, z'
loop_
 _atom_site_type_symbol
 _atom_site_label
 _atom_site_symmetry_multiplicity
 _atom_site_fract_x
 _atom_site_fract_y
 _atom_site_fract_z
 _atom_site_occupancy
  C  C0  1  0.46304000  0.10996500  0.64656000  1
  C  C1  1  0.54240000  0.64491000  0.35563000  1
  C  C2  1  0.06398000  0.68760500  0.64662000  1
  C  C3  1  0.92670000  0.61751000  0.35613000  1
  C  C4  1  0.48270000  0.70959000  0.64782000  1
  C  C5  1  0.52012000  0.23531000  0.35496000  1
  C  C6  1  0.46038000  0.10930000  0.85200000  1
  C  C7  1  0.54353000  0.64746500  0.14635000  1
  C  C8  1  0.06678000  0.69100000  0.85391000  1
  C  C9  1  0.93077000  0.62153000  0.14533500  1
  C  C10  1  0.48187000  0.71226500  0.85436500  1
  C  C11  1  0.51773000  0.23334000  0.14421500  1
  C  C12  1  0.95524000  0.63656500  0.43156000  1
  C  C13  1  0.99222000  0.66186000  0.57889000  1
  C  C14  1  0.97866000  0.75900000  0.46583000  1
  C  C15  1  0.99906000  0.77240000  0.53843000  1
  C  C16  1  0.94312000  0.53086000  0.54627000  1
  C  C17  1  0.92569000  0.51843500  0.47328000  1
  C  C18  1  0.09060000  0.90706500  0.45219000  1
  C  C19  1  0.11462000  0.92166500  0.53161000  1
  C  C20  1  0.37700000  0.58200500  0.53681000  1
  C  C21  1  0.60776000  0.17320000  0.46218000  1
  C  C22  1  0.38422000  0.57755500  0.46309000  1
  C  C23  1  0.61252000  0.16432000  0.53593000  1
  C  C24  1  0.51728000  0.65814500  0.43028000  1
  C  C25  1  0.50992000  0.17732000  0.57714000  1
  C  C26  1  0.63870000  0.73741500  0.47206000  1
  C  C27  1  0.42403000  0.22228000  0.54471000  1
  C  C28  1  0.62962000  0.74087000  0.54454000  1
  C  C29  1  0.42210000  0.23214000  0.47208000  1
  C  C30  1  0.49848000  0.66846000  0.57699500  1
  C  C31  1  0.51032000  0.20292000  0.43012000  1
  C  C32  1  0.92844000  0.54341000  0.95354500  1
  C  C33  1  0.90438000  0.52733000  0.02564500  1
  C  C34  1  0.96699000  0.64452000  0.07093000  1
  C  C35  1  0.01604000  0.67713500  0.92594000  1
  C  C36  1  0.05159000  0.77878500  0.04353000  1
  C  C37  1  0.07712000  0.79530500  0.97097000  1
  C  C38  1  0.63101000  0.72027000  0.95496500  1
  C  C39  1  0.39323000  0.19884500  0.02875000  1
  C  C40  1  0.64332000  0.71403500  0.02775500  1
  C  C41  1  0.40019000  0.19625000  0.95624500  1
  C  C42  1  0.52377000  0.66227000  0.07179500  1
  C  C43  1  0.49569000  0.16580000  0.92307000  1
  C  C44  1  0.39047000  0.61481000  0.04305000  1
  C  C45  1  0.59703000  0.15316500  0.96308000  1
  C  C46  1  0.37665000  0.61938500  0.97023500  1
  C  C47  1  0.59925000  0.16734000  0.03633000  1
  C  C48  1  0.49672000  0.67454500  0.92606000  1
  C  C49  1  0.49824000  0.19070000  0.07003500  1
  C  C50  1  0.25072000  0.49453000  0.42304000  1
  C  C51  1  0.72791000  0.14552000  0.56632000  1
  Cr  Cr52  1  0.54390000  0.94143000  0.75010000  1
  Cr  Cr53  1  0.45610000  0.39753000  0.24990000  1
  Cr  Cr54  1  0.22986000  0.93827000  0.74917000  1
  Cr  Cr55  1  0.77014000  0.70841000  0.25083000  1
  Cr  Cr56  1  0.23318000  0.62721000  0.75061000  1
  Cr  Cr57  1  0.76682000  0.39403000  0.24939000  1
  H  H58  1  0.93288000  0.44188000  0.57577500  1
  H  H59  1  0.89385000  0.41710500  0.44956500  1
  H  H60  1  0.04643000  0.97187000  0.43114000  1
  H  H61  1  0.21888000  0.93535500  0.54702000  1
  H  H62  1  0.18166000  0.91474500  0.42195000  1
  H  H63  1  0.08653000  0.99656500  0.55631000  1
  H  H64  1  0.27438000  0.52709500  0.56217500  1
  H  H65  1  0.68326000  0.16180000  0.42960000  1
  H  H66  1  0.74290000  0.79686500  0.44892000  1
  H  H67  1  0.34936000  0.23904500  0.57505500  1
  H  H68  1  0.72438000  0.80641500  0.57486000  1
  H  H69  1  0.35134000  0.26377500  0.44899000  1
  H  H70  1  0.88250000  0.45129000  0.91970500  1
  H  H71  1  0.83649000  0.42284500  0.04622000  1
  H  H72  1  0.10055000  0.86849000  0.07861000  1
  H  H73  1  0.14907000  0.89918500  0.95047500  1
  H  H74  1  0.74679000  0.74691000  0.04986000  1
  H  H75  1  0.32069000  0.20573000  0.92614000  1
  H  H76  1  0.29805000  0.57503000  0.07673500  1
  H  H77  1  0.67056000  0.12713000  0.93824000  1
  H  H78  1  0.27279000  0.58735000  0.94896000  1
  H  H79  1  0.67997000  0.16050000  0.06656500  1
  H  H80  1  0.05612000  0.32320000  0.42040500  1
  H  H81  1  0.86534000  0.07502500  0.55177000  1
  N  N82  1  0.75523000  0.77605500  0.91148000  1
  N  N83  1  0.27602000  0.20646000  0.05830500  1
  O  O84  1  0.57502000  0.83012000  0.67041000  1
  O  O85  1  0.42498000  0.25510000  0.32959000  1
  O  O86  1  0.53134000  0.05776000  0.67509000  1
  O  O87  1  0.46866000  0.52642000  0.32491000  1
  O  O88  1  0.34044000  0.07924000  0.66856000  1
  O  O89  1  0.65956000  0.73880000  0.33144000  1
  O  O90  1  0.11316000  0.80817000  0.67498000  1
  O  O91  1  0.88684000  0.69501000  0.32502000  1
  O  O92  1  0.09178000  0.59556000  0.67003000  1
  O  O93  1  0.90822000  0.50378000  0.32997000  1
  O  O94  1  0.36268000  0.63920000  0.67650000  1
  O  O95  1  0.63732000  0.27652000  0.32350000  1
  O  O96  1  0.57476000  0.83139000  0.83094000  1
  O  O97  1  0.42524000  0.25663000  0.16906000  1
  O  O98  1  0.53108000  0.05893000  0.82391000  1
  O  O99  1  0.46892000  0.52785000  0.17609000  1
  O  O100  1  0.34018000  0.08050000  0.82909000  1
  O  O101  1  0.65982000  0.74032000  0.17091000  1
  O  O102  1  0.11290000  0.80934000  0.82379000  1
  O  O103  1  0.88710000  0.69644000  0.17621000  1
  O  O104  1  0.09150000  0.59682000  0.83056000  1
  O  O105  1  0.90850000  0.50532000  0.16944000  1
  O  O106  1  0.36242000  0.64036000  0.82532000  1
  O  O107  1  0.63758000  0.27794000  0.17468000  1
  O  O108  1  0.33564000  0.83563000  0.74996000  1
  O  O109  1  0.66436000  0.49999000  0.25004000  1
  O  O110  1  0.87022000  0.88819000  0.93133000  1
  O  O111  1  0.75439000  0.71469500  0.85228500  1
  O  O112  1  0.14850000  0.10635500  0.04458000  1
  O  O113  1  0.29327000  0.32782000  0.07714500  1
  O  O114  1  0.23439000  0.53519000  0.36531500  1
  O  O115  1  0.14141000  0.37132000  0.45266500  1
  O  O116  1  0.77944000  0.19634000  0.62389000  1
  O  O117  1  0.78435000  0.07728000  0.52670000  1
