# generated using pymatgen
data_H25C39N4
_symmetry_space_group_name_H-M   'P 1'
_cell_length_a   25.27365000
_cell_length_b   25.27365000
_cell_length_c   62.43920000
_cell_angle_alpha   89.99970000
_cell_angle_beta   89.99940000
_cell_angle_gamma   60.00000000
_symmetry_Int_Tables_number   1
_chemical_formula_structural   H25C39N4
_chemical_formula_sum   'H150 C234 N24'
_cell_volume   34540.12425159
_cell_formula_units_Z   6
loop_
 _symmetry_equiv_pos_site_id
 _symmetry_equiv_pos_as_xyz
  1  'x, y, z'
loop_
 _atom_site_type_symbol
 _atom_site_label
 _atom_site_symmetry_multiplicity
 _atom_site_fract_x
 _atom_site_fract_y
 _atom_site_fract_z
 _atom_site_occupancy
  C  1  1  0.17982900  0.71383350  0.93300200  1
  C  2  1  0.17775700  0.66026500  0.93300600  1
  C  3  1  0.17805800  0.64275700  0.95425600  1
  C  5  1  0.17950700  0.73136300  0.95425100  1
  C  6  1  0.17923200  0.78539700  0.96086300  1
  C  7  1  0.17547100  0.80448750  0.98247800  1
  C  9  1  0.17050500  0.80669800  0.01829800  1
  C  10  1  0.16629300  0.86126400  0.01138700  1
  C  11  1  0.16957500  0.85980650  0.98934700  1
  C  12  1  0.16990800  0.78962900  0.03993200  1
  C  13  1  0.17462300  0.73365200  0.04663000  1
  C  15  1  0.18297900  0.64050900  0.04663400  1
  C  16  1  0.18142500  0.65852650  0.06789000  1
  C  17  1  0.17621700  0.71563150  0.06788700  1
  C  18  1  0.18764000  0.58455200  0.03994300  1
  C  19  1  0.18704600  0.56747050  0.01830900  1
  C  21  1  0.18201200  0.56968850  0.98249100  1
  C  22  1  0.18792600  0.51436450  0.98936500  1
  C  23  1  0.19123100  0.51291050  0.01140500  1
  C  24  1  0.17829500  0.58874600  0.96087300  1
  C  25  1  0.17801000  0.54882400  0.94479700  1
  C  26  1  0.23179700  0.51069400  0.93322600  1
  C  27  1  0.23333200  0.46771700  0.91860300  1
  C  28  1  0.18189700  0.46018650  0.91544000  1
  C  29  1  0.12790300  0.49921650  0.92695900  1
  C  30  1  0.12590500  0.54293450  0.94141900  1
  C  31  1  0.18480100  0.41545100  0.90068500  1
  C  32  1  0.13615500  0.42840650  0.88644300  1
  C  33  1  0.14321900  0.38772250  0.86980600  1
  C  34  1  0.19950800  0.33331000  0.86659400  1
  C  35  1  0.24610700  0.31782500  0.88197600  1
  C  36  1  0.23862800  0.35782550  0.89880800  1
  C  37  1  0.18959000  0.54350050  0.05594400  1
  C  38  1  0.24572200  0.49829750  0.06470000  1
  C  39  1  0.24770500  0.45335850  0.07856600  1
  C  40  1  0.19390200  0.45176800  0.08353100  1
  C  41  1  0.13773400  0.49797500  0.07500300  1
  C  42  1  0.13551800  0.54327100  0.06139100  1
  C  43  1  0.19464200  0.40683100  0.09745300  1
  C  44  1  0.21843100  0.39942350  0.11841600  1
  C  45  1  0.20633500  0.36630350  0.13387600  1
  C  46  1  0.17020700  0.33957650  0.12880200  1
  C  47  1  0.15114300  0.34259200  0.10730900  1
  C  48  1  0.16337100  0.37549300  0.09185300  1
  C  49  1  0.16798000  0.83067800  0.05593000  1
  C  50  1  0.11186300  0.87593450  0.06467600  1
  C  51  1  0.10993300  0.92081650  0.07855800  1
  C  52  1  0.16375500  0.92238250  0.08350900  1
  C  53  1  0.21990300  0.87615550  0.07497200  1
  C  54  1  0.22207900  0.83086800  0.06136500  1
  C  55  1  0.16307600  0.96727700  0.09744200  1
  C  56  1  0.19439500  0.99856450  0.09183700  1
  C  57  1  0.20654300  0.03155750  0.10727700  1
  C  58  1  0.18752600  0.03451050  0.12876700  1
  C  59  1  0.15147100  0.00771350  0.13386200  1
  C  60  1  0.13915100  0.97477900  0.11838900  1
  C  61  1  0.17945900  0.82533950  0.94478400  1
  C  62  1  0.12562700  0.86349050  0.93324000  1
  C  63  1  0.23155900  0.83121800  0.94137900  1
  C  64  1  0.22948500  0.87501100  0.92693800  1
  C  65  1  0.17544400  0.91407150  0.91544700  1
  C  66  1  0.12402900  0.90651650  0.91862600  1
  C  67  1  0.17247000  0.95888000  0.90071300  1
  C  68  1  0.11861900  0.01649400  0.89887100  1
  C  69  1  0.11103600  0.05660050  0.88206300  1
  C  70  1  0.15746600  0.04106450  0.86660700  1
  C  71  1  0.21382900  0.98670450  0.86979600  1
  C  72  1  0.22104700  0.94600900  0.88645000  1
  C  115  1  0.70554700  0.65908050  0.26633000  1
  C  116  1  0.65197100  0.71471350  0.26633400  1
  C  117  1  0.63441600  0.73186450  0.28758500  1
  C  119  1  0.72302400  0.64181350  0.28757700  1
  C  120  1  0.77705400  0.58804700  0.29418900  1
  C  121  1  0.79610900  0.57267700  0.31580700  1
  C  123  1  0.79829700  0.57540750  0.35162700  1
  C  124  1  0.85285300  0.52503700  0.34471800  1
  C  125  1  0.85144200  0.52327500  0.32267400  1
  C  126  1  0.78121700  0.59305300  0.37326200  1
  C  127  1  0.72526500  0.64435000  0.37995900  1
  C  129  1  0.63213000  0.72914700  0.37996300  1
  C  130  1  0.65016500  0.71270850  0.40121900  1
  C  131  1  0.70726200  0.66080350  0.40121600  1
  C  132  1  0.57614400  0.78040650  0.37327200  1
  C  133  1  0.55906600  0.79809300  0.35163800  1
  C  135  1  0.56128200  0.80090600  0.31581900  1
  C  136  1  0.50594200  0.85029300  0.32269300  1
  C  137  1  0.50448900  0.84844150  0.34473400  1
  C  138  1  0.58037500  0.78561000  0.29420300  1
  C  139  1  0.54045900  0.82582500  0.27812800  1
  C  140  1  0.50238300  0.81013100  0.26653900  1
  C  141  1  0.45939100  0.85157800  0.25192000  1
  C  142  1  0.45179700  0.91057450  0.24877800  1
  C  143  1  0.49076400  0.92557750  0.26032100  1
  C  144  1  0.53454700  0.88383000  0.27475700  1
  C  145  1  0.40706000  0.95240650  0.23402300  1
  C  146  1  0.41998500  0.98816550  0.21980300  1
  C  147  1  0.37930300  0.02181750  0.20317100  1
  C  148  1  0.32495100  0.01984250  0.19993400  1
  C  149  1  0.30939300  0.98879150  0.21531800  1
  C  150  1  0.34947700  0.95612750  0.23211600  1
  C  151  1  0.53510100  0.81953050  0.38927200  1
  C  152  1  0.48990600  0.80860900  0.39803900  1
  C  153  1  0.44497000  0.85159300  0.41189800  1
  C  154  1  0.44337700  0.90699600  0.41684600  1
  C  155  1  0.48957000  0.91695350  0.40829800  1
  C  156  1  0.53487700  0.87384050  0.39469800  1
  C  157  1  0.39845700  0.95120900  0.43076800  1
  C  158  1  0.39098100  0.93483150  0.45172600  1
  C  159  1  0.35802100  0.98010200  0.46719100  1
  C  160  1  0.33113000  0.04295100  0.46208200  1
  C  161  1  0.33408700  0.05897650  0.44058900  1
  C  162  1  0.36714900  0.01381750  0.42516100  1
  C  163  1  0.82226800  0.55392350  0.38925900  1
  C  164  1  0.86747100  0.56484300  0.39801900  1
  C  165  1  0.91239200  0.52187400  0.41188700  1
  C  166  1  0.91400100  0.46646000  0.41683000  1
  C  167  1  0.86777300  0.45652950  0.40830000  1
  C  168  1  0.82245600  0.49964450  0.39470200  1
  C  169  1  0.95892400  0.42224400  0.43075500  1
  C  170  1  0.99018400  0.35963500  0.42515400  1
  C  171  1  0.02320300  0.31450050  0.44059500  1
  C  172  1  0.02625200  0.33062050  0.46206900  1
  C  173  1  0.99967200  0.39345000  0.46715900  1
  C  174  1  0.96645800  0.43865700  0.45169900  1
  C  175  1  0.81701100  0.54790050  0.27810700  1
  C  176  1  0.85514400  0.56360650  0.26656500  1
  C  177  1  0.82291000  0.48991600  0.27469500  1
  C  178  1  0.86670500  0.44822100  0.26025000  1
  C  179  1  0.90570900  0.46324750  0.24874300  1
  C  180  1  0.89815400  0.52221200  0.25193800  1
  C  181  1  0.95046500  0.42145700  0.23398500  1
  C  182  1  0.00806300  0.41771900  0.23210800  1
  C  183  1  0.04815000  0.38513450  0.21530100  1
  C  184  1  0.03266200  0.35406950  0.19990000  1
  C  185  1  0.97826500  0.35215850  0.20309700  1
  C  186  1  0.93754800  0.38576650  0.21972900  1
  C  229  1  0.65073600  0.18805800  0.59963800  1
  C  230  1  0.70637000  0.18599900  0.59964300  1
  C  231  1  0.72352100  0.18640200  0.62089400  1
  C  233  1  0.63343900  0.18790350  0.62088600  1
  C  234  1  0.57962800  0.18773300  0.62749800  1
  C  235  1  0.56426700  0.18401900  0.64911500  1
  C  237  1  0.56710700  0.17889700  0.68493200  1
  C  238  1  0.51674800  0.17469250  0.67802000  1
  C  239  1  0.51484700  0.17811400  0.65598200  1
  C  240  1  0.58480300  0.17823700  0.70656600  1
  C  241  1  0.63604700  0.18298150  0.71326400  1
  C  243  1  0.72081000  0.19137900  0.71326800  1
  C  244  1  0.70430700  0.18989100  0.73452600  1
  C  245  1  0.65243300  0.18464500  0.73452300  1
  C  246  1  0.77211700  0.19602550  0.70657900  1
  C  247  1  0.78979100  0.19544100  0.68494600  1
  C  249  1  0.79257400  0.19047000  0.64912800  1
  C  250  1  0.84199300  0.19636750  0.65600100  1
  C  251  1  0.84017900  0.19960600  0.67804400  1
  C  252  1  0.77728200  0.18666300  0.62751100  1
  C  253  1  0.81749100  0.18637450  0.61143600  1
  C  254  1  0.80183200  0.24018000  0.59987800  1
  C  255  1  0.84328900  0.24174400  0.58526900  1
  C  256  1  0.90225700  0.19031350  0.58210200  1
  C  257  1  0.91722000  0.13630800  0.59361400  1
  C  258  1  0.87547100  0.13426700  0.60804900  1
  C  259  1  0.94410400  0.19323850  0.56736300  1
  C  260  1  0.97979600  0.14461400  0.55311300  1
  C  261  1  0.01331800  0.15175850  0.53645600  1
  C  262  1  0.01146300  0.20804900  0.53327100  1
  C  263  1  0.98046400  0.25456950  0.54868700  1
  C  264  1  0.94790700  0.24706300  0.56550100  1
  C  265  1  0.81118300  0.19803950  0.72258000  1
  C  266  1  0.80034700  0.25420950  0.73126700  1
  C  267  1  0.84328400  0.25619950  0.74514100  1
  C  268  1  0.89860700  0.20237450  0.75015200  1
  C  269  1  0.90847100  0.14617400  0.74168600  1
  C  270  1  0.86538800  0.14394500  0.72808000  1
  C  271  1  0.94279700  0.20310800  0.76408400  1
  C  272  1  0.92634500  0.22718550  0.78501000  1
  C  273  1  0.97154200  0.21496450  0.80049100  1
  C  274  1  0.03439900  0.17858800  0.79545900  1
  C  275  1  0.05052500  0.15944150  0.77397700  1
  C  276  1  0.00542700  0.17162550  0.75851200  1
  C  277  1  0.54568800  0.17628800  0.72256100  1
  C  278  1  0.55661100  0.12014600  0.73130700  1
  C  279  1  0.51365500  0.11815550  0.74517100  1
  C  280  1  0.45826700  0.17195300  0.75014400  1
  C  281  1  0.44831700  0.22813050  0.74162500  1
  C  282  1  0.49139400  0.23035450  0.72801500  1
  C  283  1  0.41409400  0.17119700  0.76407600  1
  C  284  1  0.35146700  0.20256150  0.75849500  1
  C  285  1  0.30635500  0.21478650  0.77395900  1
  C  286  1  0.32244500  0.19577100  0.79545100  1
  C  287  1  0.38531100  0.15954200  0.80050500  1
  C  288  1  0.43051500  0.14727750  0.78502100  1
  C  289  1  0.53949900  0.18788450  0.61141700  1
  C  290  1  0.55523000  0.13401300  0.59989100  1
  C  291  1  0.48149400  0.23993550  0.60800000  1
  C  292  1  0.43984300  0.23780750  0.59354100  1
  C  293  1  0.45489100  0.18373300  0.58205900  1
  C  294  1  0.51385800  0.13234450  0.58526900  1
  C  295  1  0.41314600  0.18071000  0.56729400  1
  C  296  1  0.40939500  0.12685150  0.56544300  1
  C  297  1  0.37695700  0.11925850  0.54860700  1
  C  298  1  0.34590300  0.16577650  0.53319700  1
  C  299  1  0.34389300  0.22213450  0.53639200  1
  C  300  1  0.37746400  0.22928900  0.55302600  1
  C  343  1  0.27905900  0.22575750  0.81204300  1
  C  345  1  0.21056400  0.32567750  0.82667900  1
  C  346  1  0.21442400  0.29927750  0.84716600  1
  C  348  1  0.27984000  0.19958950  0.83205900  1
  C  350  1  0.18046000  0.39187650  0.82191800  1
  C  354  1  0.21735900  0.04814300  0.14534800  1
  C  356  1  0.31731000  0.01675300  0.16001000  1
  C  357  1  0.29090200  0.03908500  0.18050900  1
  C  359  1  0.19121800  0.07342000  0.16538200  1
  C  361  1  0.38350300  0.98068700  0.15523900  1
  C  365  1  0.04004000  0.28712000  0.47865500  1
  C  367  1  0.00809000  0.21906350  0.49338400  1
  C  368  1  0.03059800  0.22304350  0.51386500  1
  C  370  1  0.06531700  0.28798450  0.49868400  1
  C  372  1  0.97143700  0.18953050  0.48865500  1
  C  376  1  0.07779500  0.14854250  0.81204000  1
  C  378  1  0.14624000  0.04861450  0.82670800  1
  C  379  1  0.14241800  0.07509250  0.84717500  1
  C  381  1  0.07703600  0.17471750  0.83205400  1
  C  383  1  0.17625200  0.98240750  0.82196600  1
  C  387  1  0.14037700  0.32584100  0.14535800  1
  C  389  1  0.04040300  0.35735800  0.15998900  1
  C  390  1  0.06676400  0.33490000  0.18048900  1
  C  392  1  0.16651200  0.30049600  0.16537900  1
  C  394  1  0.97421900  0.39353300  0.15521400  1
  C  398  1  0.31732300  0.08649450  0.47864700  1
  C  400  1  0.34885800  0.15499650  0.49327800  1
  C  401  1  0.32661000  0.15092700  0.51379300  1
  C  403  1  0.29229900  0.08551650  0.49871900  1
  C  405  1  0.38518000  0.18483850  0.48848200  1
  H  73  1  0.24893100  0.97433800  0.85921800  1
  H  74  1  0.26061100  0.90473650  0.88695200  1
  H  75  1  0.06910300  0.09496650  0.88028900  1
  H  76  1  0.08262600  0.02857900  0.90904700  1
  H  77  1  0.08443500  0.93235000  0.91027800  1
  H  78  1  0.08706200  0.86055850  0.93551500  1
  H  79  1  0.26748800  0.87923750  0.92538900  1
  H  80  1  0.27082300  0.80481550  0.94984700  1
  H  81  1  0.18019500  0.73640300  0.91948000  1
  H  82  1  0.17718200  0.63779500  0.91948500  1
  H  83  1  0.17881600  0.68705150  0.98164600  1
  H  84  1  0.17875900  0.68709150  0.01923200  1
  H  85  1  0.16676800  0.89445900  0.98009500  1
  H  86  1  0.16141500  0.89683700  0.02060600  1
  H  87  1  0.07196400  0.87732750  0.06061100  1
  H  88  1  0.06859900  0.95367700  0.08440500  1
  H  89  1  0.26317100  0.79908450  0.05499000  1
  H  90  1  0.25999500  0.87494400  0.07858400  1
  H  91  1  0.17416500  0.73950450  0.08137100  1
  H  92  1  0.18348100  0.63465850  0.08137500  1
  H  93  1  0.19078100  0.47968600  0.98011600  1
  H  94  1  0.19615700  0.47732400  0.02062700  1
  H  95  1  0.28561200  0.49689350  0.06061300  1
  H  96  1  0.28905200  0.42052750  0.08441300  1
  H  97  1  0.09441300  0.57503650  0.05501750  1
  H  98  1  0.09765800  0.49915800  0.07862100  1
  H  99  1  0.14471500  0.38058550  0.07691800  1
  H  100  1  0.12340100  0.32551500  0.10314500  1
  H  101  1  0.21805600  0.36829950  0.14941600  1
  H  102  1  0.23917800  0.42332100  0.12325600  1
  H  103  1  0.08666400  0.56933200  0.94989900  1
  H  104  1  0.08989900  0.49498250  0.92543200  1
  H  105  1  0.27467300  0.34571100  0.90895900  1
  H  106  1  0.28798100  0.27936450  0.88021100  1
  H  107  1  0.10800000  0.40007100  0.85928100  1
  H  108  1  0.09655300  0.46963250  0.88701300  1
  H  109  1  0.27288900  0.44191100  0.91023300  1
  H  110  1  0.27037300  0.51361900  0.93548400  1
  H  111  1  0.21292300  0.99355150  0.07688300  1
  H  112  1  0.23427000  0.04865250  0.10311500  1
  H  113  1  0.11860300  0.95070000  0.12323500  1
  H  114  1  0.13974400  0.00566550  0.14939700  1
  H  187  1  0.96592500  0.32929850  0.19256500  1
  H  188  1  0.89633300  0.38736250  0.22029000  1
  H  189  1  0.08655100  0.38864400  0.21353100  1
  H  190  1  0.02017200  0.44163500  0.24226900  1
  H  191  1  0.92395900  0.53600050  0.24358700  1
  H  192  1  0.85221600  0.60510050  0.26885000  1
  H  193  1  0.87090700  0.40600600  0.25868200  1
  H  194  1  0.79651700  0.47703550  0.28315900  1
  H  195  1  0.72814200  0.63617800  0.25280600  1
  H  196  1  0.62952400  0.73778950  0.25281600  1
  H  197  1  0.67864500  0.68673800  0.31497400  1
  H  198  1  0.67866400  0.68672750  0.35256100  1
  H  199  1  0.88608200  0.49140250  0.31342500  1
  H  200  1  0.88842700  0.49434550  0.35393600  1
  H  201  1  0.86888800  0.60332550  0.39393500  1
  H  202  1  0.94525100  0.53035600  0.41772800  1
  H  203  1  0.79071500  0.49029750  0.38831400  1
  H  204  1  0.86659300  0.41762800  0.41190600  1
  H  205  1  0.73113400  0.63897650  0.41470000  1
  H  206  1  0.62629300  0.73451450  0.41470400  1
  H  207  1  0.47127700  0.88213450  0.31344400  1
  H  208  1  0.46890000  0.87909800  0.35395400  1
  H  209  1  0.48854200  0.77008250  0.39398000  1
  H  210  1  0.41218600  0.84305400  0.41777900  1
  H  211  1  0.56661300  0.88318800  0.38830100  1
  H  212  1  0.49074200  0.95586250  0.41189800  1
  H  213  1  0.37204900  0.02732250  0.41019100  1
  H  214  1  0.31685300  0.10379800  0.43639300  1
  H  215  1  0.36006800  0.96635350  0.48273000  1
  H  216  1  0.41510500  0.89023200  0.45659900  1
  H  217  1  0.56085900  0.89672200  0.28326600  1
  H  218  1  0.48650800  0.96782550  0.25879700  1
  H  219  1  0.33737200  0.93215250  0.24225000  1
  H  220  1  0.27106100  0.98518550  0.21350100  1
  H  221  1  0.39162300  0.04475150  0.19266400  1
  H  222  1  0.46115700  0.98665450  0.22039700  1
  H  223  1  0.43362000  0.83780650  0.24353900  1
  H  224  1  0.50532500  0.76861950  0.26879300  1
  H  225  1  0.98521300  0.34609050  0.41020200  1
  H  226  1  0.04036600  0.26966650  0.43643300  1
  H  227  1  0.94245700  0.48328050  0.45655300  1
  H  228  1  0.99748700  0.40722200  0.48269800  1
  H  301  1  0.32100600  0.25732650  0.52585900  1
  H  302  1  0.37902700  0.26892500  0.55358300  1
  H  303  1  0.38033800  0.07739550  0.54686600  1
  H  304  1  0.43329400  0.09086350  0.57562100  1
  H  305  1  0.52766700  0.09273050  0.57692900  1
  H  306  1  0.59673400  0.09546300  0.60218400  1
  H  307  1  0.39760000  0.27578450  0.59197900  1
  H  308  1  0.46859200  0.27923600  0.61645100  1
  H  309  1  0.62778400  0.18847050  0.58611300  1
  H  310  1  0.72944300  0.18538050  0.58612400  1
  H  311  1  0.67834500  0.18739450  0.64828200  1
  H  312  1  0.67853600  0.18700900  0.68586600  1
  H  313  1  0.48312200  0.17510300  0.64672700  1
  H  314  1  0.48615200  0.16964250  0.68723500  1
  H  315  1  0.59509400  0.08025800  0.72721600  1
  H  316  1  0.52217100  0.07680150  0.75101400  1
  H  317  1  0.48206200  0.27146600  0.72165100  1
  H  318  1  0.40943600  0.26820650  0.74525300  1
  H  319  1  0.63060700  0.18259900  0.74800400  1
  H  320  1  0.72611300  0.19195950  0.74800900  1
  H  321  1  0.87390800  0.19906600  0.64675600  1
  H  322  1  0.87089600  0.20443300  0.68726700  1
  H  323  1  0.76191100  0.29410700  0.72714400  1
  H  324  1  0.83485400  0.29756600  0.75093700  1
  H  325  1  0.87466800  0.10281250  0.72175000  1
  H  326  1  0.94729700  0.10608200  0.74534800  1
  H  327  1  0.01898700  0.15282900  0.74359700  1
  H  328  1  0.09531300  0.13137500  0.76984500  1
  H  329  1  0.95777100  0.22676000  0.81602300  1
  H  330  1  0.88167100  0.24800550  0.78981600  1
  H  331  1  0.88831400  0.09502000  0.61652600  1
  H  332  1  0.95943600  0.09828350  0.59206600  1
  H  333  1  0.92402000  0.28308000  0.57566900  1
  H  334  1  0.97708100  0.29642900  0.54692700  1
  H  335  1  0.03613300  0.11658950  0.52591000  1
  H  336  1  0.97806100  0.10506650  0.55362800  1
  H  337  1  0.82955100  0.28131750  0.57691000  1
  H  338  1  0.76034300  0.27876350  0.60214700  1
  H  339  1  0.33788500  0.22129450  0.74357300  1
  H  340  1  0.26155100  0.24274000  0.76982300  1
  H  341  1  0.47514800  0.12660800  0.78986600  1
  H  342  1  0.39906800  0.14785950  0.81604300  1
  H  349  1  0.30742900  0.15393700  0.83483900  1
  H  351  1  0.18979500  0.40019700  0.80555500  1
  H  352  1  0.19698800  0.41423550  0.83278300  1
  H  353  1  0.13112600  0.41253800  0.82357400  1
  H  360  1  0.14563500  0.09116700  0.16820900  1
  H  362  1  0.39180700  0.96313950  0.13886200  1
  H  363  1  0.40586900  0.94172850  0.16607400  1
  H  364  1  0.40416800  0.00934500  0.15693200  1
  H  371  1  0.08347300  0.31550250  0.50143800  1
  H  373  1  0.95372800  0.19898850  0.47230000  1
  H  374  1  0.93255700  0.20640500  0.49953900  1
  H  375  1  0.99971900  0.14015750  0.49031400  1
  H  382  1  0.04963300  0.22040250  0.83482200  1
  H  384  1  0.16680200  0.97407300  0.80562100  1
  H  385  1  0.15974300  0.96010850  0.83286800  1
  H  386  1  0.22559800  0.96169550  0.82358400  1
  H  393  1  0.21209500  0.28272150  0.16821300  1
  H  395  1  0.96595000  0.41116350  0.13884700  1
  H  396  1  0.95189000  0.43244250  0.16607000  1
  H  397  1  0.95348600  0.36492600  0.15687000  1
  H  404  1  0.27439300  0.05780750  0.50153100  1
  H  406  1  0.40272300  0.17549400  0.47210400  1
  H  407  1  0.42415400  0.16811800  0.49931500  1
  H  408  1  0.35670500  0.23418650  0.49016300  1
  N  4  1  0.17881600  0.68704700  0.96628000  1
  N  8  1  0.17560300  0.77444950  0.00039700  1
  N  14  1  0.17879200  0.68708150  0.03459900  1
  N  20  1  0.18192400  0.59971950  0.00040600  1
  N  118  1  0.67868800  0.68679500  0.29960800  1
  N  122  1  0.76607000  0.60258400  0.33372500  1
  N  128  1  0.67869100  0.68674950  0.36792800  1
  N  134  1  0.59132600  0.77097950  0.33373600  1
  N  232  1  0.67843200  0.18723700  0.63291700  1
  N  236  1  0.59421000  0.18408200  0.66703300  1
  N  242  1  0.67845300  0.18714550  0.70123400  1
  N  248  1  0.76264700  0.19035450  0.66704300  1
  N  344  1  0.24424100  0.28747550  0.81061600  1
  N  347  1  0.24945700  0.23726050  0.84866400  1
  N  355  1  0.27908600  0.02130600  0.14395000  1
  N  358  1  0.22889700  0.06596550  0.18200300  1
  N  366  1  0.01277400  0.25261000  0.47730400  1
  N  369  1  0.05783300  0.25783700  0.51532400  1
  N  377  1  0.11256600  0.08680950  0.81064100  1
  N  380  1  0.10747700  0.13711100  0.84866800  1
  N  388  1  0.07864900  0.35280850  0.14393500  1
  N  391  1  0.12878100  0.30795400  0.18198200  1
  N  399  1  0.34425500  0.12130250  0.47723600  1
  N  402  1  0.29973000  0.11580850  0.51532200  1
