# generated using pymatgen
data_H32C43(NO)4
_symmetry_space_group_name_H-M   'P 1'
_cell_length_a   28.12210000
_cell_length_b   56.36480000
_cell_length_c   56.36480000
_cell_angle_alpha   60.00000000
_cell_angle_beta   89.97870000
_cell_angle_gamma   90.00000000
_symmetry_Int_Tables_number   1
_chemical_formula_structural   H32C43(NO)4
_chemical_formula_sum   'H192 C258 N24 O24'
_cell_volume   77373.86306998
_cell_formula_units_Z   6
loop_
 _symmetry_equiv_pos_site_id
 _symmetry_equiv_pos_as_xyz
  1  'x, y, z'
loop_
 _atom_site_type_symbol
 _atom_site_label
 _atom_site_symmetry_multiplicity
 _atom_site_fract_x
 _atom_site_fract_y
 _atom_site_fract_z
 _atom_site_occupancy
  H  26  1  0.64684000  0.16057500  0.35226000  1
  H  27  1  0.66780400  0.13237000  0.39887300  1
  H  28  1  0.78562100  0.19300300  0.33501500  1
  H  29  1  0.80743700  0.16390100  0.38123000  1
  H  30  1  0.82842000  0.15649600  0.43200600  1
  H  31  1  0.82392500  0.18699500  0.44944100  1
  H  32  1  0.67869000  0.14988100  0.43493500  1
  H  33  1  0.71977000  0.10454400  0.47837000  1
  H  34  1  0.66787600  0.06685900  0.50335300  1
  H  35  1  0.67169100  0.04906500  0.43911900  1
  H  36  1  0.72282900  0.08714700  0.41367400  1
  H  37  1  0.80689000  0.10977500  0.39296100  1
  H  38  1  0.81206300  0.10383600  0.47061600  1
  H  39  1  0.88243700  0.07753700  0.48088600  1
  H  40  1  0.87792800  0.08372700  0.40329700  1
  H  41  1  0.67444900  0.18048700  0.45224900  1
  H  43  1  0.77305400  0.20008200  0.47730600  1
  H  45  1  0.66874700  0.20549600  0.31203700  1
  H  47  1  0.92434000  0.04795600  0.44428600  1
  H  49  1  0.63610100  0.02322800  0.50684000  1
  H  75  1  0.64677300  0.35353900  0.49295400  1
  H  76  1  0.66759400  0.40020100  0.47419700  1
  H  77  1  0.78585200  0.33616700  0.47833900  1
  H  78  1  0.80753500  0.38246200  0.46090700  1
  H  79  1  0.82875100  0.43323800  0.41725700  1
  H  80  1  0.82479100  0.45032900  0.36937000  1
  H  81  1  0.67891900  0.43573900  0.42052600  1
  H  82  1  0.71911600  0.47956400  0.42203200  1
  H  83  1  0.66666667  0.50466800  0.43431200  1
  H  84  1  0.67056300  0.44105500  0.51661600  1
  H  85  1  0.72224200  0.41549800  0.50441400  1
  H  86  1  0.80652100  0.39473800  0.50288000  1
  H  87  1  0.81150400  0.47213500  0.43085200  1
  H  88  1  0.88155500  0.48277600  0.44682400  1
  H  89  1  0.87723200  0.40544000  0.51854200  1
  H  90  1  0.67520800  0.45268500  0.37266600  1
  H  92  1  0.77406500  0.47802200  0.32826000  1
  H  94  1  0.66877200  0.31310800  0.48885000  1
  H  96  1  0.92344900  0.44661300  0.51303600  1
  H  98  1  0.63467100  0.50851900  0.47431800  1
  H  124  1  0.64666200  0.49500600  0.15874100  1
  H  125  1  0.66759600  0.47621500  0.13087700  1
  H  126  1  0.78581800  0.48074600  0.19054400  1
  H  127  1  0.80759000  0.46328900  0.16173500  1
  H  128  1  0.82881600  0.41944700  0.15515200  1
  H  129  1  0.82496100  0.37160700  0.18619700  1
  H  130  1  0.67899300  0.42247700  0.14931100  1
  H  131  1  0.71976100  0.42358400  0.10417700  1
  H  132  1  0.66794700  0.43544100  0.06666300  1
  H  133  1  0.67070500  0.51794500  0.04735800  1
  H  134  1  0.72184000  0.50616400  0.08524000  1
  H  135  1  0.80647400  0.50498600  0.10733900  1
  H  136  1  0.81171100  0.43251100  0.10278700  1
  H  137  1  0.88208000  0.44821000  0.07640300  1
  H  138  1  0.87755000  0.52036800  0.08121800  1
  H  139  1  0.67538700  0.37467400  0.18047000  1
  H  141  1  0.77437900  0.33038900  0.19978600  1
  H  143  1  0.66867400  0.49087300  0.20328800  1
  H  145  1  0.92470600  0.51428300  0.04611900  1
  H  147  1  0.63654900  0.47505900  0.02249700  1
  H  173  1  0.14827400  0.84389100  0.65204300  1
  H  174  1  0.16772500  0.87165600  0.60518800  1
  H  175  1  0.28874000  0.81403200  0.66852700  1
  H  176  1  0.30904400  0.84285500  0.62201900  1
  H  177  1  0.33030900  0.84981700  0.57129400  1
  H  178  1  0.32836400  0.81878300  0.55445900  1
  H  179  1  0.18019900  0.85232900  0.57041300  1
  H  180  1  0.21730500  0.89800200  0.52568900  1
  H  181  1  0.16408700  0.93481600  0.50019000  1
  H  182  1  0.16767100  0.95537900  0.56248700  1
  H  183  1  0.22019600  0.91820600  0.58843900  1
  H  184  1  0.30612900  0.89718100  0.60890400  1
  H  185  1  0.30920100  0.90178600  0.53181400  1
  H  186  1  0.37843800  0.92920300  0.52013200  1
  H  187  1  0.37615200  0.92430300  0.59717900  1
  H  188  1  0.17851300  0.82112900  0.55377300  1
  H  190  1  0.27837800  0.80461500  0.52702900  1
  H  192  1  0.17188200  0.79998300  0.69235800  1
  H  194  1  0.42211900  0.95970100  0.55557900  1
  H  196  1  0.13256400  0.97920800  0.49515300  1
  H  222  1  0.14838000  0.65398100  0.50806900  1
  H  223  1  0.16769600  0.60704500  0.52774500  1
  H  224  1  0.28833800  0.67053700  0.52214700  1
  H  225  1  0.30856100  0.62394500  0.54041400  1
  H  226  1  0.32907100  0.57335100  0.58457700  1
  H  227  1  0.32592100  0.55678600  0.63238200  1
  H  228  1  0.17904000  0.57236000  0.58189700  1
  H  229  1  0.21709500  0.52752200  0.58146600  1
  H  230  1  0.16423600  0.50193400  0.57005400  1
  H  231  1  0.16865300  0.56408000  0.48714300  1
  H  232  1  0.22084300  0.59010800  0.49845300  1
  H  233  1  0.30630600  0.61051400  0.49928600  1
  H  234  1  0.30921100  0.53377800  0.57218700  1
  H  235  1  0.37848400  0.52188600  0.55667800  1
  H  236  1  0.37633300  0.59858600  0.48412200  1
  H  237  1  0.17615200  0.55594600  0.62966900  1
  H  239  1  0.27525600  0.52956100  0.67366200  1
  H  241  1  0.17174300  0.69452200  0.51148200  1
  H  243  1  0.42188500  0.55699400  0.49050900  1
  H  245  1  0.13299400  0.49685200  0.53062800  1
  H  271  1  0.14702200  0.51058800  0.84389800  1
  H  272  1  0.16789200  0.52927200  0.87185500  1
  H  273  1  0.28599500  0.52533600  0.81176300  1
  H  274  1  0.30775000  0.54266800  0.84068900  1
  H  275  1  0.32963000  0.58589900  0.84826700  1
  H  276  1  0.32632300  0.63385100  0.81773600  1
  H  277  1  0.17973000  0.58322300  0.85348300  1
  H  278  1  0.21959100  0.58149900  0.89897200  1
  H  279  1  0.16768900  0.56927500  0.93654500  1
  H  280  1  0.17125900  0.48693100  0.95535700  1
  H  281  1  0.22238300  0.49908800  0.91737700  1
  H  282  1  0.30687200  0.50052000  0.89480700  1
  H  283  1  0.31179300  0.57220400  0.90081500  1
  H  284  1  0.38218300  0.55622700  0.92711900  1
  H  285  1  0.37796200  0.48487700  0.92084100  1
  H  286  1  0.17667100  0.63116500  0.82277900  1
  H  288  1  0.27602800  0.67511200  0.80446000  1
  H  290  1  0.16904400  0.51509700  0.79915000  1
  H  292  1  0.42496800  0.49032200  0.95644100  1
  H  294  1  0.13627300  0.52955000  0.98051400  1
  H  300  1  0.94144800  0.00978800  0.48870200  1
  H  302  1  0.10862500  0.02363200  0.49873900  1
  H  303  1  0.05888100  0.06219500  0.47231900  1
  H  305  1  0.94714200  0.96203700  0.51244000  1
  H  306  1  0.98449500  0.95184900  0.54098800  1
  H  307  1  0.00403500  0.94886800  0.51259200  1
  H  317  1  0.94137200  0.49087200  0.50687400  1
  H  319  1  0.10842300  0.50043400  0.48270700  1
  H  320  1  0.05812000  0.47417900  0.47063000  1
  H  322  1  0.94775600  0.51452000  0.53094800  1
  H  323  1  0.98529400  0.54298400  0.51252500  1
  H  324  1  0.00482100  0.51452000  0.54384200  1
  H  334  1  0.94385300  0.50775500  0.00849900  1
  H  336  1  0.11013300  0.48210300  0.02478900  1
  H  337  1  0.05891300  0.47087900  0.06257900  1
  H  339  1  0.95160400  0.53147600  0.96086700  1
  H  340  1  0.98871800  0.51240600  0.95142800  1
  H  341  1  0.00917700  0.54365400  0.94838400  1
  H  351  1  0.44246600  0.99752200  0.51180900  1
  H  353  1  0.60819000  0.97979800  0.50283100  1
  H  354  1  0.55583300  0.94243400  0.52874000  1
  H  356  1  0.45173700  0.04506200  0.48860300  1
  H  357  1  0.48906000  0.05454300  0.46016200  1
  H  358  1  0.50971200  0.05682200  0.48876100  1
  H  368  1  0.44140300  0.51308200  0.49640200  1
  H  370  1  0.60764300  0.50426300  0.52203900  1
  H  371  1  0.55571200  0.52992400  0.53403800  1
  H  373  1  0.44994100  0.49003600  0.47185400  1
  H  374  1  0.48760200  0.46167800  0.49042200  1
  H  375  1  0.50764300  0.49042500  0.45947300  1
  H  385  1  0.44385700  0.49644400  0.99435500  1
  H  387  1  0.61002900  0.52244700  0.97837800  1
  H  388  1  0.55905800  0.53383500  0.94047500  1
  H  390  1  0.45139500  0.47244900  0.04200200  1
  H  391  1  0.48821300  0.49146500  0.05164400  1
  H  392  1  0.50896900  0.46034700  0.05450500  1
  H  402  1  0.72845100  0.29007800  0.20640300  1
  H  404  1  0.71492200  0.24688100  0.30502100  1
  H  405  1  0.71099100  0.29512600  0.27795700  1
  H  407  1  0.73241400  0.24842800  0.20656400  1
  H  408  1  0.70356500  0.22097300  0.23464300  1
  H  409  1  0.76638900  0.22441400  0.23457100  1
  H  419  1  0.72724800  0.20705400  0.51093100  1
  H  421  1  0.71469200  0.30563600  0.45465100  1
  H  422  1  0.71007700  0.27815700  0.43394900  1
  H  424  1  0.73170200  0.20773000  0.55215800  1
  H  425  1  0.70326900  0.23605700  0.55122800  1
  H  426  1  0.76605100  0.23577000  0.54777800  1
  H  436  1  0.72805800  0.51173900  0.28797700  1
  H  438  1  0.71505100  0.45647000  0.24459500  1
  H  439  1  0.71108800  0.43519200  0.29284600  1
  H  441  1  0.73192500  0.55328600  0.24636900  1
  H  442  1  0.70315100  0.55268800  0.21889200  1
  H  443  1  0.76598300  0.54939700  0.22230600  1
  H  453  1  0.23038400  0.71572800  0.79740800  1
  H  455  1  0.22000400  0.75909800  0.69865200  1
  H  456  1  0.21550900  0.71085100  0.72561800  1
  H  458  1  0.23445200  0.75737500  0.79730900  1
  H  459  1  0.20583700  0.78480300  0.76910000  1
  H  460  1  0.26870600  0.78146300  0.76946400  1
  H  470  1  0.23235000  0.79809000  0.49349900  1
  H  472  1  0.22212000  0.69918300  0.54678100  1
  H  473  1  0.21911100  0.72506300  0.56927100  1
  H  475  1  0.23522300  0.79925600  0.45130100  1
  H  476  1  0.20551700  0.77159500  0.45152600  1
  H  477  1  0.26851700  0.77157000  0.45392300  1
  H  487  1  0.22873000  0.49595800  0.71357300  1
  H  489  1  0.21734100  0.54984000  0.75851400  1
  H  490  1  0.21414400  0.57196000  0.71018000  1
  H  492  1  0.23160700  0.45395400  0.75476300  1
  H  493  1  0.20238100  0.45425500  0.78228800  1
  H  494  1  0.26532800  0.45696300  0.77945500  1
  C  1  1  0.88883100  0.07971100  0.44231000  1
  C  2  1  0.86834900  0.08559800  0.46165200  1
  C  3  1  0.82641200  0.10098800  0.45555500  1
  C  4  1  0.80358700  0.11186800  0.42969400  1
  C  5  1  0.82357200  0.10465700  0.41098300  1
  C  6  1  0.86526200  0.08890400  0.41713000  1
  C  7  1  0.75568400  0.12628400  0.42496800  1
  C  8  1  0.72342100  0.10170900  0.44202400  1
  C  9  1  0.71108800  0.08356900  0.43234900  1
  C  10  1  0.68089500  0.06108200  0.44725400  1
  C  11  1  0.66311900  0.05526100  0.47301300  1
  C  12  1  0.67913200  0.07115000  0.48434300  1
  C  13  1  0.70893700  0.09380800  0.46916500  1
  C  14  1  0.75417100  0.14804700  0.43356800  1
  C  15  1  0.74129400  0.14310200  0.39490700  1
  C  16  1  0.69420000  0.14362800  0.38551600  1
  C  17  1  0.68145100  0.16049500  0.35791700  1
  C  18  1  0.71501500  0.17807900  0.33842200  1
  C  19  1  0.76136000  0.17885900  0.34775900  1
  C  20  1  0.77392600  0.16196500  0.37535300  1
  C  21  1  0.79551800  0.16084900  0.43649600  1
  C  22  1  0.79306100  0.17916600  0.44652800  1
  C  23  1  0.74882700  0.18673200  0.45256600  1
  C  24  1  0.70712200  0.17597000  0.44757100  1
  C  25  1  0.70983100  0.15760200  0.43762700  1
  C  50  1  0.88805600  0.44435100  0.48338300  1
  C  51  1  0.86762700  0.46350300  0.45806700  1
  C  52  1  0.82584000  0.45719800  0.44883000  1
  C  53  1  0.80318900  0.43128300  0.46390600  1
  C  54  1  0.82310800  0.41277600  0.48990900  1
  C  55  1  0.86459700  0.41914600  0.49948500  1
  C  56  1  0.75548600  0.42632900  0.45420800  1
  C  57  1  0.72288600  0.44349100  0.46141500  1
  C  58  1  0.71038700  0.43405900  0.48916900  1
  C  59  1  0.67986100  0.44902700  0.49649600  1
  C  60  1  0.66189500  0.47462600  0.47635000  1
  C  61  1  0.67805300  0.48575800  0.44917500  1
  C  62  1  0.70819000  0.47050600  0.44195300  1
  C  63  1  0.75436000  0.43464200  0.42391300  1
  C  64  1  0.74121100  0.39622900  0.46768800  1
  C  65  1  0.69408000  0.38682800  0.47648700  1
  C  66  1  0.68141500  0.35918700  0.48744300  1
  C  67  1  0.71507600  0.33964300  0.48959100  1
  C  68  1  0.76144900  0.34898000  0.47950000  1
  C  69  1  0.77397000  0.37660500  0.46865100  1
  C  70  1  0.79592400  0.43755300  0.40833500  1
  C  71  1  0.79379000  0.44737300  0.38001700  1
  C  72  1  0.74969400  0.45318800  0.36630500  1
  C  73  1  0.70780500  0.44816400  0.38193600  1
  C  74  1  0.71019200  0.43843300  0.41021800  1
  C  99  1  0.88847100  0.48497500  0.07789500  1
  C  100  1  0.86797000  0.45963500  0.08417800  1
  C  101  1  0.82600400  0.45055900  0.09958700  1
  C  102  1  0.80321700  0.46583700  0.11015800  1
  C  103  1  0.82310900  0.49190600  0.10243500  1
  C  104  1  0.86482600  0.50130400  0.08665500  1
  C  105  1  0.75551600  0.45618800  0.12485300  1
  C  106  1  0.72293100  0.46311800  0.10055800  1
  C  107  1  0.71023100  0.49078600  0.08206300  1
  C  108  1  0.68002200  0.49786000  0.05969800  1
  C  109  1  0.66261700  0.47754200  0.05433600  1
  C  110  1  0.67887600  0.45043000  0.07063200  1
  C  111  1  0.70865900  0.44345800  0.09317800  1
  C  112  1  0.75443400  0.42596000  0.14702700  1
  C  113  1  0.74123200  0.46987300  0.14128000  1
  C  114  1  0.69407400  0.47861900  0.14188700  1
  C  115  1  0.68135400  0.48961400  0.15853500  1
  C  116  1  0.71497900  0.49183700  0.17590100  1
  C  117  1  0.76143500  0.48189100  0.17657400  1
  C  118  1  0.77400100  0.47100000  0.15984100  1
  C  119  1  0.79601700  0.41048000  0.15978900  1
  C  120  1  0.79394200  0.38219700  0.17844300  1
  C  121  1  0.74988100  0.36843300  0.18637700  1
  C  122  1  0.70795700  0.38398700  0.17568800  1
  C  123  1  0.71028800  0.41223300  0.15698300  1
  C  148  1  0.38582000  0.92783100  0.55828300  1
  C  149  1  0.36496800  0.92130400  0.53949500  1
  C  150  1  0.32369100  0.90527600  0.54642500  1
  C  151  1  0.30200700  0.89432300  0.57262100  1
  C  152  1  0.32210500  0.90234700  0.59068100  1
  C  153  1  0.36311200  0.91876600  0.58369100  1
  C  154  1  0.25515400  0.87870100  0.57836800  1
  C  155  1  0.22115600  0.90230600  0.56119100  1
  C  156  1  0.20803500  0.92091300  0.57015500  1
  C  157  1  0.17695600  0.94284500  0.55496300  1
  C  158  1  0.15897700  0.94764700  0.52958500  1
  C  159  1  0.17532400  0.93117300  0.51898800  1
  C  160  1  0.20598700  0.90905100  0.53447000  1
  C  161  1  0.25543500  0.85630500  0.57061100  1
  C  162  1  0.24179800  0.86231000  0.60862900  1
  C  163  1  0.19475700  0.86113200  0.61838600  1
  C  164  1  0.18290900  0.84450500  0.64616200  1
  C  165  1  0.21732300  0.82770700  0.66552100  1
  C  166  1  0.26375300  0.82763300  0.65587800  1
  C  167  1  0.27544800  0.84435100  0.62811000  1
  C  168  1  0.29779300  0.84441700  0.56743700  1
  C  169  1  0.29688000  0.82577300  0.55777700  1
  C  170  1  0.25333400  0.81691100  0.55245900  1
  C  171  1  0.21076900  0.82654800  0.55799300  1
  C  172  1  0.21194300  0.84531300  0.56749100  1
  C  197  1  0.38598000  0.55985600  0.51970500  1
  C  198  1  0.36512500  0.54125400  0.54510500  1
  C  199  1  0.32381600  0.54830800  0.55407400  1
  C  200  1  0.30207500  0.57445000  0.53860100  1
  C  201  1  0.32229700  0.59235500  0.51250000  1
  C  202  1  0.36333300  0.58524400  0.50321000  1
  C  203  1  0.25489800  0.58022500  0.54815400  1
  C  204  1  0.22130500  0.56295300  0.54162600  1
  C  205  1  0.20864600  0.57181600  0.51401400  1
  C  206  1  0.17776300  0.55658500  0.50721800  1
  C  207  1  0.15961700  0.53123700  0.52778200  1
  C  208  1  0.17563700  0.52069900  0.55489600  1
  C  209  1  0.20608300  0.53623100  0.56159100  1
  C  210  1  0.25439700  0.57261100  0.57826500  1
  C  211  1  0.24157800  0.61049600  0.53408400  1
  C  212  1  0.19467900  0.62025600  0.52513000  1
  C  213  1  0.18291900  0.64808500  0.51361500  1
  C  214  1  0.21724500  0.66750800  0.51103300  1
  C  215  1  0.26344000  0.65782400  0.52123100  1
  C  216  1  0.27510300  0.63001800  0.53259500  1
  C  217  1  0.29633900  0.56953900  0.59359800  1
  C  218  1  0.29470300  0.56002700  0.62186500  1
  C  219  1  0.25081300  0.55473000  0.63573400  1
  C  220  1  0.20863900  0.56011400  0.62027700  1
  C  221  1  0.21052400  0.56956100  0.59203400  1
  C  246  1  0.38871100  0.51986500  0.92488900  1
  C  247  1  0.36807300  0.54502600  0.91909100  1
  C  248  1  0.32613100  0.55427600  0.90371200  1
  C  249  1  0.30345100  0.53932700  0.89274500  1
  C  250  1  0.32345300  0.51340600  0.89998700  1
  C  251  1  0.36513900  0.50383200  0.91574800  1
  C  252  1  0.25584400  0.54920500  0.87800400  1
  C  253  1  0.22314000  0.54209500  0.90231500  1
  C  254  1  0.21063400  0.51435500  0.92069200  1
  C  255  1  0.18038400  0.50706200  0.94310000  1
  C  256  1  0.16272200  0.52722000  0.94863000  1
  C  257  1  0.17873700  0.55440300  0.93243000  1
  C  258  1  0.20860000  0.56159400  0.90985200  1
  C  259  1  0.25512600  0.57952500  0.85606400  1
  C  260  1  0.24147800  0.53582600  0.86130500  1
  C  261  1  0.19436600  0.52698400  0.86076000  1
  C  262  1  0.18167500  0.51608200  0.84403100  1
  C  263  1  0.21529200  0.51397400  0.82657800  1
  C  264  1  0.26164000  0.52410600  0.82579200  1
  C  265  1  0.27419300  0.53491000  0.84259800  1
  C  266  1  0.29691500  0.59495800  0.84360300  1
  C  267  1  0.29517300  0.62331500  0.82525400  1
  C  268  1  0.25126100  0.63722000  0.81729600  1
  C  269  1  0.20914400  0.62174300  0.82760300  1
  C  270  1  0.21114600  0.59341900  0.84603900  1
  C  295  1  0.99563400  0.03948100  0.47751100  1
  C  296  1  0.97705700  0.01255600  0.49023100  1
  C  297  1  0.00577400  0.98933100  0.50625000  1
  C  298  1  0.05482800  0.99339600  0.50932900  1
  C  299  1  0.07357400  0.02026200  0.49641600  1
  C  301  1  0.04426700  0.04301400  0.48099200  1
  C  304  1  0.98404500  0.96153700  0.51871700  1
  C  308  1  0.96529500  0.06250200  0.46353800  1
  C  309  1  0.08612300  0.97151500  0.52539800  1
  C  312  1  0.99514500  0.47955100  0.48824900  1
  C  313  1  0.97694700  0.49230800  0.50250200  1
  C  314  1  0.00601500  0.50821600  0.50969200  1
  C  315  1  0.05503000  0.51116400  0.50245700  1
  C  316  1  0.07340400  0.49820900  0.48846200  1
  C  318  1  0.04376200  0.48288400  0.48117000  1
  C  321  1  0.98467800  0.52071100  0.52509000  1
  C  325  1  0.96448300  0.46568000  0.47923200  1
  C  326  1  0.08663200  0.52717000  0.50819100  1
  C  329  1  0.99669000  0.48888900  0.03897300  1
  C  330  1  0.97928300  0.50307400  0.01179300  1
  C  331  1  0.00890600  0.50977600  0.98900800  1
  C  332  1  0.05769000  0.50207500  0.99378700  1
  C  333  1  0.07530600  0.48818700  0.02090000  1
  C  335  1  0.04510600  0.48138600  0.04320200  1
  C  338  1  0.98835400  0.52516700  0.96092000  1
  C  342  1  0.96542100  0.48031200  0.06156700  1
  C  343  1  0.08982500  0.50737600  0.97237200  1
  C  346  1  0.49433300  0.96657000  0.52320000  1
  C  347  1  0.47778000  0.99391300  0.51049800  1
  C  348  1  0.50811600  0.01646000  0.49482000  1
  C  349  1  0.55674000  0.01126800  0.49200900  1
  C  350  1  0.57348800  0.98398100  0.50493100  1
  C  352  1  0.54260800  0.96193300  0.52005200  1
  C  355  1  0.48845900  0.04473700  0.48243800  1
  C  359  1  0.46242200  0.94424600  0.53687700  1
  C  360  1  0.58953900  0.03242700  0.47627700  1
  C  363  1  0.49378900  0.52441800  0.51573800  1
  C  364  1  0.47682700  0.51182300  0.50107500  1
  C  365  1  0.50688900  0.49626900  0.49391100  1
  C  366  1  0.55567600  0.49353000  0.50157700  1
  C  367  1  0.57282300  0.50633800  0.51597300  1
  C  369  1  0.54219600  0.52130200  0.52323000  1
  C  372  1  0.48680900  0.48395500  0.47805100  1
  C  376  1  0.46217700  0.53802700  0.52461100  1
  C  377  1  0.58822700  0.47790500  0.49586300  1
  C  380  1  0.49680400  0.51556800  0.96396800  1
  C  381  1  0.47928800  0.50115800  0.99112600  1
  C  382  1  0.50874900  0.49438500  0.01397500  1
  C  383  1  0.55749700  0.50219400  0.00929300  1
  C  384  1  0.57523000  0.51628400  0.98219900  1
  C  386  1  0.54518300  0.52316600  0.95983300  1
  C  389  1  0.48807800  0.47881300  0.04203100  1
  C  393  1  0.46564000  0.52430800  0.94132200  1
  C  394  1  0.58944300  0.49688600  0.03077200  1
  C  397  1  0.71971200  0.29709600  0.23957000  1
  C  398  1  0.72589100  0.28070800  0.22729100  1
  C  399  1  0.72767900  0.25172400  0.24304500  1
  C  400  1  0.72294400  0.23886000  0.27203200  1
  C  401  1  0.71684700  0.25540600  0.28418100  1
  C  403  1  0.71471200  0.28398600  0.26824600  1
  C  406  1  0.73279900  0.23557500  0.22885200  1
  C  410  1  0.71818700  0.32611400  0.22369200  1
  C  411  1  0.72710100  0.21010000  0.28984100  1
  C  414  1  0.71851400  0.23995300  0.47060800  1
  C  415  1  0.72484500  0.22793300  0.49923800  1
  C  416  1  0.72706100  0.24394500  0.51218300  1
  C  417  1  0.72261000  0.27292400  0.49580600  1
  C  418  1  0.71639900  0.28481400  0.46714600  1
  C  420  1  0.71381700  0.26863000  0.45478600  1
  C  423  1  0.73231400  0.23003600  0.54250000  1
  C  427  1  0.71671000  0.22383500  0.45773000  1
  C  428  1  0.72714800  0.29098600  0.50643500  1
  C  431  1  0.71952700  0.47157300  0.29490700  1
  C  432  1  0.72558600  0.50025600  0.27856600  1
  C  433  1  0.72739400  0.51354200  0.24957800  1
  C  434  1  0.72279700  0.49746600  0.23665800  1
  C  435  1  0.71685700  0.46875400  0.25315800  1
  C  437  1  0.71467700  0.45605200  0.28174300  1
  C  440  1  0.73239300  0.54389300  0.23348000  1
  C  444  1  0.71796800  0.45837900  0.32393200  1
  C  445  1  0.72696500  0.50847100  0.20788800  1
  C  448  1  0.22277400  0.70879900  0.76412000  1
  C  449  1  0.22849900  0.72513100  0.77649500  1
  C  450  1  0.23064000  0.75411100  0.76079100  1
  C  451  1  0.22674200  0.76701300  0.73177000  1
  C  452  1  0.22134500  0.75052300  0.71951200  1
  C  454  1  0.21880200  0.72195100  0.73539300  1
  C  457  1  0.23515900  0.77024500  0.77502700  1
  C  461  1  0.22065100  0.67979000  0.77993300  1
  C  462  1  0.23069700  0.79579300  0.71402500  1
  C  465  1  0.22577200  0.76408300  0.53339200  1
  C  466  1  0.23060400  0.77715000  0.50457400  1
  C  467  1  0.23186700  0.76210700  0.49059500  1
  C  468  1  0.22793400  0.73305500  0.50609900  1
  C  469  1  0.22349200  0.72009100  0.53495600  1
  C  471  1  0.22188500  0.73532400  0.54835800  1
  C  474  1  0.23548600  0.77703400  0.46016600  1
  C  478  1  0.22406500  0.77927000  0.54725300  1
  C  479  1  0.23077800  0.71600300  0.49422300  1
  C  482  1  0.22146900  0.53593000  0.70737000  1
  C  483  1  0.22663600  0.50715200  0.72330500  1
  C  484  1  0.22798300  0.49337900  0.75231900  1
  C  485  1  0.22379800  0.50905200  0.76568600  1
  C  486  1  0.21883800  0.53786800  0.74959700  1
  C  488  1  0.21710200  0.55105700  0.72097300  1
  C  491  1  0.23205500  0.46297000  0.76798600  1
  C  495  1  0.22014300  0.54959600  0.67832200  1
  C  496  1  0.22736500  0.49744500  0.79456600  1
  N  42  1  0.74752500  0.20278100  0.46445500  1
  N  44  1  0.69961200  0.19717200  0.31276200  1
  N  46  1  0.92655600  0.06224300  0.44920600  1
  N  48  1  0.63159200  0.03447600  0.48706400  1
  N  91  1  0.74868900  0.46501300  0.33836900  1
  N  93  1  0.69971100  0.31392500  0.49632200  1
  N  95  1  0.92568000  0.45143800  0.49385700  1
  N  97  1  0.63018400  0.48873500  0.48289400  1
  N  140  1  0.74894600  0.34051200  0.20261600  1
  N  142  1  0.69953500  0.49847900  0.19494600  1
  N  144  1  0.92655200  0.49515300  0.06062500  1
  N  146  1  0.63151700  0.48384700  0.03346800  1
  N  189  1  0.25339400  0.80094800  0.54047200  1
  N  191  1  0.20260500  0.80855600  0.69135000  1
  N  193  1  0.42366300  0.94529900  0.55080000  1
  N  195  1  0.12775300  0.96841200  0.51494100  1
  N  238  1  0.25021500  0.54287200  0.66367700  1
  N  240  1  0.20247000  0.69343000  0.50396300  1
  N  242  1  0.42353500  0.55216800  0.50970400  1
  N  244  1  0.12832900  0.51665100  0.52162300  1
  N  287  1  0.25063100  0.66517100  0.80134700  1
  N  289  1  0.19977400  0.50732200  0.80755100  1
  N  291  1  0.42681700  0.50951600  0.94209000  1
  N  293  1  0.13161400  0.52071800  0.96955400  1
  O  310  1  0.97409700  0.08466300  0.46626700  1
  O  311  1  0.07363100  0.95412200  0.55176000  1
  O  327  1  0.97328400  0.46821200  0.45442100  1
  O  328  1  0.07436400  0.55355500  0.49925300  1
  O  344  1  0.97355300  0.45559000  0.08409800  1
  O  345  1  0.07744700  0.49869100  0.95474000  1
  O  361  1  0.47021700  0.92170500  0.53464600  1
  O  362  1  0.57761300  0.05054300  0.45001400  1
  O  378  1  0.47035200  0.53570300  0.54938900  1
  O  379  1  0.57639300  0.45159700  0.50413800  1
  O  395  1  0.47369800  0.54918900  0.91898400  1
  O  396  1  0.57679100  0.50547200  0.04844700  1
  O  412  1  0.68959100  0.33953700  0.23246300  1
  O  413  1  0.76778000  0.19816600  0.28815900  1
  O  429  1  0.68811300  0.23252300  0.43555600  1
  O  430  1  0.76793000  0.28937800  0.51992900  1
  O  446  1  0.68952700  0.43610700  0.33730900  1
  O  447  1  0.76759600  0.52215500  0.19594500  1
  O  463  1  0.19227800  0.66657100  0.77083400  1
  O  464  1  0.27123800  0.80788400  0.71560700  1
  O  480  1  0.19631100  0.76955600  0.56988600  1
  O  481  1  0.27168900  0.71743400  0.48089600  1
  O  497  1  0.19220400  0.57211100  0.66516200  1
  O  498  1  0.26818000  0.48390700  0.80630900  1
