# generated using pymatgen
data_Co3H26C40(N5O4)2
_symmetry_space_group_name_H-M   'P 1'
_cell_length_a   11.44820000
_cell_length_b   11.54080000
_cell_length_c   11.76630000
_cell_angle_alpha   65.37000000
_cell_angle_beta   80.54000000
_cell_angle_gamma   72.75900000
_symmetry_Int_Tables_number   1
_chemical_formula_structural   Co3H26C40(N5O4)2
_chemical_formula_sum   'Co3 H26 C40 N10 O8'
_cell_volume   1348.14993413
_cell_formula_units_Z   1
loop_
 _symmetry_equiv_pos_site_id
 _symmetry_equiv_pos_as_xyz
  1  'x, y, z'
loop_
 _atom_site_type_symbol
 _atom_site_label
 _atom_site_symmetry_multiplicity
 _atom_site_fract_x
 _atom_site_fract_y
 _atom_site_fract_z
 _atom_site_occupancy
  Co  Co1  1  0.50000000  0.00000000  0.50000000  1.0
  Co  Co2  1  0.50000000  0.50000000  0.00000000  1.0
  Co  Co3  1  0.50000000  0.50000000  0.50000000  1.0
  H  H1  1  0.54500000  0.16180000  0.17790000  1.0
  H  H2  1  0.70160000  0.87430000  0.70390000  1.0
  H  H3  1  0.90960000  0.77990000  0.72010000  1.0
  H  H4  1  0.94570000  0.94180000  0.34130000  1.0
  H  H5  1  0.73690000  0.03000000  0.33770000  1.0
  H  H6  1  0.07670000  0.61860000  0.70380000  1.0
  H  H7  1  0.27830000  0.50320000  0.69300000  1.0
  H  H8  1  0.33970000  0.77700000  0.36920000  1.0
  H  H9  1  0.14100000  0.90310000  0.37100000  1.0
  H  H10  1  0.65760000  0.68460000  0.97760000  1.0
  H  H11  1  0.85690000  0.69190000  0.97420000  1.0
  H  H12  1  0.96190000  0.30610000  0.03770000  1.0
  H  H13  1  0.75880000  0.30860000  0.04330000  1.0
  H  H14  1  0.45500000  0.83820000  0.82210000  1.0
  H  H15  1  0.29840000  0.12570000  0.29610000  1.0
  H  H16  1  0.09040000  0.22010000  0.27990000  1.0
  H  H17  1  0.05430000  0.05820000  0.65870000  1.0
  H  H18  1  0.26310000  0.97000000  0.66230000  1.0
  H  H19  1  0.92330000  0.38140000  0.29620000  1.0
  H  H20  1  0.72170000  0.49680000  0.30700000  1.0
  H  H21  1  0.66030000  0.22300000  0.63080000  1.0
  H  H22  1  0.85900000  0.09690000  0.62900000  1.0
  H  H23  1  0.34240000  0.31540000  0.02240000  1.0
  H  H24  1  0.14310000  0.30810000  0.02580000  1.0
  H  H25  1  0.03810000  0.69390000  0.96230000  1.0
  H  H26  1  0.24120000  0.69140000  0.95670000  1.0
  C  C1  1  0.52420000  0.21640000  0.22410000  1.0
  C  C2  1  0.47780000  0.27870000  0.37810000  1.0
  C  C3  1  0.48100000  0.38780000  0.26840000  1.0
  C  C4  1  0.44700000  0.25660000  0.51160000  1.0
  C  C5  1  0.46150000  0.53160000  0.23460000  1.0
  C  C6  1  0.75190000  0.88590000  0.62920000  1.0
  C  C7  1  0.87620000  0.82880000  0.63990000  1.0
  C  C8  1  0.95210000  0.84380000  0.53180000  1.0
  C  C9  1  0.89730000  0.92380000  0.41750000  1.0
  C  C10  1  0.77260000  0.97640000  0.41630000  1.0
  C  C11  1  0.08380000  0.77410000  0.53530000  1.0
  C  C12  1  0.12860000  0.65300000  0.63320000  1.0
  C  C13  1  0.24900000  0.58450000  0.62560000  1.0
  C  C14  1  0.28500000  0.74410000  0.43740000  1.0
  C  C15  1  0.16610000  0.81990000  0.43760000  1.0
  C  C16  1  0.72070000  0.60610000  0.98960000  1.0
  C  C17  1  0.83990000  0.61160000  0.98670000  1.0
  C  C18  1  0.93440000  0.50000000  0.00220000  1.0
  C  C19  1  0.90070000  0.38630000  0.02430000  1.0
  C  C20  1  0.77920000  0.38830000  0.02710000  1.0
  C  C21  1  0.47580000  0.78360000  0.77590000  1.0
  C  C22  1  0.52220000  0.72130000  0.62190000  1.0
  C  C23  1  0.51900000  0.61220000  0.73160000  1.0
  C  C24  1  0.55300000  0.74340000  0.48840000  1.0
  C  C25  1  0.53850000  0.46840000  0.76540000  1.0
  C  C26  1  0.24810000  0.11410000  0.37080000  1.0
  C  C27  1  0.12380000  0.17120000  0.36010000  1.0
  C  C28  1  0.04790000  0.15620000  0.46820000  1.0
  C  C29  1  0.10270000  0.07620000  0.58250000  1.0
  C  C30  1  0.22740000  0.02360000  0.58370000  1.0
  C  C31  1  0.91620000  0.22590000  0.46470000  1.0
  C  C32  1  0.87140000  0.34700000  0.36680000  1.0
  C  C33  1  0.75100000  0.41550000  0.37440000  1.0
  C  C34  1  0.71500000  0.25590000  0.56260000  1.0
  C  C35  1  0.83390000  0.18010000  0.56240000  1.0
  C  C36  1  0.27930000  0.39390000  0.01040000  1.0
  C  C37  1  0.16010000  0.38840000  0.01330000  1.0
  C  C38  1  0.06560000  0.50000000  0.99780000  1.0
  C  C39  1  0.09930000  0.61370000  0.97570000  1.0
  C  C40  1  0.22080000  0.61170000  0.97290000  1.0
  N  N1  1  0.50580000  0.17070000  0.34800000  1.0
  N  N2  1  0.51040000  0.34660000  0.17130000  1.0
  N  N3  1  0.69840000  0.95630000  0.51990000  1.0
  N  N4  1  0.32660000  0.62620000  0.52890000  1.0
  N  N5  1  0.68890000  0.49850000  0.00780000  1.0
  N  N6  1  0.49420000  0.82930000  0.65200000  1.0
  N  N7  1  0.48960000  0.65340000  0.82870000  1.0
  N  N8  1  0.30160000  0.04370000  0.48010000  1.0
  N  N9  1  0.67340000  0.37380000  0.47110000  1.0
  N  N10  1  0.31110000  0.50150000  0.99220000  1.0
  O  O1  1  0.41490000  0.35050000  0.54690000  1.0
  O  O2  1  0.45260000  0.13780000  0.58590000  1.0
  O  O3  1  0.45720000  0.57760000  0.31440000  1.0
  O  O4  1  0.45150000  0.60350000  0.11880000  1.0
  O  O5  1  0.58510000  0.64950000  0.45310000  1.0
  O  O6  1  0.54740000  0.86220000  0.41410000  1.0
  O  O7  1  0.54280000  0.42240000  0.68560000  1.0
  O  O8  1  0.54850000  0.39650000  0.88120000  1.0
