# generated using pymatgen
data_Mg3CuH9C21N3O13
_symmetry_space_group_name_H-M   'P 1'
_cell_length_a   13.10376213
_cell_length_b   13.17441000
_cell_length_c   14.83562000
_cell_angle_alpha   90.00000000
_cell_angle_beta   90.00000000
_cell_angle_gamma   119.82301967
_symmetry_Int_Tables_number   1
_chemical_formula_structural   Mg3CuH9C21N3O13
_chemical_formula_sum   'Mg6 Cu2 H18 C42 N6 O26'
_cell_volume   2221.95499126
_cell_formula_units_Z   2
loop_
 _symmetry_equiv_pos_site_id
 _symmetry_equiv_pos_as_xyz
  1  'x, y, z'
loop_
 _atom_site_type_symbol
 _atom_site_label
 _atom_site_symmetry_multiplicity
 _atom_site_fract_x
 _atom_site_fract_y
 _atom_site_fract_z
 _atom_site_occupancy
  Mg  Mg0  1  0.82322000  0.36159000  0.75000000  1
  Mg  Mg1  1  0.63755000  0.46026000  0.75000000  1
  Mg  Mg2  1  0.53939000  0.17731000  0.75000000  1
  Mg  Mg3  1  0.36208000  0.82269000  0.25000000  1
  Mg  Mg4  1  0.46163000  0.63841000  0.25000000  1
  Mg  Mg5  1  0.17728000  0.53973000  0.25000000  1
  Cu  Cu6  1  0.00248000  1.00000000  0.50000000  1
  Cu  Cu7  1  0.00248000  1.00000000  0.00000000  1
  H  H8  1  0.86485000  0.77250000  0.59744000  1
  H  H9  1  0.22443000  0.09476000  0.59815000  1
  H  H10  1  0.90836000  0.13252000  0.59711000  1
  H  H11  1  0.86485000  0.77250000  0.90256000  1
  H  H12  1  0.22443000  0.09476000  0.90185000  1
  H  H13  1  0.90836000  0.13252000  0.90289000  1
  H  H14  1  0.77584000  0.86749000  0.40288000  1
  H  H15  1  0.09235000  0.22751000  0.40256000  1
  H  H16  1  0.12968000  0.90525000  0.40185000  1
  H  H17  1  0.77584000  0.86749000  0.09711000  1
  H  H18  1  0.09235000  0.22751000  0.09744000  1
  H  H19  1  0.12968000  0.90525000  0.09815000  1
  H  H20  1  0.00065000  0.55525000  0.50028000  1
  H  H21  1  0.44540000  0.44475000  0.49971000  1
  H  H22  1  0.55518000  1.00000000  0.50000000  1
  H  H23  1  0.00065000  0.55525000  0.99972000  1
  H  H24  1  0.44540000  0.44475000  0.00028000  1
  H  H25  1  0.55518000  1.00000000  1.00000000  1
  C  C26  1  0.92497000  0.75950000  0.55489000  1
  C  C27  1  0.92649000  0.65446000  0.55909000  1
  C  C28  1  0.85002000  0.56267000  0.62732000  1
  C  C29  1  0.23801000  0.16749000  0.55535000  1
  C  C30  1  0.34444000  0.27252000  0.55894000  1
  C  C31  1  0.43622000  0.28683000  0.62727000  1
  C  C32  1  0.83519000  0.07283000  0.55475000  1
  C  C33  1  0.72871000  0.07266000  0.55883000  1
  C  C34  1  0.71361000  0.14944000  0.62720000  1
  C  C35  1  0.92497000  0.75950000  0.94510000  1
  C  C36  1  0.92649000  0.65446000  0.94091000  1
  C  C37  1  0.85002000  0.56267000  0.87268000  1
  C  C38  1  0.23801000  0.16749000  0.94465000  1
  C  C39  1  0.34444000  0.27252000  0.94105000  1
  C  C40  1  0.43622000  0.28683000  0.87273000  1
  C  C41  1  0.83519000  0.07283000  0.94525000  1
  C  C42  1  0.72871000  0.07266000  0.94116000  1
  C  C43  1  0.71361000  0.14944000  0.87280000  1
  C  C44  1  0.76236000  0.92718000  0.44525000  1
  C  C45  1  0.65605000  0.92734000  0.44116000  1
  C  C46  1  0.56417000  0.85056000  0.37280000  1
  C  C47  1  0.16546000  0.24050000  0.44510000  1
  C  C48  1  0.27203000  0.34554000  0.44091000  1
  C  C49  1  0.28735000  0.43733000  0.37267000  1
  C  C50  1  0.07052000  0.83251000  0.44465000  1
  C  C51  1  0.07192000  0.72748000  0.44105000  1
  C  C52  1  0.14939000  0.71317000  0.37273000  1
  C  C53  1  0.76236000  0.92718000  0.05474000  1
  C  C54  1  0.65605000  0.92734000  0.05883000  1
  C  C55  1  0.56417000  0.85056000  0.12719000  1
  C  C56  1  0.16546000  0.24050000  0.05489000  1
  C  C57  1  0.27203000  0.34554000  0.05909000  1
  C  C58  1  0.28735000  0.43733000  0.12732000  1
  C  C59  1  0.07052000  0.83251000  0.05534000  1
  C  C60  1  0.07192000  0.72748000  0.05894000  1
  C  C61  1  0.14939000  0.71317000  0.12727000  1
  C  C62  1  0.99982000  0.63746000  0.50015000  1
  C  C63  1  0.36236000  0.36254000  0.49984000  1
  C  C64  1  0.63828000  1.00000000  0.50000000  1
  C  C65  1  0.99982000  0.63746000  0.99985000  1
  C  C66  1  0.36236000  0.36254000  0.00015000  1
  C  C67  1  0.63828000  1.00000000  0.00000000  1
  N  N68  1  0.99694000  0.84837000  0.49961000  1
  N  N69  1  0.14856000  0.15163000  0.50039000  1
  N  N70  1  0.85174000  1.00000000  0.50000000  1
  N  N71  1  0.99694000  0.84837000  0.00039000  1
  N  N72  1  0.14856000  0.15163000  0.99961000  1
  N  N73  1  0.85174000  1.00000000  1.00000000  1
  O  O74  1  0.88417000  0.49137000  0.65012000  1
  O  O75  1  0.76128000  0.56849000  0.65497000  1
  O  O76  1  0.50766000  0.39166000  0.65026000  1
  O  O77  1  0.43013000  0.19265000  0.65485000  1
  O  O78  1  0.60813000  0.11580000  0.65018000  1
  O  O79  1  0.80794000  0.23750000  0.65481000  1
  O  O80  1  0.88417000  0.49137000  0.84988000  1
  O  O81  1  0.76128000  0.56849000  0.84503000  1
  O  O82  1  0.50766000  0.39166000  0.84974000  1
  O  O83  1  0.43013000  0.19265000  0.84515000  1
  O  O84  1  0.60813000  0.11580000  0.84982000  1
  O  O85  1  0.80794000  0.23750000  0.84519000  1
  O  O86  1  0.49233000  0.88420000  0.34982000  1
  O  O87  1  0.57044000  0.76250000  0.34519000  1
  O  O88  1  0.39280000  0.50863000  0.34987000  1
  O  O89  1  0.19279000  0.43151000  0.34503000  1
  O  O90  1  0.11600000  0.60834000  0.34974000  1
  O  O91  1  0.23748000  0.80735000  0.34515000  1
  O  O92  1  0.49233000  0.88420000  0.15018000  1
  O  O93  1  0.57044000  0.76250000  0.15481000  1
  O  O94  1  0.39280000  0.50863000  0.15012000  1
  O  O95  1  0.19279000  0.43151000  0.15497000  1
  O  O96  1  0.11600000  0.60834000  0.15026000  1
  O  O97  1  0.23748000  0.80735000  0.15484000  1
  O  O98  1  0.66659000  0.33307000  0.75000000  1
  O  O99  1  0.33352000  0.66693000  0.25000000  1
