# generated using pymatgen
data_CaH4(C2O)4
_symmetry_space_group_name_H-M   'P 1'
_cell_length_a   10.11200000
_cell_length_b   13.75280000
_cell_length_c   15.04340000
_cell_angle_alpha   77.55800000
_cell_angle_beta   70.36080000
_cell_angle_gamma   68.43010000
_symmetry_Int_Tables_number   1
_chemical_formula_structural   CaH4(C2O)4
_chemical_formula_sum   'Ca6 H24 C48 O24'
_cell_volume   1822.26341642
_cell_formula_units_Z   6
loop_
 _symmetry_equiv_pos_site_id
 _symmetry_equiv_pos_as_xyz
  1  'x, y, z'
loop_
 _atom_site_type_symbol
 _atom_site_label
 _atom_site_symmetry_multiplicity
 _atom_site_fract_x
 _atom_site_fract_y
 _atom_site_fract_z
 _atom_site_occupancy
  Ca  Ca1  1  0.49077000  0.52717000  0.11977000  1.0
  Ca  Ca2  1  0.50923000  0.47283000  0.88023000  1.0
  Ca  Ca3  1  0.13771000  0.97283000  0.38023000  1.0
  Ca  Ca4  1  0.21517000  0.75000000  0.25000000  1.0
  Ca  Ca5  1  0.86229000  0.02717000  0.61977000  1.0
  Ca  Ca6  1  0.78483000  0.25000000  0.75000000  1.0
  H  H1  1  0.58430000  0.35410000  0.41930000  1.0
  H  H2  1  0.50390000  0.83420000  0.07600000  1.0
  H  H3  1  0.82750000  0.17170000  0.24870000  1.0
  H  H4  1  0.41570000  0.64590000  0.58070000  1.0
  H  H5  1  0.24790000  0.32830000  0.25130000  1.0
  H  H6  1  0.83870000  0.80390000  0.65510000  1.0
  H  H7  1  0.22780000  0.90490000  0.01810000  1.0
  H  H8  1  0.15080000  0.59510000  0.48190000  1.0
  H  H9  1  0.17250000  0.82830000  0.75130000  1.0
  H  H10  1  0.64230000  0.85410000  0.91930000  1.0
  H  H11  1  0.35770000  0.14590000  0.08070000  1.0
  H  H12  1  0.75210000  0.67170000  0.74870000  1.0
  H  H13  1  0.11400000  0.03830000  0.91890000  1.0
  H  H14  1  0.92880000  0.53830000  0.41890000  1.0
  H  H15  1  0.77220000  0.09510000  0.98190000  1.0
  H  H16  1  0.88600000  0.96170000  0.08110000  1.0
  H  H17  1  0.58590000  0.33420000  0.57600000  1.0
  H  H18  1  0.70230000  0.30390000  0.15510000  1.0
  H  H19  1  0.49610000  0.16580000  0.92400000  1.0
  H  H20  1  0.29770000  0.69610000  0.84490000  1.0
  H  H21  1  0.07120000  0.46170000  0.58110000  1.0
  H  H22  1  0.84920000  0.40490000  0.51810000  1.0
  H  H23  1  0.41410000  0.66580000  0.42400000  1.0
  H  H24  1  0.16130000  0.19610000  0.34490000  1.0
  C  C1  1  0.07161000  0.61069000  0.53629000  1.0
  C  C2  1  0.09838000  0.44704000  0.32540000  1.0
  C  C3  1  0.87082000  0.05296000  0.17460000  1.0
  C  C4  1  0.65355000  0.30082000  0.99448000  1.0
  C  C5  1  0.81510000  0.15584000  0.19556000  1.0
  C  C6  1  0.97766000  0.46907000  0.40481000  1.0
  C  C7  1  0.92839000  0.38931000  0.46371000  1.0
  C  C8  1  0.02234000  0.53093000  0.59519000  1.0
  C  C9  1  0.44975000  0.58692000  0.54838000  1.0
  C  C10  1  0.32529000  0.97655000  0.19467000  1.0
  C  C11  1  0.04505000  0.03225000  0.76425000  1.0
  C  C12  1  0.85154000  0.03093000  0.09519000  1.0
  C  C13  1  0.50349000  0.47655000  0.69467000  1.0
  C  C14  1  0.83350000  0.65584000  0.69556000  1.0
  C  C15  1  0.05115000  0.80082000  0.49448000  1.0
  C  C16  1  0.58505000  0.91308000  0.95162000  1.0
  C  C17  1  0.49651000  0.52345000  0.30533000  1.0
  C  C18  1  0.94885000  0.19918000  0.50552000  1.0
  C  C19  1  0.16650000  0.34416000  0.30444000  1.0
  C  C20  1  0.18490000  0.84416000  0.80444000  1.0
  C  C21  1  0.99666000  0.28672000  0.44176000  1.0
  C  C22  1  0.84155000  0.46775000  0.73575000  1.0
  C  C23  1  0.15845000  0.53225000  0.26425000  1.0
  C  C24  1  0.34645000  0.69918000  0.00552000  1.0
  C  C25  1  0.11563000  0.26479000  0.36095000  1.0
  C  C26  1  0.12918000  0.94704000  0.82540000  1.0
  C  C27  1  0.95495000  0.96775000  0.23575000  1.0
  C  C28  1  0.67471000  0.02345000  0.80533000  1.0
  C  C29  1  0.50196000  0.90111000  0.04577000  1.0
  C  C30  1  0.41495000  0.08692000  0.04838000  1.0
  C  C31  1  0.21859000  0.88931000  0.96371000  1.0
  C  C32  1  0.25863000  0.76479000  0.86095000  1.0
  C  C33  1  0.49804000  0.09889000  0.95423000  1.0
  C  C34  1  0.00334000  0.71328000  0.55824000  1.0
  C  C35  1  0.55116000  0.40111000  0.54577000  1.0
  C  C36  1  0.44884000  0.59889000  0.45423000  1.0
  C  C37  1  0.58300000  0.01221000  0.90599000  1.0
  C  C38  1  0.88437000  0.73521000  0.63905000  1.0
  C  C39  1  0.72514000  0.21328000  0.05824000  1.0
  C  C40  1  0.41700000  0.98779000  0.09401000  1.0
  C  C41  1  0.90162000  0.55296000  0.67460000  1.0
  C  C42  1  0.74137000  0.23521000  0.13905000  1.0
  C  C43  1  0.49880000  0.51221000  0.40599000  1.0
  C  C44  1  0.14846000  0.96907000  0.90481000  1.0
  C  C45  1  0.78141000  0.11069000  0.03629000  1.0
  C  C46  1  0.50120000  0.48779000  0.59401000  1.0
  C  C47  1  0.27486000  0.78672000  0.94176000  1.0
  C  C48  1  0.55025000  0.41308000  0.45162000  1.0
  O  O1  1  0.43883000  0.55639000  0.73975000  1.0
  O  O2  1  0.42976000  0.61288000  0.26782000  1.0
  O  O3  1  0.73497000  0.94361000  0.76025000  1.0
  O  O4  1  0.56117000  0.44361000  0.26025000  1.0
  O  O5  1  0.26503000  0.05639000  0.23975000  1.0
  O  O6  1  0.58349000  0.39025000  0.02437000  1.0
  O  O7  1  0.89905000  0.37768000  0.70962000  1.0
  O  O8  1  0.96250000  0.99382000  0.30838000  1.0
  O  O9  1  0.73530000  0.49382000  0.80838000  1.0
  O  O10  1  0.41651000  0.60975000  0.97563000  1.0
  O  O11  1  0.86101000  0.21427000  0.58749000  1.0
  O  O12  1  0.33723000  0.71427000  0.08749000  1.0
  O  O13  1  0.00189000  0.89025000  0.52437000  1.0
  O  O14  1  0.03750000  0.00618000  0.69162000  1.0
  O  O15  1  0.26470000  0.50618000  0.19162000  1.0
  O  O16  1  0.10095000  0.62232000  0.29038000  1.0
  O  O17  1  0.31046000  0.88712000  0.23218000  1.0
  O  O18  1  0.13899000  0.78573000  0.41251000  1.0
  O  O19  1  0.99811000  0.10975000  0.47563000  1.0
  O  O20  1  0.66277000  0.28573000  0.91251000  1.0
  O  O21  1  0.68954000  0.11288000  0.76782000  1.0
  O  O22  1  0.98635000  0.12232000  0.79038000  1.0
  O  O23  1  0.57024000  0.38712000  0.73218000  1.0
  O  O24  1  0.01365000  0.87768000  0.20962000  1.0
