# generated using pymatgen
data_H16C17N2
_symmetry_space_group_name_H-M   'P 1'
_cell_length_a   20.06550000
_cell_length_b   34.00110000
_cell_length_c   36.91070000
_cell_angle_alpha   90.00000000
_cell_angle_beta   90.00000000
_cell_angle_gamma   90.00000000
_symmetry_Int_Tables_number   1
_chemical_formula_structural   H16C17N2
_chemical_formula_sum   'H256 C272 N32'
_cell_volume   25182.29082372
_cell_formula_units_Z   16
loop_
 _symmetry_equiv_pos_site_id
 _symmetry_equiv_pos_as_xyz
  1  'x, y, z'
loop_
 _atom_site_type_symbol
 _atom_site_label
 _atom_site_symmetry_multiplicity
 _atom_site_fract_x
 _atom_site_fract_y
 _atom_site_fract_z
 _atom_site_occupancy
  C  1  1  0.89262900  0.95099700  0.88369600  1
  C  2  1  0.95069300  0.95099900  0.85504300  1
  C  3  1  0.86598900  0.90735200  0.88487700  1
  C  4  1  0.84001600  0.89121000  0.84723000  1
  C  7  1  0.89975500  0.89496000  0.81965300  1
  C  8  1  0.92716900  0.93824700  0.81625100  1
  C  13  1  0.86652800  0.96459500  0.80508600  1
  C  14  1  0.80569800  0.96394400  0.83190800  1
  C  17  1  0.78266700  0.91978400  0.83469500  1
  C  20  1  0.83276400  0.97722000  0.86992000  1
  C  23  1  0.61569900  0.54748200  0.88366300  1
  C  24  1  0.55633900  0.54945300  0.85574900  1
  C  25  1  0.64594600  0.59045400  0.88484600  1
  C  26  1  0.67012100  0.60590700  0.84664500  1
  C  29  1  0.60995800  0.60351900  0.81925400  1
  C  30  1  0.57893100  0.56107900  0.81646500  1
  C  35  1  0.63648600  0.53282400  0.80448400  1
  C  36  1  0.69830800  0.53205600  0.83054300  1
  C  39  1  0.72408000  0.57562000  0.83286300  1
  C  42  1  0.67235400  0.51955400  0.86894900  1
  C  45  1  0.39264200  0.04845400  0.61575600  1
  C  46  1  0.45070000  0.04845100  0.64441500  1
  C  47  1  0.36599700  0.09209700  0.61457500  1
  C  48  1  0.34001700  0.10823800  0.65222000  1
  C  51  1  0.39974600  0.10448800  0.67980300  1
  C  52  1  0.42716200  0.06120100  0.68320300  1
  C  57  1  0.36652000  0.03485200  0.69436200  1
  C  58  1  0.30569400  0.03550200  0.66753500  1
  C  61  1  0.28266200  0.07966200  0.66475000  1
  C  64  1  0.33277600  0.02222900  0.62952500  1
  C  67  1  0.11570200  0.45196200  0.61579400  1
  C  68  1  0.05633600  0.44999100  0.64370500  1
  C  69  1  0.14594800  0.40899000  0.61461300  1
  C  70  1  0.17011800  0.39354000  0.65281300  1
  C  73  1  0.10995100  0.39592500  0.68020400  1
  C  74  1  0.07892200  0.43836500  0.68299200  1
  C  79  1  0.13647400  0.46662000  0.69497500  1
  C  80  1  0.19830200  0.46738800  0.66892000  1
  C  83  1  0.22407200  0.42382700  0.66660100  1
  C  86  1  0.17235200  0.47989000  0.63051400  1
  C  89  1  0.10783000  0.05562800  0.11620800  1
  C  90  1  0.05609200  0.04514600  0.14669200  1
  C  91  1  0.11839800  0.10152000  0.11507000  1
  C  92  1  0.14173600  0.11947800  0.15241900  1
  C  95  1  0.08676200  0.10711700  0.18106100  1
  C  96  1  0.07733800  0.06101600  0.18470000  1
  C  101  1  0.14770700  0.04401900  0.19447800  1
  C  102  1  0.20314000  0.05341300  0.16587900  1
  C  105  1  0.20968900  0.09904400  0.16214800  1
  C  108  1  0.17695800  0.03737800  0.12831800  1
  C  111  1  0.38491500  0.45571500  0.11615300  1
  C  112  1  0.44293500  0.45387900  0.14485200  1
  C  113  1  0.34989200  0.41422500  0.11502100  1
  C  114  1  0.32328200  0.40057500  0.15328600  1
  C  117  1  0.38345500  0.40098100  0.18073400  1
  C  118  1  0.41872400  0.44236200  0.18389500  1
  C  123  1  0.36416300  0.47250200  0.19592700  1
  C  124  1  0.30347700  0.47540500  0.16926300  1
  C  127  1  0.27300900  0.43302100  0.16677600  1
  C  130  1  0.33183200  0.48617300  0.13096500  1
  C  133  1  0.60782000  0.94383500  0.38323300  1
  C  134  1  0.55609000  0.95431900  0.35274600  1
  C  135  1  0.61837700  0.89794100  0.38437600  1
  C  136  1  0.64172300  0.87998100  0.34702700  1
  C  139  1  0.58675600  0.89234600  0.31838200  1
  C  140  1  0.57734000  0.93844600  0.31474100  1
  C  145  1  0.64771500  0.95543700  0.30496600  1
  C  146  1  0.70313900  0.94604000  0.33357000  1
  C  149  1  0.70967700  0.90041000  0.33730100  1
  C  152  1  0.67695500  0.96207900  0.37113100  1
  C  155  1  0.88490900  0.54374700  0.38330900  1
  C  156  1  0.94293300  0.54558200  0.35461300  1
  C  157  1  0.84988400  0.58523700  0.38443900  1
  C  158  1  0.82328000  0.59888400  0.34617300  1
  C  161  1  0.88345800  0.59847800  0.31872600  1
  C  162  1  0.91873200  0.55709700  0.31557000  1
  C  167  1  0.86417000  0.52695600  0.30353500  1
  C  168  1  0.80348400  0.52405100  0.33019700  1
  C  171  1  0.77301000  0.56643500  0.33268400  1
  C  174  1  0.83183200  0.51328900  0.36849800  1
  C  177  1  0.98250800  0.94486000  0.78845900  1
  C  178  1  0.00867800  0.98331800  0.78313000  1
  C  179  1  0.05650600  0.99284100  0.75652400  1
  C  180  1  0.07999900  0.96225000  0.73358800  1
  C  181  1  0.05659800  0.92349500  0.73883600  1
  C  182  1  0.00836400  0.91513300  0.76547800  1
  C  185  1  0.13481400  0.96923300  0.71014600  1
  C  186  1  0.19812200  0.96482500  0.72598500  1
  C  187  1  0.25341100  0.98425600  0.71144100  1
  C  188  1  0.24883600  0.00886400  0.68035300  1
  C  189  1  0.18619800  0.00887900  0.66240700  1
  C  190  1  0.12867000  0.99056200  0.67715100  1
  C  201  1  0.52152300  0.55616400  0.78968300  1
  C  202  1  0.49147100  0.51859800  0.78514200  1
  C  203  1  0.44128000  0.51051300  0.75946400  1
  C  204  1  0.41928200  0.54176200  0.73684700  1
  C  205  1  0.44662000  0.57969900  0.74127300  1
  C  206  1  0.49713500  0.58659300  0.76699200  1
  C  209  1  0.36486600  0.53583600  0.71296700  1
  C  210  1  0.30115700  0.53910600  0.72860400  1
  C  211  1  0.24684800  0.51915100  0.71350300  1
  C  212  1  0.25318200  0.49512200  0.68215200  1
  C  213  1  0.31591100  0.49656300  0.66434700  1
  C  214  1  0.37239600  0.51540400  0.67959700  1
  C  225  1  0.48249000  0.05458600  0.71100300  1
  C  226  1  0.50867000  0.01613200  0.71632600  1
  C  227  1  0.55650800  0.00661200  0.74292900  1
  C  228  1  0.58001100  0.03720500  0.76586000  1
  C  229  1  0.55661200  0.07595900  0.76060800  1
  C  230  1  0.50837000  0.08431800  0.73396900  1
  C  233  1  0.63482700  0.03022300  0.78930000  1
  C  234  1  0.69813100  0.03462500  0.77346100  1
  C  235  1  0.75341900  0.01519100  0.78800100  1
  C  236  1  0.74883400  0.99057400  0.81908300  1
  C  237  1  0.68620500  0.99057100  0.83703800  1
  C  238  1  0.62868100  0.00889700  0.82229800  1
  C  249  1  0.02150600  0.44327700  0.70976700  1
  C  250  1  0.99145900  0.48084600  0.71431300  1
  C  251  1  0.94127700  0.48893100  0.73999700  1
  C  252  1  0.91929400  0.45768500  0.76262000  1
  C  253  1  0.94663700  0.41975100  0.75819800  1
  C  254  1  0.99714400  0.41285700  0.73247400  1
  C  257  1  0.86487800  0.46361100  0.78650300  1
  C  258  1  0.80116800  0.46033200  0.77086800  1
  C  259  1  0.74685500  0.48028700  0.78596600  1
  C  260  1  0.75319400  0.50432500  0.81731200  1
  C  261  1  0.81591900  0.50288700  0.83511900  1
  C  262  1  0.87240800  0.48404600  0.81986900  1
  C  273  1  0.02730400  0.04702500  0.21305200  1
  C  274  1  0.02390200  0.00646200  0.22216600  1
  C  275  1  0.98364900  0.99143800  0.25019600  1
  C  276  1  0.93660800  0.01699100  0.26685800  1
  C  277  1  0.93652800  0.05721900  0.25707700  1
  C  278  1  0.98266800  0.07212400  0.23178100  1
  C  281  1  0.88120500  0.00114700  0.28624800  1
  C  282  1  0.84332900  0.97256800  0.26768100  1
  C  283  1  0.79081000  0.95309500  0.28460600  1
  C  284  1  0.76805700  0.96374800  0.31962000  1
  C  285  1  0.80555700  0.99312100  0.33786400  1
  C  286  1  0.86240100  0.01148200  0.32222900  1
  C  297  1  0.47662400  0.44445000  0.21062200  1
  C  298  1  0.51108800  0.48056400  0.21559300  1
  C  299  1  0.56310100  0.48580200  0.24085700  1
  C  300  1  0.58268800  0.45297100  0.26223000  1
  C  301  1  0.55060300  0.41644800  0.25744300  1
  C  302  1  0.49826200  0.41245700  0.23232800  1
  C  305  1  0.63791600  0.45602300  0.28600900  1
  C  306  1  0.70126000  0.45324100  0.26980300  1
  C  307  1  0.75617500  0.47223800  0.28537300  1
  C  308  1  0.75043300  0.49476600  0.31765900  1
  C  309  1  0.68865600  0.49169600  0.33629000  1
  C  310  1  0.63159700  0.47398800  0.32060400  1
  C  321  1  0.52731800  0.95243900  0.28638300  1
  C  322  1  0.52392000  0.99300400  0.27727200  1
  C  323  1  0.48366400  0.00802900  0.24924200  1
  C  324  1  0.43662600  0.98247700  0.23257800  1
  C  325  1  0.43654600  0.94225000  0.24235500  1
  C  326  1  0.48268500  0.92734200  0.26765400  1
  C  329  1  0.38122200  0.99831900  0.21319000  1
  C  330  1  0.34333600  0.02689000  0.23176200  1
  C  331  1  0.29080400  0.04635700  0.21484600  1
  C  332  1  0.26804300  0.03569600  0.17983700  1
  C  333  1  0.30557000  0.00634700  0.16157400  1
  C  334  1  0.36242400  0.98799200  0.17720600  1
  C  345  1  0.97663800  0.55500900  0.28884600  1
  C  346  1  0.01109700  0.51889500  0.28387400  1
  C  347  1  0.06310400  0.51365700  0.25860500  1
  C  348  1  0.08268500  0.54648500  0.23722900  1
  C  349  1  0.05059500  0.58300800  0.24201400  1
  C  350  1  0.99825700  0.58699600  0.26712900  1
  C  353  1  0.13790900  0.54343200  0.21345000  1
  C  354  1  0.20125400  0.54622100  0.22965400  1
  C  355  1  0.25617200  0.52722400  0.21408700  1
  C  356  1  0.25042000  0.50468700  0.18180400  1
  C  357  1  0.18865300  0.50775700  0.16317000  1
  C  358  1  0.13159200  0.52546500  0.17885600  1
  C  369  1  0.92031700  0.96704200  0.91936600  1
  C  370  1  0.94651700  0.00588200  0.92101600  1
  C  371  1  0.98042100  0.02126100  0.95153500  1
  C  372  1  0.98697700  0.99717300  0.98283100  1
  C  373  1  0.95852700  0.95916600  0.98254700  1
  C  374  1  0.92632100  0.94445400  0.95149900  1
  C  377  1  0.01985100  0.01044100  0.01486800  1
  C  378  1  0.98825900  0.03989000  0.03557000  1
  C  379  1  0.01819400  0.05481600  0.06703800  1
  C  380  1  0.08029300  0.04069000  0.08011800  1
  C  381  1  0.11149400  0.01125600  0.05870400  1
  C  382  1  0.08304400  0.99604500  0.02636900  1
  C  393  1  0.58851000  0.53138900  0.91941800  1
  C  394  1  0.55772400  0.49369900  0.92054900  1
  C  395  1  0.52183700  0.47932600  0.95079800  1
  C  396  1  0.51985500  0.50261900  0.98278900  1
  C  397  1  0.55491900  0.53871500  0.98332100  1
  C  398  1  0.58773500  0.55293200  0.95226400  1
  C  401  1  0.48272200  0.49131600  0.01415000  1
  C  402  1  0.50220200  0.45717300  0.03318000  1
  C  403  1  0.46762400  0.44476800  0.06423100  1
  C  404  1  0.41447800  0.46691400  0.07932100  1
  C  405  1  0.39469600  0.50060700  0.05918900  1
  C  406  1  0.42655800  0.51289500  0.02681600  1
  C  417  1  0.42034900  0.03241400  0.58008900  1
  C  418  1  0.44653800  0.99357000  0.57843700  1
  C  419  1  0.48043000  0.97819100  0.54791200  1
  C  420  1  0.48697400  0.00227900  0.51661700  1
  C  421  1  0.45851900  0.04028400  0.51690200  1
  C  422  1  0.42632000  0.05499500  0.54795200  1
  C  425  1  0.51984400  0.98901300  0.48457800  1
  C  426  1  0.48824200  0.95957100  0.46387100  1
  C  427  1  0.51817400  0.94464700  0.43240000  1
  C  428  1  0.58027100  0.95877600  0.41932000  1
  C  429  1  0.61148900  0.98819700  0.44074500  1
  C  430  1  0.58304500  0.00340300  0.47308000  1
  C  441  1  0.08852400  0.46805800  0.58003800  1
  C  442  1  0.05773000  0.50574800  0.57890800  1
  C  443  1  0.02184400  0.52012100  0.54865700  1
  C  444  1  0.01987100  0.49682800  0.51666600  1
  C  445  1  0.05494100  0.46073200  0.51613500  1
  C  446  1  0.08774800  0.44651800  0.54719400  1
  C  449  1  0.98273800  0.50813100  0.48530400  1
  C  450  1  0.00220800  0.54228000  0.46627700  1
  C  451  1  0.96761700  0.55468800  0.43523200  1
  C  452  1  0.91445100  0.53255300  0.42014900  1
  C  453  1  0.89470700  0.49884000  0.44026500  1
  C  454  1  0.92657700  0.48654900  0.47263500  1
  C  465  1  0.69563300  0.64840000  0.84889100  1
  C  466  1  0.65330300  0.67932500  0.86088700  1
  C  467  1  0.67279300  0.71950100  0.86171300  1
  C  468  1  0.73819900  0.72977500  0.85019900  1
  C  469  1  0.78154200  0.69957700  0.83876900  1
  C  470  1  0.76074100  0.66009600  0.83821000  1
  C  473  1  0.76181600  0.76941300  0.84855900  1
  C  474  1  0.78688900  0.78683000  0.88046300  1
  C  475  1  0.81214600  0.82545200  0.88030100  1
  C  476  1  0.81400600  0.84879700  0.84839400  1
  C  477  1  0.78865400  0.83047200  0.81661100  1
  C  478  1  0.76270300  0.79163300  0.81589400  1
  C  489  1  0.19562800  0.35104500  0.65057300  1
  C  490  1  0.15330400  0.32012200  0.63856800  1
  C  491  1  0.17279500  0.27994700  0.63773900  1
  C  492  1  0.23820000  0.26967400  0.64925100  1
  C  493  1  0.28154400  0.29987000  0.66068100  1
  C  494  1  0.26074200  0.33935100  0.66124200  1
  C  497  1  0.26181800  0.23003400  0.65089300  1
  C  498  1  0.28689600  0.21262000  0.61898900  1
  C  499  1  0.31215400  0.17399700  0.61915100  1
  C  500  1  0.31400800  0.15065100  0.65105500  1
  C  501  1  0.28864600  0.16897100  0.68283700  1
  C  502  1  0.26269600  0.20781100  0.68355500  1
  C  513  1  0.29175500  0.35953200  0.15123300  1
  C  514  1  0.33010200  0.32632800  0.14061000  1
  C  515  1  0.30447100  0.28739100  0.13972900  1
  C  516  1  0.23661100  0.28102600  0.14931500  1
  C  517  1  0.19712000  0.31352200  0.15923600  1
  C  518  1  0.22411700  0.35159200  0.16017300  1
  C  521  1  0.20722700  0.24291300  0.15151400  1
  C  522  1  0.18349000  0.22514000  0.11947800  1
  C  523  1  0.15796400  0.18659400  0.11981900  1
  C  524  1  0.15498300  0.16384500  0.15203500  1
  C  525  1  0.17528700  0.18343500  0.18426100  1
  C  526  1  0.20186400  0.22205800  0.18477800  1
  C  537  1  0.79175200  0.63992600  0.34821900  1
  C  538  1  0.83009700  0.67313100  0.35884700  1
  C  539  1  0.80446300  0.71206800  0.35972500  1
  C  540  1  0.73660400  0.71843200  0.35014000  1
  C  541  1  0.69711400  0.68593400  0.34022100  1
  C  542  1  0.72411400  0.64786400  0.33928400  1
  C  545  1  0.70722000  0.75654500  0.34793700  1
  C  546  1  0.68349200  0.77432300  0.37997400  1
  C  547  1  0.65796500  0.81286900  0.37962700  1
  C  548  1  0.65495600  0.83561300  0.34740900  1
  C  549  1  0.67526500  0.81601600  0.31518500  1
  C  550  1  0.70184700  0.77739400  0.31467000  1
  H  5  1  0.82561600  0.90576700  0.90477900  1
  H  6  1  0.90613400  0.88810300  0.89431400  1
  H  9  1  0.94004300  0.87528100  0.82810900  1
  H  10  1  0.88364300  0.88524100  0.79283200  1
  H  11  1  0.99083500  0.93146000  0.86404200  1
  H  12  1  0.97234300  0.98029500  0.85372400  1
  H  15  1  0.85003800  0.95563000  0.77799600  1
  H  16  1  0.88316400  0.99507500  0.80331900  1
  H  18  1  0.76324700  0.91095200  0.80823800  1
  H  19  1  0.74145800  0.91689500  0.85388400  1
  H  21  1  0.84778400  0.00801400  0.86774400  1
  H  22  1  0.79269100  0.97616000  0.89000500  1
  H  27  1  0.68795800  0.59124300  0.90375500  1
  H  28  1  0.60803100  0.61035100  0.89559700  1
  H  31  1  0.57055800  0.62385600  0.82746500  1
  H  32  1  0.62724600  0.61306500  0.79252300  1
  H  33  1  0.51871800  0.57039300  0.86527800  1
  H  34  1  0.53150200  0.52107400  0.85477300  1
  H  37  1  0.65240400  0.54128200  0.77716000  1
  H  38  1  0.61750300  0.50279500  0.80297800  1
  H  40  1  0.74184600  0.58429600  0.80596400  1
  H  41  1  0.76668000  0.57709300  0.85124900  1
  H  43  1  0.65476700  0.48921700  0.86700500  1
  H  44  1  0.71344000  0.51946600  0.88843900  1
  H  49  1  0.32562900  0.09368200  0.59467000  1
  H  50  1  0.40614600  0.11134600  0.60514200  1
  H  53  1  0.44003400  0.12416700  0.67135000  1
  H  54  1  0.38362900  0.11420500  0.70662200  1
  H  55  1  0.49084000  0.06799200  0.63542000  1
  H  56  1  0.47234800  0.01915500  0.64573400  1
  H  59  1  0.35002400  0.04381300  0.72145200  1
  H  60  1  0.38315600  0.00437000  0.69612900  1
  H  62  1  0.26323600  0.08849100  0.69120600  1
  H  63  1  0.24146000  0.08255000  0.64555800  1
  H  65  1  0.34779600  0.99143400  0.63170000  1
  H  66  1  0.29270700  0.02328700  0.60943800  1
  H  71  1  0.18796500  0.40820400  0.59570500  1
  H  72  1  0.10803700  0.38909600  0.60385700  1
  H  75  1  0.07055200  0.37558800  0.67198900  1
  H  76  1  0.12723400  0.38638200  0.70693300  1
  H  77  1  0.01872000  0.42905100  0.63417400  1
  H  78  1  0.03149800  0.47837000  0.64468000  1
  H  81  1  0.15238700  0.45816200  0.72230000  1
  H  82  1  0.11748800  0.49665200  0.69648100  1
  H  84  1  0.24183900  0.41514800  0.69349800  1
  H  85  1  0.26667800  0.42235400  0.64821600  1
  H  87  1  0.15476400  0.51023100  0.63245600  1
  H  88  1  0.21344200  0.47998200  0.61102600  1
  H  93  1  0.15530700  0.10776400  0.09400300  1
  H  94  1  0.07235400  0.11635800  0.10712600  1
  H  97  1  0.03955200  0.12080500  0.17323400  1
  H  98  1  0.09935000  0.11858700  0.20782300  1
  H  99  1  0.00700800  0.05743300  0.14059900  1
  H  100  1  0.05004400  0.01315800  0.14741500  1
  H  103  1  0.15997000  0.05551600  0.22129600  1
  H  104  1  0.14733800  0.01207900  0.19705400  1
  H  106  1  0.22859200  0.11114300  0.18750100  1
  H  107  1  0.24707200  0.10585800  0.14143900  1
  H  109  1  0.17184300  0.00538200  0.13014900  1
  H  110  1  0.21435400  0.04358100  0.10749200  1
  H  115  1  0.30850000  0.41510400  0.09571500  1
  H  116  1  0.38517900  0.39247600  0.10473400  1
  H  119  1  0.42077200  0.37938500  0.17239200  1
  H  120  1  0.36513000  0.39185200  0.20738400  1
  H  121  1  0.48083800  0.43243900  0.13699800  1
  H  122  1  0.46752200  0.48255800  0.14490400  1
  H  125  1  0.34677200  0.46425900  0.22303600  1
  H  126  1  0.38597200  0.50183700  0.19793200  1
  H  128  1  0.25363000  0.42506000  0.19354600  1
  H  129  1  0.23087700  0.43329500  0.14803300  1
  H  131  1  0.35415100  0.51551600  0.13253300  1
  H  132  1  0.29049400  0.48783700  0.11172400  1
  H  137  1  0.65528000  0.89169600  0.40544300  1
  H  138  1  0.57233100  0.88310700  0.39231700  1
  H  141  1  0.53954000  0.87866200  0.32620600  1
  H  142  1  0.59934900  0.88087300  0.29162000  1
  H  143  1  0.50700100  0.94203500  0.35883600  1
  H  144  1  0.55005000  0.98630700  0.35202300  1
  H  147  1  0.65998400  0.94394100  0.27815000  1
  H  148  1  0.64735600  0.98737900  0.30238900  1
  H  150  1  0.72858400  0.88830600  0.31195000  1
  H  151  1  0.74705900  0.89359200  0.35801500  1
  H  153  1  0.67184600  0.99407300  0.36929700  1
  H  154  1  0.71434600  0.95587400  0.39195400  1
  H  159  1  0.80848900  0.58435800  0.40374200  1
  H  160  1  0.88516700  0.60698600  0.39472800  1
  H  163  1  0.92077100  0.62007400  0.32706800  1
  H  164  1  0.86513700  0.60760400  0.29207500  1
  H  165  1  0.98083500  0.56702600  0.36246900  1
  H  166  1  0.96752300  0.51690400  0.35456700  1
  H  169  1  0.84678700  0.53519700  0.27642700  1
  H  170  1  0.88598100  0.49761900  0.30153300  1
  H  172  1  0.75363300  0.57439600  0.30591100  1
  H  173  1  0.73087700  0.56616100  0.35142100  1
  H  175  1  0.85415500  0.48394600  0.36692900  1
  H  176  1  0.79049300  0.51162200  0.38773600  1
  H  183  1  0.07499000  0.90092700  0.72342400  1
  H  184  1  0.99289400  0.88667400  0.76785300  1
  H  191  1  0.20349400  0.95083700  0.75043800  1
  H  192  1  0.29610100  0.98172000  0.72612300  1
  H  193  1  0.18074900  0.02512000  0.63930500  1
  H  194  1  0.99244100  0.00583500  0.79912100  1
  H  196  1  0.06167600  0.05094800  0.77097300  1
  H  197  1  0.11185700  0.03914600  0.73726400  1
  H  199  1  0.02863700  0.98280700  0.66943700  1
  H  200  1  0.06499800  0.01015000  0.63790700  1
  H  207  1  0.42994800  0.60262800  0.72573800  1
  H  208  1  0.51576600  0.61443900  0.76869900  1
  H  215  1  0.29502700  0.55234400  0.75335100  1
  H  216  1  0.20374400  0.52059800  0.72798100  1
  H  217  1  0.32247400  0.48084300  0.64103400  1
  H  218  1  0.50682100  0.49562200  0.80084200  1
  H  220  1  0.43218000  0.45259100  0.77397400  1
  H  221  1  0.38129200  0.46584400  0.74103600  1
  H  223  1  0.47216400  0.52477400  0.67233400  1
  H  224  1  0.43729600  0.49757800  0.64021800  1
  H  231  1  0.57501200  0.09852900  0.77601400  1
  H  232  1  0.49290200  0.11277900  0.73159100  1
  H  239  1  0.70350600  0.04861300  0.74900700  1
  H  240  1  0.79610800  0.01772000  0.77331800  1
  H  241  1  0.68075200  0.97433300  0.86014000  1
  H  242  1  0.49243000  0.99361100  0.70033900  1
  H  244  1  0.56167300  0.94850200  0.72848500  1
  H  245  1  0.61186700  0.96030700  0.76218800  1
  H  247  1  0.52865000  0.01666400  0.83001700  1
  H  248  1  0.56501000  0.98931800  0.86154600  1
  H  255  1  0.92998000  0.39682200  0.77373900  1
  H  256  1  0.01578200  0.38501100  0.73077100  1
  H  263  1  0.79503700  0.44709100  0.74612200  1
  H  264  1  0.70375200  0.47883700  0.77149000  1
  H  265  1  0.82248200  0.51861000  0.85843200  1
  H  266  1  0.00679800  0.50381900  0.69861000  1
  H  268  1  0.93216400  0.54685000  0.72548100  1
  H  269  1  0.88129400  0.53360300  0.75842800  1
  H  271  1  0.97217700  0.47468200  0.82713100  1
  H  272  1  0.93730600  0.50187800  0.85924500  1
  H  279  1  0.90157900  0.07593000  0.26764600  1
  H  280  1  0.98029100  0.10138200  0.22581500  1
  H  287  1  0.85474100  0.96459900  0.24161600  1
  H  288  1  0.76731200  0.93199400  0.26966700  1
  H  289  1  0.79175200  0.00145000  0.36334500  1
  H  290  1  0.05204300  0.98657800  0.20827300  1
  H  292  1  0.02421400  0.93620200  0.24823200  1
  H  293  1  0.96824500  0.94196800  0.28064800  1
  H  295  1  0.93816800  0.04989800  0.33333333  1
  H  296  1  0.88458000  0.04422800  0.36704800  1
  H  303  1  0.56508600  0.39245500  0.27225400  1
  H  304  1  0.47644200  0.38546700  0.23026100  1
  H  311  1  0.70644300  0.44173300  0.24427300  1
  H  312  1  0.79877400  0.47198800  0.27038200  1
  H  313  1  0.68264600  0.50618100  0.36031300  1
  H  314  1  0.49788000  0.50445700  0.20047600  1
  H  316  1  0.57750400  0.54385300  0.22823200  1
  H  317  1  0.62788000  0.52755100  0.26024400  1
  H  319  1  0.53197400  0.46446100  0.32829200  1
  H  320  1  0.56816200  0.48929600  0.36157000  1
  H  327  1  0.40160000  0.92353900  0.23178700  1
  H  328  1  0.48030200  0.89808400  0.27361700  1
  H  335  1  0.35474900  0.03485800  0.25783000  1
  H  336  1  0.26729600  0.06745100  0.22978700  1
  H  337  1  0.29177200  0.99802400  0.13609100  1
  H  338  1  0.55206200  0.01288500  0.29116500  1
  H  340  1  0.52422400  0.06326600  0.25121400  1
  H  341  1  0.46825200  0.05750400  0.21879800  1
  H  343  1  0.43821000  0.94959300  0.16609000  1
  H  344  1  0.38462600  0.95526100  0.13237900  1
  H  351  1  0.06506800  0.60699500  0.22719400  1
  H  352  1  0.97643300  0.61398600  0.26919300  1
  H  359  1  0.20644000  0.55773200  0.25518100  1
  H  360  1  0.29877200  0.52747700  0.22907500  1
  H  361  1  0.18264200  0.49327200  0.13914700  1
  H  362  1  0.99789700  0.49500500  0.29899700  1
  H  364  1  0.07751700  0.45560600  0.27123900  1
  H  365  1  0.12788200  0.47190500  0.23922100  1
  H  367  1  0.03196800  0.53498900  0.17116700  1
  H  368  1  0.06815800  0.51015400  0.13789000  1
  H  375  1  0.96206900  0.94146500  0.00492300  1
  H  376  1  0.90847500  0.91640900  0.95278600  1
  H  383  1  0.94288300  0.05089200  0.02784600  1
  H  384  1  0.99250000  0.07595600  0.08085200  1
  H  385  1  0.15642800  0.00017900  0.06660100  1
  H  386  1  0.94341100  0.02343200  0.89862600  1
  H  388  1  0.00278000  0.07376500  0.92731600  1
  H  389  1  0.03323700  0.06937400  0.96873500  1
  H  391  1  0.10125900  0.95803800  0.98445900  1
  H  392  1  0.16107800  0.95927700  0.01529600  1
  H  399  1  0.55462900  0.55588500  0.00612600  1
  H  400  1  0.60954600  0.57996100  0.95398400  1
  H  407  1  0.54198100  0.44082100  0.02447300  1
  H  408  1  0.48407500  0.41972500  0.07660100  1
  H  409  1  0.35564600  0.51721000  0.06797000  1
  H  410  1  0.55775300  0.47669000  0.89774900  1
  H  412  1  0.48952000  0.42970100  0.92477700  1
  H  413  1  0.45961800  0.43451200  0.96621600  1
  H  415  1  0.41901800  0.55304100  0.98561100  1
  H  416  1  0.36237900  0.55860300  0.01770500  1
  H  423  1  0.46204800  0.05798300  0.49452600  1
  H  424  1  0.40846600  0.08304100  0.54666500  1
  H  431  1  0.44286500  0.94857200  0.47159500  1
  H  432  1  0.49247600  0.92351200  0.41858300  1
  H  433  1  0.65643000  0.99926900  0.43285000  1
  H  434  1  0.44343600  0.97602000  0.60082600  1
  H  436  1  0.50279100  0.92568500  0.57212700  1
  H  437  1  0.53323100  0.93007500  0.53070500  1
  H  439  1  0.60126600  0.04140200  0.51499700  1
  H  440  1  0.66109100  0.04016000  0.48416300  1
  H  447  1  0.05465200  0.44356500  0.49332900  1
  H  448  1  0.10956200  0.41948900  0.54547300  1
  H  455  1  0.04198800  0.55863200  0.47498400  1
  H  456  1  0.98406200  0.57973400  0.42286700  1
  H  457  1  0.85566300  0.48223700  0.43148500  1
  H  458  1  0.05775200  0.52275700  0.60170900  1
  H  460  1  0.98951600  0.56974300  0.57467900  1
  H  461  1  0.95961900  0.56493200  0.53323800  1
  H  463  1  0.91905500  0.44639100  0.51383200  1
  H  464  1  0.86241700  0.44083000  0.48173800  1
  H  471  1  0.82882500  0.70617000  0.83021500  1
  H  472  1  0.79473400  0.64015000  0.82911900  1
  H  479  1  0.78711400  0.77138000  0.90429100  1
  H  480  1  0.82922900  0.83604700  0.90440300  1
  H  481  1  0.78855500  0.84594600  0.79289300  1
  H  482  1  0.60583100  0.67263400  0.86876300  1
  H  484  1  0.58323100  0.73953400  0.88059200  1
  H  485  1  0.63873400  0.77478300  0.87365100  1
  H  487  1  0.71981400  0.75094800  0.78223400  1
  H  488  1  0.73963800  0.79275300  0.76193800  1
  H  495  1  0.32882900  0.29327600  0.66923100  1
  H  496  1  0.29473600  0.35929700  0.67033400  1
  H  503  1  0.28713000  0.22806900  0.59516100  1
  H  504  1  0.32924000  0.16340400  0.59505000  1
  H  505  1  0.28853600  0.15349800  0.70655700  1
  H  506  1  0.10582900  0.32681300  0.63069200  1
  H  508  1  0.08323300  0.25991200  0.61885900  1
  H  509  1  0.13873600  0.22466600  0.62579400  1
  H  511  1  0.21979600  0.24849500  0.71721500  1
  H  512  1  0.23961100  0.20669000  0.73751000  1
  H  519  1  0.14831500  0.30965200  0.16660800  1
  H  520  1  0.19243800  0.37331400  0.16817900  1
  H  527  1  0.18671900  0.23970100  0.09524300  1
  H  528  1  0.14445600  0.17499100  0.09544400  1
  H  529  1  0.17492300  0.16830000  0.20815700  1
  H  530  1  0.37901000  0.33034200  0.13384700  1
  H  532  1  0.39234400  0.26216500  0.12404500  1
  H  533  1  0.33089400  0.23023700  0.12967000  1
  H  535  1  0.24303000  0.26320900  0.21863000  1
  H  536  1  0.21976600  0.22229600  0.23934000  1
  H  543  1  0.64830800  0.68980100  0.33284900  1
  H  544  1  0.69243400  0.62614200  0.33127800  1
  H  551  1  0.68673100  0.75976600  0.40421100  1
  H  552  1  0.64446100  0.82447300  0.40400200  1
  H  553  1  0.67490100  0.83114600  0.29129000  1
  H  554  1  0.87900200  0.66911700  0.36560900  1
  H  556  1  0.89233400  0.73729400  0.37540900  1
  H  557  1  0.83088400  0.76922100  0.36978400  1
  H  559  1  0.74301300  0.73623900  0.28082100  1
  H  560  1  0.71973900  0.77714900  0.26010900  1
  N  195  1  0.07855800  0.03076100  0.75467100  1
  N  198  1  0.06884800  0.99537000  0.66039100  1
  N  219  1  0.41609800  0.47325800  0.75794500  1
  N  222  1  0.43260400  0.51177500  0.66297000  1
  N  243  1  0.57856200  0.96869100  0.74478400  1
  N  246  1  0.56885900  0.00409400  0.83906100  1
  N  267  1  0.91609100  0.52618600  0.74151500  1
  N  270  1  0.93261300  0.48767800  0.83649400  1
  N  291  1  0.99083500  0.95288500  0.25964800  1
  N  294  1  0.89747600  0.03789600  0.34230500  1
  N  315  1  0.59213600  0.52199800  0.24330100  1
  N  318  1  0.57195700  0.47670500  0.33797800  1
  N  339  1  0.49084600  0.04658400  0.23979500  1
  N  342  1  0.39751400  0.96159100  0.15712500  1
  N  363  1  0.09214400  0.47746100  0.25616400  1
  N  366  1  0.07195000  0.52274500  0.16148200  1
  N  387  1  0.00706300  0.05804500  0.94923600  1
  N  390  1  0.11762000  0.96852600  0.00725500  1
  N  411  1  0.48842800  0.44462400  0.94728100  1
  N  414  1  0.40153000  0.54466800  0.00888400  1
  N  435  1  0.50707000  0.94140600  0.55020600  1
  N  438  1  0.61762800  0.03091400  0.49220200  1
  N  459  1  0.98842900  0.55482000  0.55217600  1
  N  462  1  0.90156300  0.45476800  0.49056000  1
  N  483  1  0.62792400  0.74694600  0.87294200  1
  N  486  1  0.73903600  0.77709500  0.78401300  1
  N  507  1  0.12792700  0.25250100  0.62650700  1
  N  510  1  0.23901800  0.22234900  0.71543500  1
  N  531  1  0.34592800  0.25738300  0.13032000  1
  N  534  1  0.22328200  0.23720400  0.21690500  1
  N  555  1  0.84591900  0.74207500  0.36913400  1
  N  558  1  0.72326200  0.76224400  0.28254400  1
