# generated using pymatgen
data_AgH8(CN)2
_symmetry_space_group_name_H-M   'P 1'
_cell_length_a   4.01680000
_cell_length_b   9.55172000
_cell_length_c   9.56605000
_cell_angle_alpha   87.72557000
_cell_angle_beta   78.06179000
_cell_angle_gamma   78.03895000
_symmetry_Int_Tables_number   1
_chemical_formula_structural   AgH8(CN)2
_chemical_formula_sum   'Ag2 H16 C4 N4'
_cell_volume   351.28755197
_cell_formula_units_Z   2
loop_
 _symmetry_equiv_pos_site_id
 _symmetry_equiv_pos_as_xyz
  1  'x, y, z'
loop_
 _atom_site_type_symbol
 _atom_site_label
 _atom_site_symmetry_multiplicity
 _atom_site_fract_x
 _atom_site_fract_y
 _atom_site_fract_z
 _atom_site_occupancy
  Ag  Ag0  1  0.57046000  0.41412000  0.44456000  1
  Ag  Ag1  1  0.92903000  0.55508000  0.58684000  1
  H  H2  1  0.61267000  0.85325000  0.42782000  1
  H  H3  1  0.74206000  0.89970000  0.58430000  1
  H  H4  1  0.03246000  0.88710000  0.56966000  1
  H  H5  1  0.16604000  0.94631000  0.70395000  1
  H  H6  1  0.88723000  0.57291000  0.14593000  1
  H  H7  1  0.75767000  0.41596000  0.10034000  1
  H  H8  1  0.46732000  0.43057000  0.11261000  1
  H  H9  1  0.33305000  0.29576000  0.05453000  1
  H  H10  1  0.37262000  0.14704000  0.58205000  1
  H  H11  1  0.25764000  0.11098000  0.41914000  1
  H  H12  1  0.96732000  0.11698000  0.43927000  1
  H  H13  1  0.81163000  0.09121000  0.29660000  1
  H  H14  1  0.12737000  0.41706000  0.85342000  1
  H  H15  1  0.24313000  0.58020000  0.88888000  1
  H  H16  1  0.53337000  0.56029000  0.88294000  1
  H  H17  1  0.68901000  0.70310000  0.90859000  1
  C  C18  1  0.52400000  0.92317000  0.52258000  1
  C  C19  1  0.97588000  0.47760000  0.07663000  1
  C  C20  1  0.46967000  0.08298000  0.48313000  1
  C  C21  1  0.03078000  0.51632000  0.91700000  1
  N  N22  1  0.25357000  0.87786000  0.61825000  1
  N  N23  1  0.24587000  0.38212000  0.12236000  1
  N  N24  1  0.73684000  0.13820000  0.39552000  1
  N  N25  1  0.76382000  0.60409000  0.86168000  1
