# generated using pymatgen
data_GdH7C15(NO3)2
_symmetry_space_group_name_H-M   'P 1'
_cell_length_a   13.46428000
_cell_length_b   15.01279000
_cell_length_c   15.98372000
_cell_angle_alpha   62.21394000
_cell_angle_beta   86.40292000
_cell_angle_gamma   89.93938000
_symmetry_Int_Tables_number   1
_chemical_formula_structural   GdH7C15(NO3)2
_chemical_formula_sum   'Gd4 H28 C60 N8 O24'
_cell_volume   2851.26649445
_cell_formula_units_Z   4
loop_
 _symmetry_equiv_pos_site_id
 _symmetry_equiv_pos_as_xyz
  1  'x, y, z'
loop_
 _atom_site_type_symbol
 _atom_site_label
 _atom_site_symmetry_multiplicity
 _atom_site_fract_x
 _atom_site_fract_y
 _atom_site_fract_z
 _atom_site_occupancy
  Gd  Gd1  1  0.48419000  0.97522000  0.62570000  1.0
  Gd  Gd2  1  0.01665000  0.59995000  0.37447000  1.0
  Gd  Gd3  1  0.51582000  0.02479000  0.37429000  1.0
  Gd  Gd4  1  0.98335000  0.40006000  0.62553000  1.0
  H  H1  1  0.91167000  0.81788000  0.06474000  1.0
  H  H2  1  0.97074000  0.51313000  0.12568000  1.0
  H  H3  1  0.92854000  0.59901000  0.69259000  1.0
  H  H4  1  0.78599000  0.81004000  0.44438000  1.0
  H  H5  1  0.90204000  0.54378000  0.97182000  1.0
  H  H6  1  0.73254000  0.81713000  0.71000000  1.0
  H  H7  1  0.84276000  0.84884000  0.91000000  1.0
  H  H8  1  0.59036000  0.88187000  0.93695000  1.0
  H  H9  1  0.52974000  0.64024000  0.87270000  1.0
  H  H10  1  0.57072000  0.29089000  0.30692000  1.0
  H  H11  1  0.71510000  0.25500000  0.55438000  1.0
  H  H12  1  0.59550000  0.51591000  0.02736000  1.0
  H  H13  1  0.76589000  0.52671000  0.28907000  1.0
  H  H14  1  0.65648000  0.75678000  0.09231000  1.0
  H  H15  1  0.08833000  0.18212000  0.93526000  1.0
  H  H16  1  0.02926000  0.48687000  0.87432000  1.0
  H  H17  1  0.07146000  0.40100000  0.30740000  1.0
  H  H18  1  0.21401000  0.18997000  0.55562000  1.0
  H  H19  1  0.09796000  0.45623000  0.02818000  1.0
  H  H20  1  0.26746000  0.18288000  0.29000000  1.0
  H  H21  1  0.15725000  0.15117000  0.09000000  1.0
  H  H22  1  0.40964000  0.11814000  0.06304000  1.0
  H  H23  1  0.47026000  0.35977000  0.12730000  1.0
  H  H24  1  0.42928000  0.70912000  0.69308000  1.0
  H  H25  1  0.28490000  0.74501000  0.44562000  1.0
  H  H26  1  0.40450000  0.48410000  0.97263000  1.0
  H  H27  1  0.23411000  0.47330000  0.71093000  1.0
  H  H28  1  0.34352000  0.24323000  0.90768000  1.0
  C  C1  1  0.67570000  0.90137000  0.53202000  1.0
  C  C2  1  0.99011000  0.64864000  0.19121000  1.0
  C  C3  1  0.94678000  0.66481000  0.10230000  1.0
  C  C4  1  0.90932000  0.75924000  0.04304000  1.0
  C  C5  1  0.94301000  0.58631000  0.07753000  1.0
  C  C6  1  0.91474000  0.66058000  0.50261000  1.0
  C  C7  1  0.86280000  0.70071000  0.56196000  1.0
  C  C8  1  0.87951000  0.66169000  0.65836000  1.0
  C  C9  1  0.79851000  0.78056000  0.51904000  1.0
  C  C10  1  0.74958000  0.82071000  0.57326000  1.0
  C  C11  1  0.83495000  0.70620000  0.71076000  1.0
  C  C12  1  0.87186000  0.69937000  0.93124000  1.0
  C  C13  1  0.90544000  0.60309000  0.99255000  1.0
  C  C14  1  0.76858000  0.78440000  0.66852000  1.0
  C  C15  1  0.87135000  0.77624000  0.95812000  1.0
  C  C16  1  0.82435000  0.43375000  0.46689000  1.0
  C  C17  1  0.51199000  0.83998000  0.80835000  1.0
  C  C18  1  0.55458000  0.76749000  0.89756000  1.0
  C  C19  1  0.59168000  0.80181000  0.95788000  1.0
  C  C20  1  0.55729000  0.66450000  0.92168000  1.0
  C  C21  1  0.58583000  0.16327000  0.49613000  1.0
  C  C22  1  0.63757000  0.26250000  0.43711000  1.0
  C  C23  1  0.61994000  0.31960000  0.34094000  1.0
  C  C24  1  0.70197000  0.29977000  0.47986000  1.0
  C  C25  1  0.75031000  0.39407000  0.42576000  1.0
  C  C26  1  0.66384000  0.41640000  0.28874000  1.0
  C  C27  1  0.62669000  0.62991000  0.06926000  1.0
  C  C28  1  0.59330000  0.59576000  0.00702000  1.0
  C  C29  1  0.73047000  0.45259000  0.33074000  1.0
  C  C30  1  0.62822000  0.73326000  0.04317000  1.0
  C  C31  1  0.32430000  0.09864000  0.46798000  1.0
  C  C32  1  0.00989000  0.35137000  0.80878000  1.0
  C  C33  1  0.05322000  0.33520000  0.89770000  1.0
  C  C34  1  0.09068000  0.24077000  0.95696000  1.0
  C  C35  1  0.05699000  0.41370000  0.92247000  1.0
  C  C36  1  0.08526000  0.33943000  0.49739000  1.0
  C  C37  1  0.13721000  0.29930000  0.43803000  1.0
  C  C38  1  0.12049000  0.33832000  0.34164000  1.0
  C  C39  1  0.20149000  0.21945000  0.48096000  1.0
  C  C40  1  0.25042000  0.17930000  0.42673000  1.0
  C  C41  1  0.16505000  0.29381000  0.28924000  1.0
  C  C42  1  0.12814000  0.30064000  0.06875000  1.0
  C  C43  1  0.09456000  0.39691000  0.00745000  1.0
  C  C44  1  0.23142000  0.21560000  0.33147000  1.0
  C  C45  1  0.12865000  0.22377000  0.04188000  1.0
  C  C46  1  0.17566000  0.56626000  0.53310000  1.0
  C  C47  1  0.48801000  0.16003000  0.19165000  1.0
  C  C48  1  0.44542000  0.23252000  0.10244000  1.0
  C  C49  1  0.40832000  0.19820000  0.04211000  1.0
  C  C50  1  0.44271000  0.33551000  0.07832000  1.0
  C  C51  1  0.41418000  0.83674000  0.50387000  1.0
  C  C52  1  0.36243000  0.73751000  0.56289000  1.0
  C  C53  1  0.38007000  0.68041000  0.65905000  1.0
  C  C54  1  0.29803000  0.70024000  0.52014000  1.0
  C  C55  1  0.24969000  0.60594000  0.57424000  1.0
  C  C56  1  0.33616000  0.58361000  0.71126000  1.0
  C  C57  1  0.37331000  0.37010000  0.93073000  1.0
  C  C58  1  0.40670000  0.40425000  0.99298000  1.0
  C  C59  1  0.26954000  0.54742000  0.66925000  1.0
  C  C60  1  0.37178000  0.26675000  0.95682000  1.0
  N  N1  1  0.86404000  0.67023000  0.80487000  1.0
  N  N2  1  0.83966000  0.72879000  0.83985000  1.0
  N  N3  1  0.63455000  0.47435000  0.19473000  1.0
  N  N4  1  0.65794000  0.56770000  0.16082000  1.0
  N  N5  1  0.13596000  0.32978000  0.19513000  1.0
  N  N6  1  0.16035000  0.27121000  0.16015000  1.0
  N  N7  1  0.36545000  0.52565000  0.80527000  1.0
  N  N8  1  0.34206000  0.43231000  0.83918000  1.0
  O  O1  1  0.63608000  0.93293000  0.58757000  1.0
  O  O2  1  0.65465000  0.93357000  0.44572000  1.0
  O  O3  1  0.98523000  0.71788000  0.21734000  1.0
  O  O4  1  0.02993000  0.56443000  0.24391000  1.0
  O  O5  1  0.92526000  0.71415000  0.41321000  1.0
  O  O6  1  0.95024000  0.57105000  0.54276000  1.0
  O  O7  1  0.86452000  0.52002000  0.41104000  1.0
  O  O8  1  0.84500000  0.38054000  0.55341000  1.0
  O  O9  1  0.51492000  0.93497000  0.78336000  1.0
  O  O10  1  0.47491000  0.80844000  0.75429000  1.0
  O  O11  1  0.57561000  0.12750000  0.58564000  1.0
  O  O12  1  0.54997000  0.11440000  0.45546000  1.0
  O  O13  1  0.36392000  0.06708000  0.41243000  1.0
  O  O14  1  0.34535000  0.06643000  0.55427000  1.0
  O  O15  1  0.01478000  0.28213000  0.78266000  1.0
  O  O16  1  0.97007000  0.43558000  0.75609000  1.0
  O  O17  1  0.07474000  0.28586000  0.58679000  1.0
  O  O18  1  0.04976000  0.42896000  0.45724000  1.0
  O  O19  1  0.13548000  0.47999000  0.58896000  1.0
  O  O20  1  0.15501000  0.61947000  0.44659000  1.0
  O  O21  1  0.48508000  0.06504000  0.21664000  1.0
  O  O22  1  0.52509000  0.19157000  0.24570000  1.0
  O  O23  1  0.42439000  0.87251000  0.41436000  1.0
  O  O24  1  0.45003000  0.88561000  0.54453000  1.0
