# generated using pymatgen
data_MnHC4O3
_symmetry_space_group_name_H-M   'P 1'
_cell_length_a   7.09040000
_cell_length_b   15.25785000
_cell_length_c   15.29421000
_cell_angle_alpha   116.41819000
_cell_angle_beta   98.89460000
_cell_angle_gamma   99.13508000
_symmetry_Int_Tables_number   1
_chemical_formula_structural   MnHC4O3
_chemical_formula_sum   'Mn6 H6 C24 O18'
_cell_volume   1414.74096858
_cell_formula_units_Z   6
loop_
 _symmetry_equiv_pos_site_id
 _symmetry_equiv_pos_as_xyz
  1  'x, y, z'
loop_
 _atom_site_type_symbol
 _atom_site_label
 _atom_site_symmetry_multiplicity
 _atom_site_fract_x
 _atom_site_fract_y
 _atom_site_fract_z
 _atom_site_occupancy
  Mn  Mn1  1  0.71942000  0.73752000  0.32221000  1.0
  Mn  Mn2  1  0.39429000  0.67418000  0.41041000  1.0
  Mn  Mn3  1  0.98325000  0.58940000  0.26202000  1.0
  Mn  Mn4  1  0.28440000  0.25791000  0.67558000  1.0
  Mn  Mn5  1  0.61333000  0.32813000  0.59360000  1.0
  Mn  Mn6  1  0.02377000  0.40752000  0.74293000  1.0
  H  H1  1  0.69506000  0.53095000  0.55612000  1.0
  H  H2  1  0.14231000  0.43740000  0.98062000  1.0
  H  H3  1  0.16426000  0.02332000  0.46731000  1.0
  H  H4  1  0.31493000  0.47614000  0.45574000  1.0
  H  H5  1  0.85929000  0.55006000  0.02166000  1.0
  H  H6  1  0.83800000  0.97574000  0.52389000  1.0
  C  C1  1  0.76246000  0.60756000  0.43674000  1.0
  C  C2  1  0.88999000  0.55356000  0.46937000  1.0
  C  C3  1  0.06856000  0.53816000  0.43974000  1.0
  C  C4  1  0.83133000  0.51855000  0.53422000  1.0
  C  C5  1  0.32615000  0.55913000  0.17171000  1.0
  C  C6  1  0.42203000  0.52804000  0.08657000  1.0
  C  C7  1  0.62946000  0.56154000  0.09948000  1.0
  C  C8  1  0.29984000  0.46200000  0.98929000  1.0
  C  C9  1  0.15534000  0.82918000  0.38713000  1.0
  C  C10  1  0.33622000  0.91434000  0.44256000  1.0
  C  C11  1  0.53009000  0.89976000  0.45888000  1.0
  C  C12  1  0.31269000  0.01310000  0.47955000  1.0
  C  C13  1  0.24507000  0.39684000  0.57189000  1.0
  C  C14  1  0.11900000  0.45253000  0.54150000  1.0
  C  C15  1  0.94045000  0.46781000  0.57123000  1.0
  C  C16  1  0.17817000  0.48807000  0.47723000  1.0
  C  C17  1  0.67517000  0.43039000  0.83104000  1.0
  C  C18  1  0.57946000  0.45996000  0.91596000  1.0
  C  C19  1  0.37174000  0.42719000  0.90272000  1.0
  C  C20  1  0.70185000  0.52556000  0.01324000  1.0
  C  C21  1  0.84802000  0.16905000  0.60715000  1.0
  C  C22  1  0.66639000  0.08455000  0.54868000  1.0
  C  C23  1  0.47236000  0.09924000  0.53249000  1.0
  C  C24  1  0.68973000  0.98579000  0.51121000  1.0
  O  O1  1  0.81553000  0.64278000  0.37884000  1.0
  O  O2  1  0.60488000  0.61812000  0.46630000  1.0
  O  O3  1  0.13719000  0.56891000  0.37721000  1.0
  O  O4  1  0.43608000  0.61827000  0.26227000  1.0
  O  O5  1  0.13944000  0.52788000  0.15410000  1.0
  O  O6  1  0.76012000  0.62588000  0.19010000  1.0
  O  O7  1  0.17474000  0.73755000  0.35139000  1.0
  O  O8  1  0.98687000  0.84796000  0.37628000  1.0
  O  O9  1  0.56752000  0.80739000  0.42729000  1.0
  O  O10  1  0.19059000  0.35904000  0.62761000  1.0
  O  O11  1  0.40222000  0.38662000  0.54204000  1.0
  O  O12  1  0.87124000  0.43569000  0.63270000  1.0
  O  O13  1  0.56548000  0.37319000  0.73995000  1.0
  O  O14  1  0.86182000  0.46195000  0.84912000  1.0
  O  O15  1  0.24095000  0.36478000  0.81181000  1.0
  O  O16  1  0.82985000  0.26089000  0.64778000  1.0
  O  O17  1  0.01636000  0.14971000  0.61641000  1.0
  O  O18  1  0.43436000  0.19159000  0.56549000  1.0
