# generated using pymatgen
data_H9C12(N3O)2
_symmetry_space_group_name_H-M   'P 1'
_cell_length_a   22.52000000
_cell_length_b   30.60490000
_cell_length_c   30.60490000
_cell_angle_alpha   90.00000000
_cell_angle_beta   90.00000000
_cell_angle_gamma   90.00000000
_symmetry_Int_Tables_number   1
_chemical_formula_structural   H9C12(N3O)2
_chemical_formula_sum   'H72 C96 N48 O16'
_cell_volume   21093.58103831
_cell_formula_units_Z   8
loop_
 _symmetry_equiv_pos_site_id
 _symmetry_equiv_pos_as_xyz
  1  'x, y, z'
loop_
 _atom_site_type_symbol
 _atom_site_label
 _atom_site_symmetry_multiplicity
 _atom_site_fract_x
 _atom_site_fract_y
 _atom_site_fract_z
 _atom_site_occupancy
  C  1  1  0.98511500  0.99536900  0.32925100  1
  C  2  1  0.93571900  0.98548800  0.35581200  1
  C  3  1  0.88026000  0.00587600  0.34980300  1
  C  4  1  0.87279400  0.03610500  0.31488500  1
  C  5  1  0.92274800  0.04673400  0.28813800  1
  C  6  1  0.97916000  0.02657600  0.29501500  1
  C  9  1  0.03798900  0.97054600  0.33661200  1
  C  10  1  0.07151000  0.97291100  0.37614500  1
  C  11  1  0.11667000  0.94103100  0.38351300  1
  C  12  1  0.13057300  0.90863100  0.35143700  1
  C  13  1  0.09643400  0.90714800  0.31233900  1
  C  14  1  0.05029800  0.93744700  0.30589000  1
  C  35  1  0.48508800  0.00605200  0.67209100  1
  C  36  1  0.43566200  0.01591100  0.64554600  1
  C  37  1  0.38021700  0.99551600  0.65159100  1
  C  38  1  0.37280100  0.96528500  0.68651700  1
  C  39  1  0.42277100  0.95469500  0.71325700  1
  C  40  1  0.47916000  0.97488500  0.70636300  1
  C  43  1  0.53791400  0.03093000  0.66470300  1
  C  44  1  0.57145600  0.02848100  0.62518300  1
  C  45  1  0.61667000  0.06031400  0.61781200  1
  C  46  1  0.63073200  0.09264800  0.64991800  1
  C  47  1  0.59652700  0.09423200  0.68898700  1
  C  48  1  0.55031000  0.06399700  0.69543300  1
  C  69  1  0.23523400  0.67211400  0.99541100  1
  C  70  1  0.18582100  0.64554300  0.98559600  1
  C  71  1  0.13039900  0.65157100  0.00603100  1
  C  72  1  0.12298800  0.68651700  0.03623800  1
  C  73  1  0.17296500  0.71326100  0.04680700  1
  C  74  1  0.22933300  0.70637900  0.02658800  1
  C  77  1  0.28799700  0.66479100  0.97044500  1
  C  78  1  0.32166000  0.62532400  0.97284900  1
  C  79  1  0.36679700  0.61800500  0.94094000  1
  C  80  1  0.38048300  0.65004200  0.90844200  1
  C  81  1  0.34627800  0.68910400  0.90701400  1
  C  82  1  0.30021700  0.69554800  0.93736500  1
  C  103  1  0.73526600  0.32923400  0.00599800  1
  C  104  1  0.68585600  0.35579900  0.01584800  1
  C  105  1  0.63041400  0.34975700  0.99545400  1
  C  106  1  0.62298400  0.31483100  0.96523000  1
  C  107  1  0.67296600  0.28811300  0.95460100  1
  C  108  1  0.72936000  0.29500400  0.97478400  1
  C  111  1  0.78811000  0.33658900  0.03086600  1
  C  112  1  0.82161600  0.37612600  0.02852600  1
  C  113  1  0.86670400  0.38349400  0.06046100  1
  C  114  1  0.88048800  0.35144000  0.09291400  1
  C  115  1  0.84638000  0.31232700  0.09433300  1
  C  116  1  0.80032000  0.30586500  0.06397800  1
  C  137  1  0.88981300  0.16511000  0.15012200  1
  C  139  1  0.90034200  0.14967200  0.22590000  1
  C  141  1  0.87779200  0.22204400  0.20284500  1
  C  142  1  0.87769800  0.20986000  0.15815400  1
  C  145  1  0.86723800  0.23978000  0.12283800  1
  C  146  1  0.91064400  0.12003700  0.26058500  1
  C  149  1  0.38960900  0.83634200  0.85126100  1
  C  151  1  0.40047100  0.85174500  0.77549900  1
  C  153  1  0.37821400  0.77932200  0.79855400  1
  C  154  1  0.37776600  0.79155500  0.84323000  1
  C  157  1  0.36729600  0.76162900  0.87853800  1
  C  158  1  0.41080700  0.88138400  0.74081800  1
  C  161  1  0.14017800  0.85131300  0.16516700  1
  C  163  1  0.15044900  0.77552200  0.14971300  1
  C  165  1  0.12729000  0.79857400  0.22197800  1
  C  166  1  0.12759200  0.84327900  0.20984900  1
  C  169  1  0.11702800  0.87860600  0.23974500  1
  C  170  1  0.16087700  0.74083100  0.12010700  1
  C  173  1  0.64056400  0.15007500  0.83615300  1
  C  175  1  0.65020200  0.22589100  0.85170600  1
  C  177  1  0.62624300  0.20286200  0.77957700  1
  C  178  1  0.62726800  0.15812600  0.79158100  1
  C  181  1  0.61661600  0.12279600  0.76169700  1
  C  182  1  0.66063000  0.26058000  0.88130500  1
  C  185  1  0.67520800  0.98028600  0.44830700  1
  C  187  1  0.77999000  0.99074800  0.44514100  1
  C  189  1  0.73097200  0.99284300  0.51421100  1
  C  190  1  0.67554600  0.98557900  0.49405700  1
  C  193  1  0.62565000  0.98801700  0.51551800  1
  C  194  1  0.83241600  0.99688100  0.42024600  1
  C  197  1  0.17511000  0.02093300  0.55311000  1
  C  199  1  0.27991600  0.01055800  0.55626600  1
  C  201  1  0.23090900  0.00853300  0.48719300  1
  C  202  1  0.17546900  0.01573400  0.50734600  1
  C  205  1  0.12558100  0.01327700  0.48588200  1
  C  206  1  0.33233900  0.00440200  0.58115800  1
  C  209  1  0.92526600  0.55311000  0.98057700  1
  C  211  1  0.03006600  0.55626000  0.99095400  1
  C  213  1  0.98106800  0.48717900  0.99292500  1
  C  214  1  0.92562600  0.50734300  0.98576200  1
  C  217  1  0.87574600  0.48586600  0.98819000  1
  C  218  1  0.08248700  0.58114100  0.99713600  1
  C  221  1  0.42534500  0.44832000  0.02077600  1
  C  223  1  0.53015500  0.44512100  0.01044100  1
  C  225  1  0.48121000  0.51421800  0.00845200  1
  C  226  1  0.42574700  0.49408700  0.01561300  1
  C  229  1  0.37587800  0.51557700  0.01315500  1
  C  230  1  0.58255300  0.42020700  0.00426900  1
  H  7  1  0.93959800  0.96198800  0.37953300  1
  H  16  1  0.02379200  0.93417900  0.27882000  1
  H  19  1  0.06628800  0.02582700  0.27528400  1
  H  20  1  0.02448000  0.05977700  0.24717300  1
  H  21  1  0.07286800  0.00651800  0.43685100  1
  H  22  1  0.03274900  0.02915300  0.39763500  1
  H  23  1  0.20306000  0.88064200  0.38126500  1
  H  24  1  0.18777900  0.85955400  0.33352800  1
  H  25  1  0.81132200  0.07401600  0.28288300  1
  H  26  1  0.78468000  0.04942200  0.32631700  1
  H  28  1  0.09812900  0.84458600  0.29482900  1
  H  30  1  0.17638900  0.92388300  0.43300800  1
  H  32  1  0.91715800  0.06423300  0.22509200  1
  H  34  1  0.79781500  0.98359900  0.36083100  1
  H  41  1  0.43949300  0.03943300  0.62184100  1
  H  50  1  0.52377800  0.06731000  0.72248500  1
  H  53  1  0.56626600  0.97577400  0.72616700  1
  H  54  1  0.52448400  0.94185100  0.75432900  1
  H  55  1  0.57284600  0.99482600  0.56450400  1
  H  56  1  0.53266000  0.97223800  0.60371900  1
  H  57  1  0.70371000  0.12013300  0.62029500  1
  H  58  1  0.68843200  0.14131400  0.66799000  1
  H  59  1  0.31138900  0.92732700  0.71852800  1
  H  60  1  0.28469800  0.95190500  0.67510000  1
  H  62  1  0.59912000  0.15680600  0.70637900  1
  H  64  1  0.67618600  0.07756800  0.56822200  1
  H  66  1  0.41710800  0.93720800  0.77630300  1
  H  68  1  0.29773100  0.01772000  0.64056600  1
  H  75  1  0.18963500  0.62184400  0.96206700  1
  H  84  1  0.27371200  0.72262800  0.93416300  1
  H  87  1  0.31644200  0.72615400  0.02567500  1
  H  88  1  0.27470600  0.75431300  0.05963400  1
  H  89  1  0.32318700  0.56463100  0.00644300  1
  H  90  1  0.28304900  0.60381800  0.02913800  1
  H  91  1  0.45270000  0.62014200  0.88010000  1
  H  92  1  0.43724100  0.66786900  0.85905700  1
  H  93  1  0.06156800  0.71856700  0.07415300  1
  H  94  1  0.03488900  0.67510300  0.04963300  1
  H  96  1  0.34721500  0.70678100  0.84448100  1
  H  98  1  0.42686300  0.56868600  0.92394200  1
  H  100  1  0.16731400  0.77630900  0.06428600  1
  H  102  1  0.04793000  0.64057000  0.98381500  1
  H  109  1  0.68970600  0.37951400  0.03936000  1
  H  118  1  0.77385000  0.27876500  0.06717800  1
  H  121  1  0.81650500  0.27531400  0.97556500  1
  H  122  1  0.77475100  0.24719400  0.94159000  1
  H  123  1  0.82304200  0.43682200  0.99490800  1
  H  124  1  0.78298800  0.39759600  0.97222500  1
  H  125  1  0.95272600  0.38137300  0.12118800  1
  H  126  1  0.93739300  0.33361600  0.14221100  1
  H  127  1  0.56151200  0.28274300  0.92738900  1
  H  128  1  0.53484000  0.32619100  0.95193800  1
  H  130  1  0.84757000  0.29471800  0.15687500  1
  H  132  1  0.92649600  0.43294300  0.07759600  1
  H  134  1  0.66746400  0.22507100  0.93707700  1
  H  136  1  0.54794400  0.36082100  0.01766800  1
  H  143  1  0.89071000  0.15284100  0.11908700  1
  H  144  1  0.87024800  0.25331400  0.21273400  1
  H  155  1  0.39024800  0.84864100  0.88228900  1
  H  156  1  0.37093300  0.74801300  0.78868000  1
  H  167  1  0.14139000  0.88235400  0.15293100  1
  H  168  1  0.11926700  0.78866000  0.25317400  1
  H  179  1  0.64232600  0.11901800  0.84831100  1
  H  180  1  0.61743300  0.21282100  0.74851000  1
  H  191  1  0.63650000  0.97569500  0.43137500  1
  H  192  1  0.73441400  0.99767200  0.54718300  1
  H  203  1  0.13638600  0.02539100  0.57005500  1
  H  204  1  0.23437800  0.00385000  0.45420100  1
  H  215  1  0.88655000  0.57004500  0.97606800  1
  H  216  1  0.98452400  0.45419800  0.99766900  1
  H  227  1  0.38660200  0.43138800  0.02520500  1
  H  228  1  0.48471600  0.54721200  0.00379800  1
  N  8  1  0.81857800  0.05475200  0.30748100  1
  N  15  1  0.17645500  0.87981200  0.35649800  1
  N  17  1  0.02697100  0.03768800  0.26987800  1
  N  18  1  0.05989400  0.00565300  0.40566300  1
  N  27  1  0.10228500  0.87371800  0.28274700  1
  N  29  1  0.14538100  0.94294600  0.42222900  1
  N  31  1  0.91625200  0.07611100  0.25463300  1
  N  33  1  0.83371600  0.99308100  0.37583500  1
  N  42  1  0.31860900  0.94660200  0.69393400  1
  N  49  1  0.67684700  0.12127700  0.64489900  1
  N  51  1  0.52698900  0.96379900  0.73148600  1
  N  52  1  0.55976400  0.99574800  0.59566500  1
  N  61  1  0.60253500  0.12767200  0.71857000  1
  N  63  1  0.64522800  0.05847400  0.57902700  1
  N  65  1  0.41631500  0.92531800  0.74676500  1
  N  67  1  0.33365000  0.00827300  0.62556600  1
  N  76  1  0.06879500  0.69394700  0.05491200  1
  N  83  1  0.42618600  0.64497100  0.87947600  1
  N  85  1  0.27716500  0.73152600  0.03762900  1
  N  86  1  0.31020400  0.59581900  0.00564100  1
  N  95  1  0.35205500  0.71872700  0.87361400  1
  N  97  1  0.39577300  0.57940000  0.94296500  1
  N  99  1  0.16655400  0.74677500  0.07618600  1
  N  101  1  0.08383100  0.62554600  0.99327100  1
  N  110  1  0.56876000  0.30738000  0.94660500  1
  N  117  1  0.92622500  0.35653700  0.12184700  1
  N  119  1  0.77720200  0.26989300  0.96368400  1
  N  120  1  0.81008000  0.40563100  0.99575400  1
  N  129  1  0.85216800  0.28271700  0.12774400  1
  N  131  1  0.89549200  0.42218000  0.05852400  1
  N  133  1  0.66655400  0.25461400  0.92520400  1
  N  135  1  0.58386300  0.37580900  0.00819800  1
  N  138  1  0.90038800  0.13687700  0.18341200  1
  N  140  1  0.88890800  0.19232300  0.23464200  1
  N  150  1  0.40021600  0.86457600  0.81797900  1
  N  152  1  0.38933000  0.80904900  0.76676500  1
  N  162  1  0.15085200  0.81801800  0.13695900  1
  N  164  1  0.13852500  0.76677200  0.19228800  1
  N  174  1  0.65126200  0.18336900  0.86435700  1
  N  176  1  0.63753000  0.23466300  0.80925200  1
  N  186  1  0.72673000  0.98322700  0.42555900  1
  N  188  1  0.78081600  0.99557100  0.48936900  1
  N  198  1  0.22662900  0.01796600  0.57586100  1
  N  200  1  0.28075800  0.00583500  0.51203200  1
  N  210  1  0.97678600  0.57585800  0.98353100  1
  N  212  1  0.03091000  0.51202200  0.99566900  1
  N  222  1  0.47684400  0.42554600  0.01781100  1
  N  224  1  0.53103800  0.48935900  0.00575200  1
  O  147  1  0.87568800  0.22501300  0.08152300  1
  O  148  1  0.91150500  0.13639400  0.30173900  1
  O  159  1  0.37588300  0.77635200  0.91985100  1
  O  160  1  0.41180300  0.86501400  0.69967500  1
  O  171  1  0.12511400  0.91993000  0.22489300  1
  O  172  1  0.16165600  0.69968400  0.13647800  1
  O  183  1  0.62414700  0.08145600  0.77666200  1
  O  184  1  0.66119200  0.30174100  0.86496200  1
  O  195  1  0.57456900  0.99401600  0.53165300  1
  O  196  1  0.88078100  0.01224700  0.44165100  1
  O  207  1  0.07452700  0.00726300  0.46970500  1
  O  208  1  0.38076900  0.98919000  0.55973000  1
  O  219  1  0.82468800  0.46967600  0.99416600  1
  O  220  1  0.13093500  0.55971700  0.01232500  1
  O  231  1  0.32483600  0.53177700  0.00714700  1
  O  232  1  0.63102600  0.44161500  0.98909500  1
