# generated using pymatgen
data_Zn3H24C38(N3O2)4
_symmetry_space_group_name_H-M   'P 1'
_cell_length_a   11.45810000
_cell_length_b   11.68190000
_cell_length_c   11.86960000
_cell_angle_alpha   64.13200000
_cell_angle_beta   81.20200000
_cell_angle_gamma   72.66300000
_symmetry_Int_Tables_number   1
_chemical_formula_structural   Zn3H24C38(N3O2)4
_chemical_formula_sum   'Zn3 H24 C38 N12 O8'
_cell_volume   1364.14690548
_cell_formula_units_Z   1
loop_
 _symmetry_equiv_pos_site_id
 _symmetry_equiv_pos_as_xyz
  1  'x, y, z'
loop_
 _atom_site_type_symbol
 _atom_site_label
 _atom_site_symmetry_multiplicity
 _atom_site_fract_x
 _atom_site_fract_y
 _atom_site_fract_z
 _atom_site_occupancy
  Zn  Zn1  1  0.00000000  0.00000000  0.50000000  1.0
  Zn  Zn2  1  0.00000000  0.50000000  0.50000000  1.0
  Zn  Zn3  1  0.00000000  0.00000000  0.00000000  1.0
  H  H1  1  0.77980000  0.99930000  0.68800000  1.0
  H  H2  1  0.64010000  0.40190000  0.36740000  1.0
  H  H3  1  0.58190000  0.11710000  0.69960000  1.0
  H  H4  1  0.20840000  0.37220000  0.69980000  1.0
  H  H5  1  0.83640000  0.27620000  0.36620000  1.0
  H  H6  1  0.41630000  0.27710000  0.71480000  1.0
  H  H7  1  0.44170000  0.44190000  0.33910000  1.0
  H  H8  1  0.23380000  0.52980000  0.33630000  1.0
  H  H9  1  0.53960000  0.19440000  0.95140000  1.0
  H  H10  1  0.84110000  0.81370000  0.03160000  1.0
  H  H11  1  0.64390000  0.80770000  0.03470000  1.0
  H  H12  1  0.74040000  0.19000000  0.94570000  1.0
  H  H13  1  0.22020000  0.00070000  0.31200000  1.0
  H  H14  1  0.35990000  0.59810000  0.63260000  1.0
  H  H15  1  0.41810000  0.88290000  0.30040000  1.0
  H  H16  1  0.79160000  0.62780000  0.30020000  1.0
  H  H17  1  0.16360000  0.72380000  0.63380000  1.0
  H  H18  1  0.58370000  0.72290000  0.28520000  1.0
  H  H19  1  0.55830000  0.55810000  0.66090000  1.0
  H  H20  1  0.76620000  0.47020000  0.66370000  1.0
  H  H21  1  0.46040000  0.80560000  0.04860000  1.0
  H  H22  1  0.15890000  0.18630000  0.96840000  1.0
  H  H23  1  0.35610000  0.19230000  0.96530000  1.0
  H  H24  1  0.25960000  0.81000000  0.05430000  1.0
  C  C1  1  0.75080000  0.08060000  0.62230000  1.0
  C  C2  1  0.02330000  0.22050000  0.61950000  1.0
  C  C3  1  0.03960000  0.96680000  0.76660000  1.0
  C  C4  1  0.45330000  0.34370000  0.52750000  1.0
  C  C5  1  0.66570000  0.31960000  0.43300000  1.0
  C  C6  1  0.63130000  0.15060000  0.62980000  1.0
  C  C7  1  0.25580000  0.38420000  0.62660000  1.0
  C  C8  1  0.05150000  0.24760000  0.48390000  1.0
  C  C9  1  0.01960000  0.11130000  0.72980000  1.0
  C  C10  1  0.58540000  0.27240000  0.53140000  1.0
  C  C11  1  0.78400000  0.24330000  0.43310000  1.0
  C  C12  1  0.38120000  0.32640000  0.63660000  1.0
  C  C13  1  0.39630000  0.42390000  0.41390000  1.0
  C  C14  1  0.27090000  0.47690000  0.41320000  1.0
  C  C15  1  0.56560000  0.00060000  0.99670000  1.0
  C  C16  1  0.59920000  0.11520000  0.96840000  1.0
  C  C17  1  0.77950000  0.89130000  0.01520000  1.0
  C  C18  1  0.66090000  0.88660000  0.01830000  1.0
  C  C19  1  0.72030000  0.11170000  0.96550000  1.0
  C  C20  1  0.24920000  0.91940000  0.37770000  1.0
  C  C21  1  0.97670000  0.77950000  0.38050000  1.0
  C  C22  1  0.96040000  0.03320000  0.23340000  1.0
  C  C23  1  0.54670000  0.65630000  0.47250000  1.0
  C  C24  1  0.33430000  0.68040000  0.56700000  1.0
  C  C25  1  0.36870000  0.84940000  0.37020000  1.0
  C  C26  1  0.74420000  0.61580000  0.37340000  1.0
  C  C27  1  0.94850000  0.75240000  0.51610000  1.0
  C  C28  1  0.98040000  0.88870000  0.27020000  1.0
  C  C29  1  0.41460000  0.72760000  0.46860000  1.0
  C  C30  1  0.21600000  0.75670000  0.56690000  1.0
  C  C31  1  0.61880000  0.67360000  0.36340000  1.0
  C  C32  1  0.60370000  0.57610000  0.58610000  1.0
  C  C33  1  0.72910000  0.52310000  0.58680000  1.0
  C  C34  1  0.43440000  0.99940000  0.00330000  1.0
  C  C35  1  0.40080000  0.88480000  0.03160000  1.0
  C  C36  1  0.22050000  0.10870000  0.98480000  1.0
  C  C37  1  0.33910000  0.11340000  0.98170000  1.0
  C  C38  1  0.27970000  0.88830000  0.03450000  1.0
  N  N1  1  0.99680000  0.32400000  0.65050000  1.0
  N  N2  1  0.82680000  0.12420000  0.52510000  1.0
  N  N3  1  0.20040000  0.45590000  0.51720000  1.0
  N  N4  1  0.97660000  0.28290000  0.77350000  1.0
  N  N5  1  0.99070000  0.15370000  0.82250000  1.0
  N  N6  1  0.81130000  0.00140000  0.98980000  1.0
  N  N7  1  0.00320000  0.67600000  0.34950000  1.0
  N  N8  1  0.17320000  0.87580000  0.47490000  1.0
  N  N9  1  0.79960000  0.54410000  0.48280000  1.0
  N  N10  1  0.02340000  0.71710000  0.22650000  1.0
  N  N11  1  0.00930000  0.84630000  0.17750000  1.0
  N  N12  1  0.18870000  0.99860000  0.01020000  1.0
  O  O1  1  0.08360000  0.15490000  0.44960000  1.0
  O  O2  1  0.04370000  0.36720000  0.41150000  1.0
  O  O3  1  0.04360000  0.92220000  0.68830000  1.0
  O  O4  1  0.05210000  0.89570000  0.88350000  1.0
  O  O5  1  0.91640000  0.84510000  0.55040000  1.0
  O  O6  1  0.95630000  0.63280000  0.58850000  1.0
  O  O7  1  0.95640000  0.07780000  0.31170000  1.0
  O  O8  1  0.94790000  0.10430000  0.11650000  1.0
