# generated using pymatgen
data_MnH4(C2O)4
_symmetry_space_group_name_H-M   'P 1'
_cell_length_a   9.66129000
_cell_length_b   12.46876000
_cell_length_c   12.61937000
_cell_angle_alpha   105.67905000
_cell_angle_beta   111.39635000
_cell_angle_gamma   108.03674000
_symmetry_Int_Tables_number   1
_chemical_formula_structural   MnH4(C2O)4
_chemical_formula_sum   'Mn4 H16 C32 O16'
_cell_volume   1213.24772307
_cell_formula_units_Z   4
loop_
 _symmetry_equiv_pos_site_id
 _symmetry_equiv_pos_as_xyz
  1  'x, y, z'
loop_
 _atom_site_type_symbol
 _atom_site_label
 _atom_site_symmetry_multiplicity
 _atom_site_fract_x
 _atom_site_fract_y
 _atom_site_fract_z
 _atom_site_occupancy
  Mn  Mn1  1  0.24034000  0.32553000  0.14577000  1.0
  Mn  Mn2  1  0.75966000  0.67447000  0.85423000  1.0
  Mn  Mn3  1  0.00000000  0.00000000  0.00000000  1.0
  Mn  Mn4  1  0.00000000  0.50000000  0.00000000  1.0
  H  H1  1  0.48366000  0.36609000  0.51990000  1.0
  H  H2  1  0.56800000  0.15147000  0.73117000  1.0
  H  H3  1  0.34433000  0.95556000  0.54004000  1.0
  H  H4  1  0.19463000  0.96619000  0.33685000  1.0
  H  H5  1  0.70937000  0.01391000  0.84601000  1.0
  H  H6  1  0.40681000  0.87451000  0.75045000  1.0
  H  H7  1  0.23550000  0.95261000  0.82713000  1.0
  H  H8  1  0.66081000  0.31356000  0.07122000  1.0
  H  H9  1  0.51634000  0.63391000  0.48010000  1.0
  H  H10  1  0.43200000  0.84853000  0.26883000  1.0
  H  H11  1  0.65567000  0.04444000  0.45997000  1.0
  H  H12  1  0.80538000  0.03382000  0.66315000  1.0
  H  H13  1  0.29063000  0.98610000  0.15400000  1.0
  H  H14  1  0.59319000  0.12550000  0.24956000  1.0
  H  H15  1  0.76451000  0.04739000  0.17287000  1.0
  H  H16  1  0.33919000  0.68644000  0.92878000  1.0
  C  C1  1  0.24908000  0.17214000  0.29348000  1.0
  C  C2  1  0.33295000  0.16639000  0.41591000  1.0
  C  C3  1  0.45493000  0.27665000  0.52465000  1.0
  C  C4  1  0.53993000  0.27100000  0.63808000  1.0
  C  C5  1  0.50082000  0.15481000  0.64282000  1.0
  C  C6  1  0.37509000  0.04523000  0.53546000  1.0
  C  C7  1  0.29169000  0.05060000  0.42200000  1.0
  C  C8  1  0.88728000  0.25218000  0.02457000  1.0
  C  C9  1  0.70566000  0.17135000  0.96651000  1.0
  C  C10  1  0.63271000  0.04760000  0.87583000  1.0
  C  C11  1  0.46268000  0.96978000  0.82195000  1.0
  C  C12  1  0.36634000  0.01329000  0.86282000  1.0
  C  C13  1  0.43783000  0.13703000  0.95330000  1.0
  C  C14  1  0.60639000  0.21749000  0.00221000  1.0
  C  C15  1  0.66850000  0.38895000  0.75369000  1.0
  C  C16  1  0.33458000  0.17622000  0.00311000  1.0
  C  C17  1  0.75093000  0.82786000  0.70652000  1.0
  C  C18  1  0.66706000  0.83362000  0.58409000  1.0
  C  C19  1  0.54507000  0.72335000  0.47535000  1.0
  C  C20  1  0.46008000  0.72900000  0.36192000  1.0
  C  C21  1  0.49919000  0.84519000  0.35718000  1.0
  C  C22  1  0.62491000  0.95478000  0.46454000  1.0
  C  C23  1  0.70831000  0.94940000  0.57800000  1.0
  C  C24  1  0.11273000  0.74782000  0.97543000  1.0
  C  C25  1  0.29435000  0.82866000  0.03349000  1.0
  C  C26  1  0.36729000  0.95241000  0.12417000  1.0
  C  C27  1  0.53732000  0.03022000  0.17805000  1.0
  C  C28  1  0.63366000  0.98671000  0.13718000  1.0
  C  C29  1  0.56217000  0.86297000  0.04671000  1.0
  C  C30  1  0.39361000  0.78252000  0.99779000  1.0
  C  C31  1  0.33150000  0.61106000  0.24631000  1.0
  C  C32  1  0.66543000  0.82378000  0.99689000  1.0
  O  O1  1  0.29708000  0.28006000  0.29311000  1.0
  O  O2  1  0.13729000  0.06967000  0.19743000  1.0
  O  O3  1  0.98485000  0.20034000  0.02623000  1.0
  O  O4  1  0.94670000  0.37136000  0.07391000  1.0
  O  O5  1  0.77878000  0.38129000  0.84262000  1.0
  O  O6  1  0.65835000  0.48892000  0.75682000  1.0
  O  O7  1  0.38311000  0.29288000  0.06575000  1.0
  O  O8  1  0.20290000  0.08930000  0.98287000  1.0
  O  O9  1  0.70292000  0.71994000  0.70690000  1.0
  O  O10  1  0.86271000  0.93033000  0.80257000  1.0
  O  O11  1  0.01515000  0.79966000  0.97377000  1.0
  O  O12  1  0.05330000  0.62865000  0.92609000  1.0
  O  O13  1  0.22122000  0.61872000  0.15738000  1.0
  O  O14  1  0.34165000  0.51108000  0.24318000  1.0
  O  O15  1  0.61689000  0.70712000  0.93425000  1.0
  O  O16  1  0.79710000  0.91070000  0.01714000  1.0
