# generated using pymatgen
data_SiH24(C17N2)2
_symmetry_space_group_name_H-M   'P 1'
_cell_length_a   42.72460000
_cell_length_b   49.37180000
_cell_length_c   49.37180000
_cell_angle_alpha   120.00000000
_cell_angle_beta   90.00000000
_cell_angle_gamma   90.00000000
_symmetry_Int_Tables_number   1
_chemical_formula_structural   SiH24(C17N2)2
_chemical_formula_sum   'Si12 H288 C408 N48'
_cell_volume   90191.69715375
_cell_formula_units_Z   12
loop_
 _symmetry_equiv_pos_site_id
 _symmetry_equiv_pos_as_xyz
  1  'x, y, z'
loop_
 _atom_site_type_symbol
 _atom_site_label
 _atom_site_symmetry_multiplicity
 _atom_site_fract_x
 _atom_site_fract_y
 _atom_site_fract_z
 _atom_site_occupancy
  Si  7  1  0.88252600  0.60256500  0.44081600  1
  Si  48  1  0.88241200  0.89915400  0.45728200  1
  Si  89  1  0.88257700  0.61908000  0.16073300  1
  Si  130  1  0.38268800  0.47802200  0.59860500  1
  Si  171  1  0.38229000  0.18147900  0.58209400  1
  Si  212  1  0.38246800  0.46160300  0.87871400  1
  Si  253  1  0.06792800  0.18068100  0.59490300  1
  Si  294  1  0.06819000  0.46504900  0.58477000  1
  Si  335  1  0.06799300  0.47492500  0.87920700  1
  Si  376  1  0.56801200  0.90003100  0.44450200  1
  Si  417  1  0.56799100  0.61575800  0.45471800  1
  Si  458  1  0.56807500  0.60548100  0.16018700  1
  H  26  1  0.84776200  0.61409300  0.35590400  1
  H  27  1  0.84359300  0.62061700  0.40656800  1
  H  28  1  0.92804000  0.55781000  0.33846800  1
  H  29  1  0.92456800  0.56473300  0.38935800  1
  H  30  1  0.93574600  0.63589600  0.43989500  1
  H  31  1  0.94214100  0.68882400  0.45275800  1
  H  32  1  0.85103100  0.70960700  0.49057600  1
  H  33  1  0.84389600  0.65698300  0.47727000  1
  H  34  1  0.86121400  0.61749500  0.50089600  1
  H  35  1  0.81179000  0.61149600  0.51940800  1
  H  36  1  0.77774800  0.56305600  0.42673400  1
  H  37  1  0.82710900  0.56797000  0.40782500  1
  H  38  1  0.89103100  0.53791800  0.41655500  1
  H  39  1  0.92984900  0.62265900  0.48850300  1
  H  40  1  0.95979300  0.59393200  0.50591800  1
  H  41  1  0.92123000  0.50947500  0.43446400  1
  H  67  1  0.84757900  0.80273600  0.44577100  1
  H  68  1  0.84346200  0.84685900  0.43922600  1
  H  69  1  0.92786500  0.84153900  0.50205400  1
  H  70  1  0.92443300  0.88550200  0.49512500  1
  H  71  1  0.93566000  0.86493800  0.42396800  1
  H  72  1  0.94214200  0.82495600  0.37104400  1
  H  73  1  0.85102600  0.84195800  0.35019000  1
  H  74  1  0.84383600  0.88120400  0.40281600  1
  H  75  1  0.86109300  0.94428800  0.44233200  1
  H  76  1  0.81167700  0.96884500  0.44838500  1
  H  77  1  0.77766700  0.92465900  0.49689400  1
  H  78  1  0.82701900  0.90078300  0.49191100  1
  H  79  1  0.89090900  0.93955000  0.52192800  1
  H  80  1  0.92973200  0.92676400  0.43720600  1
  H  81  1  0.95969100  0.97288100  0.46593200  1
  H  82  1  0.92111700  0.98587800  0.55037600  1
  H  108  1  0.84766500  0.70401300  0.25708400  1
  H  109  1  0.84359300  0.65332400  0.21299300  1
  H  110  1  0.92795100  0.72150300  0.21828900  1
  H  111  1  0.92456200  0.67059200  0.17435700  1
  H  112  1  0.93587000  0.62002000  0.19494000  1
  H  113  1  0.94238800  0.60713000  0.23495800  1
  H  114  1  0.85127300  0.56927800  0.21804300  1
  H  115  1  0.84403900  0.58260100  0.17877800  1
  H  116  1  0.86125200  0.55896000  0.11567700  1
  H  117  1  0.81182100  0.54042700  0.09117600  1
  H  118  1  0.77782500  0.63311200  0.13522300  1
  H  119  1  0.82718200  0.65203300  0.15903500  1
  H  120  1  0.89103700  0.64331900  0.12032600  1
  H  121  1  0.92994200  0.57143900  0.13315000  1
  H  122  1  0.95991100  0.55406400  0.08703800  1
  H  123  1  0.92126500  0.62546300  0.07400700  1
  H  149  1  0.34786300  0.46652600  0.68352000  1
  H  150  1  0.34374300  0.45996300  0.63284400  1
  H  151  1  0.42810200  0.52286500  0.70100400  1
  H  152  1  0.42468000  0.51590100  0.65010400  1
  H  153  1  0.43595500  0.44473100  0.59960200  1
  H  154  1  0.44240500  0.39178800  0.58667800  1
  H  155  1  0.35132900  0.37093800  0.54872100  1
  H  156  1  0.34414800  0.42354500  0.56208700  1
  H  157  1  0.36142200  0.46305200  0.53849500  1
  H  158  1  0.31201200  0.46906600  0.51994400  1
  H  159  1  0.27789600  0.51747200  0.61258500  1
  H  160  1  0.32722300  0.51255500  0.63153600  1
  H  161  1  0.39115600  0.54268500  0.62286400  1
  H  162  1  0.43002800  0.45796200  0.55096100  1
  H  163  1  0.45999500  0.48669100  0.53357100  1
  H  164  1  0.42139400  0.57114000  0.60498400  1
  H  190  1  0.34754400  0.27784800  0.59346700  1
  H  191  1  0.34335500  0.23374000  0.60003100  1
  H  192  1  0.42788000  0.23900400  0.53729300  1
  H  193  1  0.42438800  0.19505500  0.54425000  1
  H  194  1  0.43558700  0.21573200  0.61535300  1
  H  195  1  0.44208000  0.25577300  0.66828100  1
  H  196  1  0.35095200  0.23885100  0.68918200  1
  H  197  1  0.34373100  0.19957800  0.63658700  1
  H  198  1  0.36098800  0.13641600  0.59714500  1
  H  199  1  0.31157400  0.11181200  0.59108300  1
  H  200  1  0.27755200  0.15591600  0.54251000  1
  H  201  1  0.32686800  0.17981600  0.54748900  1
  H  202  1  0.39081200  0.14102900  0.51744000  1
  H  203  1  0.42957700  0.15389800  0.60222700  1
  H  204  1  0.45957300  0.10780100  0.57355100  1
  H  205  1  0.42107600  0.09470700  0.48904000  1
  H  231  1  0.34760500  0.37675200  0.78231100  1
  H  232  1  0.34351100  0.42740700  0.82644600  1
  H  233  1  0.42785400  0.35918200  0.82108300  1
  H  234  1  0.42445100  0.41008400  0.86507400  1
  H  235  1  0.43581400  0.46062100  0.84452600  1
  H  236  1  0.44236800  0.47351000  0.80450700  1
  H  237  1  0.35127500  0.51137200  0.82136900  1
  H  238  1  0.34399100  0.49805700  0.86062900  1
  H  239  1  0.36120100  0.52174200  0.92376700  1
  H  240  1  0.31177800  0.54032900  0.94830700  1
  H  241  1  0.27769500  0.44766400  0.90422500  1
  H  242  1  0.32701500  0.42871100  0.88038400  1
  H  243  1  0.39091300  0.43730600  0.91907900  1
  H  244  1  0.42976200  0.50930600  0.90638500  1
  H  245  1  0.45967200  0.52668400  0.95253200  1
  H  246  1  0.42109700  0.45518700  0.96544700  1
  H  272  1  0.10874500  0.27177800  0.68244800  1
  H  273  1  0.11096100  0.22829900  0.63130400  1
  H  274  1  0.01821900  0.24485400  0.69435900  1
  H  275  1  0.01997400  0.20138000  0.64284200  1
  H  276  1  0.01648900  0.21177500  0.58687900  1
  H  277  1  0.01430300  0.25233100  0.57438400  1
  H  278  1  0.11056100  0.24069100  0.55258000  1
  H  279  1  0.11340700  0.20105200  0.56589500  1
  H  280  1  0.10022300  0.14071200  0.53817000  1
  H  281  1  0.15022900  0.11752100  0.52866100  1
  H  282  1  0.15870900  0.14573000  0.62458900  1
  H  283  1  0.10958100  0.17023300  0.63432300  1
  H  284  1  0.04935100  0.14625000  0.62363600  1
  H  285  1  0.02736100  0.14964400  0.54165700  1
  H  286  1  0.99444200  0.10583700  0.52502900  1
  H  287  1  0.01593200  0.10258600  0.60696100  1
  H  313  1  0.10878700  0.37757800  0.58859700  1
  H  314  1  0.11110400  0.42867300  0.59615000  1
  H  315  1  0.01839900  0.36562700  0.54947100  1
  H  316  1  0.02025300  0.41710000  0.55740500  1
  H  317  1  0.01673500  0.47293600  0.62374700  1
  H  318  1  0.01447100  0.48527800  0.67672100  1
  H  319  1  0.11067800  0.50717900  0.68712500  1
  H  320  1  0.11363000  0.49403600  0.63421000  1
  H  321  1  0.10049400  0.52176500  0.60150400  1
  H  322  1  0.15052400  0.53126700  0.58788600  1
  H  323  1  0.15913700  0.43531100  0.52033900  1
  H  324  1  0.10995700  0.42557600  0.53503300  1
  H  325  1  0.04975600  0.43634500  0.52156200  1
  H  326  1  0.02755300  0.51824900  0.60692400  1
  H  327  1  0.99460000  0.53481000  0.57972400  1
  H  328  1  0.01629900  0.45295900  0.49454200  1
  H  354  1  0.10862800  0.47084400  0.78779400  1
  H  355  1  0.11090500  0.46336800  0.83138700  1
  H  356  1  0.01823700  0.50999400  0.81488000  1
  H  357  1  0.02005400  0.50214300  0.85846900  1
  H  358  1  0.01663400  0.43581000  0.84814500  1
  H  359  1  0.01448300  0.38276800  0.80766000  1
  H  360  1  0.11066900  0.37257800  0.81948200  1
  H  361  1  0.11349600  0.42558700  0.85909700  1
  H  362  1  0.10027900  0.45852600  0.91945800  1
  H  363  1  0.15028100  0.47225800  0.94257800  1
  H  364  1  0.15888700  0.53944000  0.91369200  1
  H  365  1  0.10972800  0.52462600  0.88925400  1
  H  366  1  0.04948600  0.53812200  0.91354100  1
  H  367  1  0.02738000  0.45287300  0.91035800  1
  H  368  1  0.99446200  0.48014100  0.95411900  1
  H  369  1  0.01606800  0.56521600  0.95719200  1
  H  395  1  0.60871000  0.80875600  0.35707200  1
  H  396  1  0.61095900  0.85228900  0.40817600  1
  H  397  1  0.51831900  0.83585600  0.34502800  1
  H  398  1  0.52010800  0.87938900  0.39650400  1
  H  399  1  0.51669700  0.86881400  0.45244400  1
  H  400  1  0.51454200  0.82837900  0.46505700  1
  H  401  1  0.61072300  0.84034100  0.48719500  1
  H  402  1  0.61351800  0.87990500  0.47375300  1
  H  403  1  0.60025600  0.94021300  0.50120600  1
  H  404  1  0.65025800  0.96334900  0.51067100  1
  H  405  1  0.65889700  0.93471600  0.41466300  1
  H  406  1  0.60974000  0.91025200  0.40495900  1
  H  407  1  0.54947700  0.93454500  0.41584400  1
  H  408  1  0.52734200  0.93098300  0.49769400  1
  H  409  1  0.49437800  0.97472600  0.51430900  1
  H  410  1  0.51600900  0.97817000  0.43250900  1
  H  436  1  0.60877300  0.70319700  0.45094400  1
  H  437  1  0.61096900  0.65206800  0.44330700  1
  H  438  1  0.51839400  0.71528700  0.49012600  1
  H  439  1  0.52014000  0.66379600  0.48213200  1
  H  440  1  0.51658300  0.60789100  0.41566300  1
  H  441  1  0.51432900  0.59533800  0.36264000  1
  H  442  1  0.61049600  0.57311000  0.35226000  1
  H  443  1  0.61340100  0.58649700  0.40522800  1
  H  444  1  0.60019500  0.55899500  0.43804400  1
  H  445  1  0.65023200  0.54944900  0.45156300  1
  H  446  1  0.65902100  0.64541200  0.51902100  1
  H  447  1  0.60982700  0.65519900  0.50441600  1
  H  448  1  0.54956100  0.64445000  0.51792100  1
  H  449  1  0.52726700  0.56261900  0.43255100  1
  H  450  1  0.49435900  0.54603100  0.45974000  1
  H  451  1  0.51614300  0.62781700  0.54494300  1
  H  477  1  0.60877100  0.60920400  0.25140900  1
  H  478  1  0.61104800  0.61679900  0.20788900  1
  H  479  1  0.51831500  0.57022600  0.22435400  1
  H  480  1  0.52013300  0.57819100  0.18084000  1
  H  481  1  0.51660900  0.64454600  0.19129500  1
  H  482  1  0.51437100  0.69758500  0.23180800  1
  H  483  1  0.61059200  0.70787700  0.22014800  1
  H  484  1  0.61349700  0.65491500  0.18054300  1
  H  485  1  0.60039200  0.62221100  0.12019000  1
  H  486  1  0.65041900  0.60857200  0.09706700  1
  H  487  1  0.65898300  0.54100800  0.12544700  1
  H  488  1  0.60981900  0.55571400  0.14988700  1
  H  489  1  0.54959200  0.54227000  0.12571300  1
  H  490  1  0.52744800  0.62762200  0.12914200  1
  H  491  1  0.49447400  0.60044200  0.08541000  1
  H  492  1  0.51611000  0.51526000  0.08209500  1
  H  499  1  0.90457400  0.53629700  0.28351100  1
  H  501  1  0.87580800  0.66146000  0.31291700  1
  H  502  1  0.86304200  0.64177600  0.27356400  1
  H  503  1  0.90292800  0.65289400  0.28263500  1
  H  510  1  0.90450300  0.80808700  0.52352400  1
  H  512  1  0.87543000  0.71233500  0.39843600  1
  H  513  1  0.86268000  0.69270100  0.41816200  1
  H  514  1  0.90255000  0.69059800  0.40697500  1
  H  521  1  0.90447300  0.77645500  0.25172900  1
  H  523  1  0.87552000  0.74704000  0.34744300  1
  H  524  1  0.86274400  0.78638800  0.36709000  1
  H  525  1  0.90262000  0.77732900  0.36920100  1
  H  532  1  0.40455400  0.54437200  0.75596100  1
  H  534  1  0.37600100  0.41914400  0.72648600  1
  H  535  1  0.36318400  0.43880000  0.76582300  1
  H  536  1  0.40309100  0.42775200  0.75680300  1
  H  543  1  0.40451800  0.27247300  0.51576300  1
  H  545  1  0.37565500  0.36818700  0.64092000  1
  H  546  1  0.36299000  0.38790100  0.62125000  1
  H  547  1  0.40285200  0.38988400  0.63241100  1
  H  554  1  0.40438700  0.30426400  0.78761400  1
  H  556  1  0.37549300  0.33376700  0.69194700  1
  H  557  1  0.36270200  0.29442100  0.67226800  1
  H  558  1  0.40258700  0.30347200  0.67018900  1
  H  565  1  0.03834500  0.27193100  0.74966800  1
  H  567  1  0.09677100  0.36545600  0.73064300  1
  H  568  1  0.11027100  0.37967400  0.76924100  1
  H  569  1  0.07250400  0.39027900  0.76253600  1
  H  576  1  0.03850200  0.31029200  0.52142600  1
  H  578  1  0.09648700  0.32961500  0.63426700  1
  H  579  1  0.11000000  0.29100000  0.61000800  1
  H  580  1  0.07217600  0.29775200  0.62721000  1
  H  587  1  0.03836600  0.53804900  0.78766300  1
  H  589  1  0.09659500  0.42536700  0.69414700  1
  H  590  1  0.11014500  0.44970400  0.67989700  1
  H  591  1  0.07234700  0.43246300  0.66932800  1
  H  598  1  0.53843000  0.80855400  0.28971700  1
  H  600  1  0.59653700  0.71512300  0.30909500  1
  H  601  1  0.61005400  0.70076900  0.27048100  1
  H  602  1  0.57224600  0.69028400  0.27723000  1
  H  609  1  0.53845100  0.77056700  0.51812900  1
  H  611  1  0.59687400  0.75132900  0.40550300  1
  H  612  1  0.61035100  0.78994700  0.42982700  1
  H  613  1  0.57259000  0.78318900  0.41249800  1
  H  620  1  0.53835500  0.54215400  0.25162200  1
  H  622  1  0.59664200  0.65485600  0.34503400  1
  H  623  1  0.61008400  0.63057800  0.35939500  1
  H  624  1  0.57230200  0.64787600  0.36987500  1
  H  631  1  0.69809000  0.54325700  0.46841200  1
  H  633  1  0.74148400  0.66862200  0.51751900  1
  H  634  1  0.77186000  0.64903800  0.49032000  1
  H  635  1  0.77454100  0.65541700  0.52904700  1
  H  642  1  0.69807100  0.98647600  0.51678600  1
  H  644  1  0.74126100  0.90969900  0.39144000  1
  H  645  1  0.77160400  0.90208600  0.41105700  1
  H  646  1  0.77441000  0.93431200  0.40449900  1
  H  653  1  0.69815500  0.59142900  0.07379600  1
  H  655  1  0.74148400  0.54253400  0.15026700  1
  H  656  1  0.77191500  0.56965600  0.15779700  1
  H  657  1  0.77450900  0.53089700  0.12548900  1
  H  664  1  0.19835800  0.53743200  0.57106600  1
  H  666  1  0.24157500  0.41197200  0.52163900  1
  H  667  1  0.27195300  0.43147400  0.54885900  1
  H  668  1  0.27467500  0.42516500  0.51015900  1
  H  675  1  0.19798600  0.09426300  0.52252700  1
  H  677  1  0.24106500  0.17076600  0.64794400  1
  H  678  1  0.27143300  0.17842600  0.62838700  1
  H  679  1  0.27422600  0.14617200  0.63490600  1
  H  686  1  0.19807300  0.48932300  0.96568200  1
  H  688  1  0.24138100  0.53814000  0.88915200  1
  H  689  1  0.27182700  0.51104200  0.88165500  1
  H  690  1  0.27439200  0.54981300  0.91395000  1
  H  697  1  0.94880000  0.53261900  0.55063500  1
  H  699  1  0.01869600  0.48888100  0.43701700  1
  H  700  1  0.00695100  0.52567600  0.44250500  1
  H  701  1  0.98200600  0.49261500  0.42261400  1
  H  708  1  0.94864100  0.07886600  0.52713200  1
  H  710  1  0.01850700  0.00919000  0.57112500  1
  H  711  1  0.00683200  0.97783500  0.53433200  1
  H  712  1  0.98183200  0.99101500  0.56735700  1
  H  719  1  0.94865800  0.50928600  0.98104200  1
  H  721  1  0.01871500  0.62284600  0.05063500  1
  H  722  1  0.00708200  0.61741100  0.08200400  1
  H  723  1  0.98207100  0.63728800  0.06887100  1
  H  730  1  0.44865000  0.54810500  0.48890700  1
  H  732  1  0.51884800  0.59180700  0.60234800  1
  H  733  1  0.50723000  0.55497000  0.59683400  1
  H  734  1  0.48222800  0.58797500  0.61680200  1
  H  741  1  0.44858900  0.00173000  0.51222400  1
  H  743  1  0.51850200  0.07157200  0.46845200  1
  H  744  1  0.50679000  0.10289900  0.50525000  1
  H  745  1  0.48181100  0.08971900  0.47220900  1
  H  752  1  0.44864100  0.57135900  0.05852300  1
  H  754  1  0.51855100  0.45774900  0.98864800  1
  H  755  1  0.50681600  0.46323400  0.95733700  1
  H  756  1  0.48186300  0.44334800  0.97050800  1
  C  1  1  0.94407600  0.54907300  0.47103600  1
  C  2  1  0.94640300  0.58192700  0.48619900  1
  C  3  1  0.92881700  0.59880400  0.47561400  1
  C  4  1  0.90843200  0.58319500  0.44968700  1
  C  5  1  0.90647200  0.55011700  0.43451900  1
  C  6  1  0.92428300  0.53317300  0.44489900  1
  C  8  1  0.84892600  0.59460400  0.45248700  1
  C  9  1  0.82467400  0.57714500  0.43140300  1
  C  10  1  0.79559400  0.57347600  0.44245900  1
  C  11  1  0.79018000  0.58659100  0.47485000  1
  C  12  1  0.81516900  0.60144700  0.49579600  1
  C  13  1  0.84425300  0.60510100  0.48470200  1
  C  14  1  0.88959200  0.64090600  0.45841400  1
  C  15  1  0.88289900  0.59231200  0.40310100  1
  C  16  1  0.86104500  0.60639300  0.39231600  1
  C  17  1  0.86359800  0.60278400  0.36234900  1
  C  18  1  0.88796300  0.58476900  0.34187600  1
  C  19  1  0.90930900  0.56989000  0.35209000  1
  C  20  1  0.90711500  0.57402100  0.38237300  1
  C  21  1  0.91827200  0.65138500  0.45234400  1
  C  22  1  0.92230800  0.68269900  0.46006400  1
  C  23  1  0.89775800  0.70439400  0.47423300  1
  C  24  1  0.86979200  0.69474200  0.48203500  1
  C  25  1  0.86569600  0.66336600  0.47401000  1
  C  42  1  0.94399000  0.98284900  0.51079200  1
  C  43  1  0.94631900  0.96515600  0.47793900  1
  C  44  1  0.92877100  0.93766800  0.46106000  1
  C  45  1  0.90831100  0.92739400  0.47665500  1
  C  46  1  0.90638900  0.94528300  0.50973700  1
  C  47  1  0.92422200  0.97258800  0.52668800  1
  C  49  1  0.84881200  0.91878100  0.46523800  1
  C  50  1  0.82457400  0.91517400  0.48272500  1
  C  51  1  0.79550300  0.92992800  0.48643500  1
  C  52  1  0.79010400  0.94919400  0.47331100  1
  C  53  1  0.81506500  0.95527700  0.45842400  1
  C  54  1  0.84413700  0.94049700  0.45473700  1
  C  55  1  0.88949400  0.87841100  0.41895100  1
  C  56  1  0.88278500  0.87168000  0.46751100  1
  C  57  1  0.86091800  0.84682200  0.45344200  1
  C  58  1  0.86343400  0.82047400  0.45707000  1
  C  59  1  0.88779200  0.81799100  0.47507700  1
  C  60  1  0.90918900  0.84304500  0.48989200  1
  C  61  1  0.90698400  0.86922800  0.48581100  1
  C  62  1  0.91819500  0.86189700  0.40847100  1
  C  63  1  0.92226500  0.83832300  0.37715300  1
  C  64  1  0.89775500  0.83081300  0.35542800  1
  C  65  1  0.86976700  0.84822700  0.36507700  1
  C  66  1  0.86563900  0.87156700  0.39645300  1
  C  83  1  0.94418800  0.58895300  0.07707100  1
  C  84  1  0.94652600  0.57378800  0.09475900  1
  C  85  1  0.92896500  0.58438000  0.12223700  1
  C  86  1  0.90847000  0.61022100  0.13249000  1
  C  87  1  0.90651500  0.62539000  0.11458200  1
  C  88  1  0.92441000  0.61510100  0.08732300  1
  C  90  1  0.84897600  0.60737200  0.14111300  1
  C  91  1  0.82473700  0.62845000  0.14468300  1
  C  92  1  0.79565900  0.61738400  0.12995900  1
  C  93  1  0.79023200  0.58498900  0.11074100  1
  C  94  1  0.81521000  0.56404100  0.10470000  1
  C  95  1  0.84429500  0.57514600  0.11944400  1
  C  96  1  0.88969000  0.60153700  0.18151400  1
  C  97  1  0.88291700  0.65679400  0.18817500  1
  C  98  1  0.86103200  0.66758600  0.21301900  1
  C  99  1  0.86351100  0.69758300  0.23934100  1
  C  100  1  0.88786000  0.71807800  0.24181600  1
  C  101  1  0.90925500  0.70785000  0.21676300  1
  C  102  1  0.90709600  0.67755900  0.19061600  1
  C  103  1  0.91838100  0.60762700  0.19804900  1
  C  104  1  0.92250100  0.59987300  0.22160900  1
  C  105  1  0.89802100  0.58565200  0.22914300  1
  C  106  1  0.87000400  0.57789800  0.21176200  1
  C  107  1  0.86585200  0.58590500  0.18840400  1
  C  124  1  0.44427100  0.53154800  0.56845700  1
  C  125  1  0.44660900  0.49869500  0.55329400  1
  C  126  1  0.42905200  0.48181600  0.56389900  1
  C  127  1  0.40857500  0.49741900  0.58975300  1
  C  128  1  0.40662000  0.53049600  0.60492200  1
  C  129  1  0.42447700  0.54745100  0.59459000  1
  C  131  1  0.34908900  0.48594000  0.58689600  1
  C  132  1  0.32482900  0.50341500  0.60796000  1
  C  133  1  0.29575000  0.50704500  0.59687200  1
  C  134  1  0.29036200  0.49392900  0.56447700  1
  C  135  1  0.31536100  0.47905100  0.54355400  1
  C  136  1  0.34444300  0.47543000  0.55467300  1
  C  137  1  0.38980800  0.43969800  0.58105900  1
  C  138  1  0.38303200  0.48829000  0.63632000  1
  C  139  1  0.36117600  0.47421100  0.64710600  1
  C  140  1  0.36369400  0.47784600  0.67708500  1
  C  141  1  0.38803600  0.49588300  0.69757500  1
  C  142  1  0.40938000  0.51077300  0.68737200  1
  C  143  1  0.40718900  0.50665600  0.65709200  1
  C  144  1  0.41849900  0.42923300  0.58712100  1
  C  145  1  0.42252700  0.39793300  0.57945800  1
  C  146  1  0.39804700  0.37619300  0.56516600  1
  C  147  1  0.37006500  0.38582800  0.55737000  1
  C  148  1  0.36594800  0.41720600  0.56540000  1
  C  165  1  0.44389600  0.09778600  0.52866500  1
  C  166  1  0.44618500  0.11549100  0.56152300  1
  C  167  1  0.42860800  0.14296500  0.57837000  1
  C  168  1  0.40816500  0.15320900  0.56273500  1
  C  169  1  0.40623600  0.13527600  0.52965800  1
  C  170  1  0.42409500  0.10798300  0.51274000  1
  C  172  1  0.34868600  0.16186300  0.57418800  1
  C  173  1  0.32445700  0.16539700  0.55664800  1
  C  174  1  0.29540600  0.15060000  0.55291100  1
  C  175  1  0.28999900  0.13137500  0.56608700  1
  C  176  1  0.31495200  0.12540700  0.58107000  1
  C  177  1  0.34400500  0.14021200  0.58476800  1
  C  178  1  0.38941200  0.20230600  0.62041500  1
  C  179  1  0.38266900  0.20887400  0.57175300  1
  C  180  1  0.36082000  0.23374900  0.58581100  1
  C  181  1  0.36337800  0.26008900  0.58217000  1
  C  182  1  0.38777400  0.26254700  0.56418500  1
  C  183  1  0.40915300  0.23747400  0.54938400  1
  C  184  1  0.40689400  0.21129100  0.55345800  1
  C  185  1  0.41812400  0.21879600  0.63085900  1
  C  186  1  0.42217600  0.24244900  0.66214900  1
  C  187  1  0.39769600  0.24995400  0.68389900  1
  C  188  1  0.36968400  0.23257100  0.67428300  1
  C  189  1  0.36554600  0.20920300  0.64291400  1
  C  206  1  0.44395000  0.49176900  0.96245900  1
  C  207  1  0.44626500  0.50697600  0.94480800  1
  C  208  1  0.42876200  0.49635800  0.91729000  1
  C  209  1  0.40834800  0.47045200  0.90697000  1
  C  210  1  0.40634900  0.45528300  0.92487400  1
  C  211  1  0.42417500  0.46561300  0.95218100  1
  C  213  1  0.34886700  0.47334500  0.89833300  1
  C  214  1  0.32461800  0.45229000  0.89479500  1
  C  215  1  0.29555300  0.46337900  0.90954700  1
  C  216  1  0.29016500  0.49578400  0.92877000  1
  C  217  1  0.31513900  0.51671300  0.93475200  1
  C  218  1  0.34420200  0.50558300  0.91997600  1
  C  219  1  0.38964400  0.47912500  0.85792600  1
  C  220  1  0.38279300  0.42388100  0.85128500  1
  C  221  1  0.36091800  0.41312200  0.82643200  1
  C  222  1  0.36343400  0.38315700  0.80006400  1
  C  223  1  0.38778100  0.36265000  0.79757000  1
  C  224  1  0.40916900  0.37285500  0.82262900  1
  C  225  1  0.40699000  0.40312100  0.84881200  1
  C  226  1  0.41836100  0.47306300  0.84144500  1
  C  227  1  0.42250100  0.48080800  0.81788100  1
  C  228  1  0.39802300  0.49500000  0.81029600  1
  C  229  1  0.37000000  0.50276100  0.82767000  1
  C  230  1  0.36581500  0.49476000  0.85102900  1
  C  247  1  0.00098500  0.10035300  0.56478000  1
  C  248  1  0.00444900  0.11511900  0.54668800  1
  C  249  1  0.02412600  0.14116000  0.55658200  1
  C  250  1  0.04054800  0.15363200  0.58521500  1
  C  251  1  0.03700200  0.13890300  0.60335100  1
  C  252  1  0.01733900  0.11288800  0.59343300  1
  C  254  1  0.10085300  0.16015900  0.58760700  1
  C  255  1  0.11756000  0.15905400  0.61176300  1
  C  256  1  0.14668800  0.14402000  0.60586200  1
  C  257  1  0.16041300  0.12961200  0.57568600  1
  C  258  1  0.14174200  0.12743700  0.55093500  1
  C  259  1  0.11209400  0.14169900  0.55666700  1
  C  260  1  0.06485000  0.20073900  0.57612100  1
  C  261  1  0.06623100  0.20931400  0.63204000  1
  C  262  1  0.09132200  0.23091000  0.64430200  1
  C  263  1  0.09000600  0.25685500  0.67461100  1
  C  264  1  0.06353000  0.26232700  0.69385400  1
  C  265  1  0.03830800  0.24100100  0.68165600  1
  C  266  1  0.03945500  0.21516500  0.65109800  1
  C  267  1  0.03618500  0.21598700  0.57771800  1
  C  268  1  0.03467100  0.23991300  0.57020100  1
  C  269  1  0.06192900  0.24936000  0.56109400  1
  C  270  1  0.09018700  0.23316600  0.55759800  1
  C  271  1  0.09168900  0.20943600  0.56536200  1
  C  288  1  0.00124100  0.49509300  0.53447900  1
  C  289  1  0.00468500  0.51319100  0.56733700  1
  C  290  1  0.02437700  0.50333300  0.58350600  1
  C  291  1  0.04086600  0.47473900  0.56735800  1
  C  292  1  0.03739500  0.45662500  0.53448300  1
  C  293  1  0.01769200  0.46649800  0.51837200  1
  C  295  1  0.10116400  0.47231400  0.57159000  1
  C  296  1  0.11792700  0.44813900  0.54640100  1
  C  297  1  0.14710500  0.45403000  0.53734900  1
  C  298  1  0.16079500  0.48422600  0.55305000  1
  C  299  1  0.14207200  0.50898100  0.57555800  1
  C  300  1  0.11240100  0.50325600  0.58404600  1
  C  301  1  0.06507700  0.48387700  0.62361400  1
  C  302  1  0.06645100  0.42791900  0.57629000  1
  C  303  1  0.09147400  0.41567700  0.58572800  1
  C  304  1  0.09010000  0.38539600  0.58142700  1
  C  305  1  0.06362600  0.36616100  0.56762300  1
  C  306  1  0.03848100  0.37832700  0.55836100  1
  C  307  1  0.03968600  0.40885700  0.56301700  1
  C  308  1  0.03637200  0.48222400  0.63717600  1
  C  309  1  0.03482500  0.48959700  0.66857900  1
  C  310  1  0.06206500  0.49861300  0.68716500  1
  C  311  1  0.09034300  0.50214300  0.67452000  1
  C  312  1  0.09188600  0.49464700  0.64310800  1
  C  329  1  0.00103300  0.52533400  0.95950100  1
  C  330  1  0.00444000  0.49247200  0.94477400  1
  C  331  1  0.02416400  0.47627400  0.91878100  1
  C  332  1  0.04063000  0.49236600  0.90626300  1
  C  333  1  0.03712100  0.52523100  0.92093500  1
  C  334  1  0.01746300  0.54138800  0.94694300  1
  C  336  1  0.10093400  0.48823600  0.89968200  1
  C  337  1  0.11768800  0.51336500  0.90056000  1
  C  338  1  0.14684900  0.52250200  0.91552100  1
  C  339  1  0.16052800  0.50696400  0.93019300  1
  C  340  1  0.14179200  0.48455800  0.93260400  1
  C  341  1  0.11216900  0.47593800  0.91830300  1
  C  342  1  0.06495300  0.43607600  0.85934000  1
  C  343  1  0.06624700  0.48324900  0.85044800  1
  C  344  1  0.09128000  0.47377100  0.82877700  1
  C  345  1  0.08992700  0.47802800  0.80276800  1
  C  346  1  0.06347600  0.49183700  0.79730800  1
  C  347  1  0.03832900  0.50115500  0.81874100  1
  C  348  1  0.03949400  0.49650300  0.84461900  1
  C  349  1  0.03628300  0.42241600  0.84409700  1
  C  350  1  0.03477600  0.39094700  0.82022200  1
  C  351  1  0.06206500  0.37242600  0.81080100  1
  C  352  1  0.09029400  0.38511400  0.82705100  1
  C  353  1  0.09179200  0.41662800  0.85071800  1
  C  370  1  0.50096400  0.98029900  0.47461800  1
  C  371  1  0.50435800  0.96545700  0.49264200  1
  C  372  1  0.52407300  0.93943800  0.48274900  1
  C  373  1  0.54062700  0.92707700  0.45419900  1
  C  374  1  0.53707700  0.94183700  0.43609000  1
  C  375  1  0.51738600  0.96783200  0.44600800  1
  C  377  1  0.60093500  0.92054200  0.45173100  1
  C  378  1  0.61769600  0.92150400  0.42752800  1
  C  379  1  0.64685200  0.93647900  0.43339800  1
  C  380  1  0.66052600  0.95105000  0.46360400  1
  C  381  1  0.64177800  0.95341800  0.48839600  1
  C  382  1  0.61215500  0.93910600  0.48266500  1
  C  383  1  0.56500700  0.88004200  0.46335800  1
  C  384  1  0.56628700  0.87134500  0.40738700  1
  C  385  1  0.59133800  0.84969700  0.39516000  1
  C  386  1  0.59000400  0.82372200  0.36487200  1
  C  387  1  0.56355300  0.81827300  0.34560600  1
  C  388  1  0.53838800  0.83967600  0.35775200  1
  C  389  1  0.53955300  0.86554500  0.38828900  1
  C  390  1  0.53636500  0.86473900  0.46174700  1
  C  391  1  0.53486000  0.84089300  0.46938100  1
  C  392  1  0.56213000  0.83154400  0.47857400  1
  C  393  1  0.59034400  0.84780300  0.48211400  1
  C  394  1  0.59182300  0.87147700  0.47427300  1
  C  411  1  0.50103200  0.58571900  0.50499700  1
  C  412  1  0.50436300  0.56768900  0.47212000  1
  C  413  1  0.52404500  0.57756200  0.45595800  1
  C  414  1  0.54063700  0.60609400  0.47211800  1
  C  415  1  0.53715900  0.62420000  0.50499300  1
  C  416  1  0.51747900  0.61431600  0.52110700  1
  C  418  1  0.60093500  0.60845800  0.46791000  1
  C  419  1  0.61775400  0.63262000  0.49305700  1
  C  420  1  0.64693600  0.62669700  0.50206700  1
  C  421  1  0.66057700  0.59647400  0.48637900  1
  C  422  1  0.64177500  0.57172800  0.46396500  1
  C  423  1  0.61213000  0.57750700  0.45547300  1
  C  424  1  0.56490200  0.59693600  0.41588000  1
  C  425  1  0.56630800  0.65288300  0.46318100  1
  C  426  1  0.59136400  0.66510200  0.45375900  1
  C  427  1  0.59006300  0.69540600  0.45811400  1
  C  428  1  0.56363300  0.71469800  0.47196600  1
  C  429  1  0.53846500  0.70256300  0.48123300  1
  C  430  1  0.53959300  0.67200500  0.47651200  1
  C  431  1  0.53623700  0.59859800  0.40225800  1
  C  432  1  0.53466100  0.59098900  0.37078700  1
  C  433  1  0.56189200  0.58179600  0.35219400  1
  C  434  1  0.59014000  0.57820900  0.36484300  1
  C  435  1  0.59167800  0.58602300  0.39634900  1
  C  452  1  0.50106700  0.55520200  0.07990600  1
  C  453  1  0.50447000  0.58806900  0.09469900  1
  C  454  1  0.52418700  0.60422500  0.12070800  1
  C  455  1  0.54073700  0.58806200  0.13310200  1
  C  456  1  0.53721700  0.55519500  0.11837000  1
  C  457  1  0.51751000  0.53909000  0.09239300  1
  C  459  1  0.60103100  0.59227900  0.13971400  1
  C  460  1  0.61776100  0.56705100  0.13865200  1
  C  461  1  0.64694800  0.55801200  0.12372900  1
  C  462  1  0.66064300  0.57369800  0.10921900  1
  C  463  1  0.64193200  0.59622800  0.10699500  1
  C  464  1  0.61227900  0.60474400  0.12124400  1
  C  465  1  0.56495500  0.64431900  0.18021900  1
  C  466  1  0.56635700  0.59701200  0.18884400  1
  C  467  1  0.59141600  0.60638700  0.21047900  1
  C  468  1  0.59006500  0.60206000  0.23644400  1
  C  469  1  0.56358600  0.58828000  0.24189800  1
  C  470  1  0.53842700  0.57903000  0.22048600  1
  C  471  1  0.53960500  0.58372600  0.19463500  1
  C  472  1  0.53626700  0.65794700  0.19542500  1
  C  473  1  0.53473400  0.68937900  0.21938000  1
  C  474  1  0.56196600  0.70797300  0.22881800  1
  C  475  1  0.59023100  0.69530800  0.21262400  1
  C  476  1  0.59176900  0.66380900  0.18891100  1
  C  493  1  0.89204600  0.58411800  0.31305600  1
  C  495  1  0.88952500  0.61352100  0.28624400  1
  C  496  1  0.89807800  0.58630200  0.25796800  1
  C  498  1  0.90098700  0.55736900  0.28480100  1
  C  500  1  0.88240700  0.64416600  0.28902000  1
  C  504  1  0.89184700  0.78982100  0.47573300  1
  C  506  1  0.88922400  0.73360900  0.44635400  1
  C  507  1  0.89784100  0.73255600  0.47355800  1
  C  509  1  0.90082800  0.78831200  0.50246900  1
  C  511  1  0.88204900  0.70573800  0.41572800  1
  C  515  1  0.89191300  0.74690000  0.26998600  1
  C  517  1  0.88929600  0.77371100  0.32619500  1
  C  518  1  0.89787600  0.80198500  0.32726200  1
  C  520  1  0.90089600  0.77515000  0.27150300  1
  C  522  1  0.88212300  0.77093600  0.35405400  1
  C  526  1  0.39211800  0.49653000  0.72639100  1
  C  528  1  0.38963500  0.46710300  0.75318100  1
  C  529  1  0.39812400  0.49433900  0.78146900  1
  C  531  1  0.40100500  0.52329100  0.75466100  1
  C  533  1  0.38256200  0.43644500  0.75038900  1
  C  537  1  0.39190300  0.29072200  0.56356200  1
  C  539  1  0.38943600  0.34693700  0.59300100  1
  C  540  1  0.39806800  0.34801200  0.56580900  1
  C  542  1  0.40089500  0.29224500  0.53683500  1
  C  544  1  0.38231300  0.37480000  0.62364900  1
  C  548  1  0.39182800  0.33384100  0.76938400  1
  C  550  1  0.38922500  0.30706100  0.71317200  1
  C  551  1  0.39777500  0.27877100  0.71208900  1
  C  553  1  0.40077100  0.30557200  0.76784700  1
  C  555  1  0.38208200  0.30986400  0.68532300  1
  C  559  1  0.06215800  0.28963800  0.72378200  1
  C  561  1  0.07590900  0.34407700  0.75463900  1
  C  562  1  0.06270400  0.34488400  0.78140200  1
  C  564  1  0.04826900  0.29113600  0.75045900  1
  C  566  1  0.08965500  0.37141200  0.75423400  1
  C  570  1  0.06218200  0.33626700  0.56508200  1
  C  572  1  0.07575700  0.30552400  0.58883700  1
  C  573  1  0.06260800  0.27872200  0.56287500  1
  C  575  1  0.04832100  0.30956300  0.53991400  1
  C  577  1  0.08939100  0.30600800  0.61665700  1
  C  581  1  0.06208800  0.49441200  0.76997000  1
  C  583  1  0.07581800  0.47077800  0.71551800  1
  C  584  1  0.06265900  0.49674600  0.71469900  1
  C  586  1  0.04825300  0.51960500  0.76845900  1
  C  588  1  0.08951500  0.44300400  0.68818100  1
  C  592  1  0.56214700  0.79091400  0.31571200  1
  C  594  1  0.57577400  0.73642800  0.28498500  1
  C  595  1  0.56262400  0.73556300  0.25817400  1
  C  597  1  0.54831200  0.78936200  0.28898700  1
  C  599  1  0.58944000  0.70911100  0.28548300  1
  C  603  1  0.56225400  0.74461100  0.47453900  1
  C  605  1  0.57599400  0.77539300  0.45086700  1
  C  606  1  0.56278300  0.80218000  0.47679100  1
  C  608  1  0.54834900  0.77130900  0.49967900  1
  C  610  1  0.58974400  0.77493100  0.42309900  1
  C  614  1  0.56215400  0.58574500  0.26925500  1
  C  616  1  0.57579900  0.60947700  0.32373500  1
  C  617  1  0.56257700  0.58356000  0.32460400  1
  C  619  1  0.54824800  0.56060500  0.27081400  1
  C  621  1  0.58949600  0.63727100  0.35104900  1
  C  625  1  0.69339000  0.59288400  0.48958600  1
  C  627  1  0.74343300  0.61926000  0.49942400  1
  C  628  1  0.75898700  0.58996800  0.48551400  1
  C  630  1  0.70953500  0.56412500  0.47751400  1
  C  632  1  0.75868900  0.64980700  0.50963300  1
  C  636  1  0.69331700  0.95796100  0.46718900  1
  C  638  1  0.74332100  0.94113000  0.44076900  1
  C  639  1  0.75890900  0.95657500  0.47004800  1
  C  641  1  0.70950900  0.97466300  0.49591700  1
  C  643  1  0.75850400  0.92063000  0.41022000  1
  C  647  1  0.69344800  0.57040400  0.10237200  1
  C  649  1  0.74345700  0.56054500  0.11893000  1
  C  650  1  0.75902600  0.57435000  0.10345600  1
  C  652  1  0.70960700  0.58234000  0.08557200  1
  C  654  1  0.75870100  0.55035300  0.13928900  1
  C  658  1  0.19358400  0.48779700  0.54970600  1
  C  660  1  0.24360400  0.46134400  0.53981500  1
  C  661  1  0.25917600  0.49062600  0.55379700  1
  C  663  1  0.20977600  0.51653700  0.56177900  1
  C  665  1  0.25880800  0.43076500  0.52956100  1
  C  669  1  0.19319300  0.12266300  0.57213100  1
  C  671  1  0.24319000  0.13937800  0.59860500  1
  C  672  1  0.25878500  0.12402100  0.56933500  1
  C  674  1  0.20941100  0.10601700  0.54340700  1
  C  676  1  0.25833100  0.15986300  0.62918700  1
  C  680  1  0.19332900  0.51029800  0.93705100  1
  C  682  1  0.24335400  0.52016100  0.92051700  1
  C  683  1  0.25895600  0.50640300  0.93602400  1
  C  685  1  0.20949700  0.49838100  0.95386400  1
  C  687  1  0.25859800  0.53034300  0.90014900  1
  C  691  1  0.98470400  0.50673700  0.51755300  1
  C  693  1  0.98356400  0.51227900  0.47173700  1
  C  694  1  0.95796000  0.53305800  0.48469100  1
  C  696  1  0.95860100  0.52682800  0.52955200  1
  C  698  1  0.99869500  0.50439200  0.44175100  1
  C  702  1  0.98452200  0.07173600  0.55308100  1
  C  704  1  0.98339900  0.02042000  0.54762900  1
  C  705  1  0.95783800  0.01253800  0.52679500  1
  C  707  1  0.95845300  0.06359800  0.53294500  1
  C  709  1  0.99853300  0.99837100  0.55558400  1
  C  713  1  0.98458700  0.54230500  0.98811900  1
  C  715  1  0.98358100  0.58815700  0.03945400  1
  C  716  1  0.95801900  0.57523800  0.04737600  1
  C  718  1  0.95851700  0.53034800  0.99630400  1
  C  720  1  0.99875500  0.61814300  0.06148300  1
  C  724  1  0.48460800  0.57398900  0.52191000  1
  C  726  1  0.48368100  0.56836400  0.56768000  1
  C  727  1  0.45811100  0.54753600  0.55475200  1
  C  729  1  0.45853400  0.55385400  0.50994200  1
  C  731  1  0.49889000  0.57625000  0.59763100  1
  C  735  1  0.48450500  0.00892300  0.48634900  1
  C  737  1  0.48339800  0.06028500  0.49190500  1
  C  738  1  0.45780900  0.06812700  0.51270200  1
  C  740  1  0.45842000  0.01703100  0.50646100  1
  C  742  1  0.49851400  0.08236400  0.48398000  1
  C  746  1  0.48456600  0.53829300  0.05131000  1
  C  748  1  0.48342400  0.49247300  0.99996100  1
  C  749  1  0.45782700  0.50543100  0.99213200  1
  C  751  1  0.45845000  0.55028400  0.04323000  1
  C  753  1  0.49855300  0.46248400  0.97786800  1
  N  494  1  0.88685200  0.61081700  0.31216000  1
  N  497  1  0.90301100  0.55930500  0.25837500  1
  N  505  1  0.88658400  0.76222900  0.44905100  1
  N  508  1  0.90284800  0.75995300  0.50054100  1
  N  516  1  0.88666300  0.74779600  0.29757200  1
  N  519  1  0.90285900  0.80158100  0.29986600  1
  N  527  1  0.38696900  0.46981500  0.72726800  1
  N  530  1  0.40301300  0.52135400  0.78108500  1
  N  538  1  0.38670900  0.31831000  0.59026900  1
  N  541  1  0.40299200  0.32061600  0.53880200  1
  N  549  1  0.38659700  0.33296700  0.74180500  1
  N  552  1  0.40275600  0.27915500  0.73947500  1
  N  560  1  0.07500600  0.31643200  0.72741000  1
  N  563  1  0.04915900  0.31847900  0.77809000  1
  N  571  1  0.07491900  0.33271100  0.58833300  1
  N  574  1  0.04916600  0.28196500  0.53969900  1
  N  582  1  0.07490000  0.47121400  0.74317500  1
  N  585  1  0.04915600  0.51987300  0.74110600  1
  N  593  1  0.57490700  0.76412100  0.31216800  1
  N  596  1  0.54915900  0.76196800  0.26140100  1
  N  604  1  0.57509500  0.74819500  0.45134400  1
  N  607  1  0.54924100  0.79891500  0.49991400  1
  N  615  1  0.57495000  0.60896900  0.29604300  1
  N  618  1  0.54907900  0.56040800  0.29820600  1
  N  626  1  0.71175400  0.61870000  0.49990700  1
  N  629  1  0.74117200  0.56375500  0.47492000  1
  N  637  1  0.71164600  0.94227400  0.44137100  1
  N  640  1  0.74113500  0.97233400  0.49626200  1
  N  648  1  0.71177700  0.56010900  0.11791600  1
  N  651  1  0.74124500  0.58489800  0.08777900  1
  N  659  1  0.21192400  0.46195700  0.53935900  1
  N  662  1  0.24140400  0.51686700  0.56443400  1
  N  670  1  0.21151200  0.13827400  0.59797200  1
  N  673  1  0.24104100  0.10832500  0.54309100  1
  N  681  1  0.21167400  0.52057800  0.92150900  1
  N  684  1  0.24113900  0.49586600  0.95169300  1
  N  692  1  0.99576000  0.50056200  0.48915500  1
  N  695  1  0.94658100  0.53934000  0.51292700  1
  N  703  1  0.99556600  0.04956400  0.55933500  1
  N  706  1  0.94646000  0.03445100  0.52045300  1
  N  714  1  0.99569400  0.57070500  0.01028700  1
  N  717  1  0.94657300  0.54701300  0.02546800  1
  N  725  1  0.49575900  0.58014300  0.55027100  1
  N  728  1  0.44662300  0.54129400  0.52656600  1
  N  736  1  0.49556400  0.03113400  0.48015700  1
  N  739  1  0.44641200  0.04617400  0.51897800  1
  N  747  1  0.49561600  0.50989000  0.02909800  1
  N  750  1  0.44643600  0.53366100  0.01409000  1
