# generated using pymatgen
data_CuH4C9(NO)4
_symmetry_space_group_name_H-M   'P 1'
_cell_length_a   10.87316000
_cell_length_b   11.75476000
_cell_length_c   14.86573000
_cell_angle_alpha   89.92961000
_cell_angle_beta   70.45255000
_cell_angle_gamma   89.97066000
_symmetry_Int_Tables_number   1
_chemical_formula_structural   CuH4C9(NO)4
_chemical_formula_sum   'Cu4 H16 C36 N16 O16'
_cell_volume   1790.50061971
_cell_formula_units_Z   4
loop_
 _symmetry_equiv_pos_site_id
 _symmetry_equiv_pos_as_xyz
  1  'x, y, z'
loop_
 _atom_site_type_symbol
 _atom_site_label
 _atom_site_symmetry_multiplicity
 _atom_site_fract_x
 _atom_site_fract_y
 _atom_site_fract_z
 _atom_site_occupancy
  Cu  Cu0  1  0.40672000  0.57559000  0.02313000  1
  Cu  Cu1  1  0.59234000  0.07680000  0.47700000  1
  Cu  Cu2  1  0.59328000  0.42440000  0.97687000  1
  Cu  Cu3  1  0.40766000  0.92320000  0.52301000  1
  H  H4  1  0.88661000  0.62426000  0.04911000  1
  H  H5  1  0.88730000  0.87413000  0.26184000  1
  H  H6  1  0.52323000  0.74632000  0.24642000  1
  H  H7  1  0.09290000  0.56842000  0.09264000  1
  H  H8  1  0.11464000  0.12307000  0.45063000  1
  H  H9  1  0.11202000  0.37421000  0.23877000  1
  H  H10  1  0.47701000  0.24732000  0.25337000  1
  H  H11  1  0.90752000  0.06774000  0.40706000  1
  H  H12  1  0.11339000  0.37574000  0.95089000  1
  H  H13  1  0.11270000  0.12587000  0.73816000  1
  H  H14  1  0.47677000  0.25368000  0.75359000  1
  H  H15  1  0.90710000  0.43158000  0.90736000  1
  H  H16  1  0.88536000  0.87693000  0.54937000  1
  H  H17  1  0.88798000  0.62579000  0.76123000  1
  H  H18  1  0.52299000  0.75267000  0.74663000  1
  H  H19  1  0.09248000  0.93226000  0.59294000  1
  C  C20  1  0.62556000  0.60885000  0.09163000  1
  C  C21  1  0.69756000  0.67893000  0.14208000  1
  C  C22  1  0.83420000  0.67757000  0.10946000  1
  C  C23  1  0.90066000  0.74788000  0.15329000  1
  C  C24  1  0.83417000  0.81907000  0.22903000  1
  C  C25  1  0.69760000  0.81625000  0.26365000  1
  C  C26  1  0.62933000  0.74700000  0.21991000  1
  C  C27  1  0.62453000  0.88576000  0.34958000  1
  C  C28  1  0.12165000  0.65658000  0.09186000  1
  C  C29  1  0.37592000  0.10933000  0.40794000  1
  C  C30  1  0.30310000  0.17877000  0.35760000  1
  C  C31  1  0.16650000  0.17685000  0.39038000  1
  C  C32  1  0.09947000  0.24738000  0.34698000  1
  C  C33  1  0.16542000  0.31893000  0.27130000  1
  C  C34  1  0.30197000  0.31638000  0.23641000  1
  C  C35  1  0.37089000  0.24737000  0.27988000  1
  C  C36  1  0.37394000  0.38638000  0.15053000  1
  C  C37  1  0.87861000  0.15589000  0.40795000  1
  C  C38  1  0.37444000  0.39115000  0.90838000  1
  C  C39  1  0.30244000  0.32107000  0.85792000  1
  C  C40  1  0.16580000  0.32242000  0.89054000  1
  C  C41  1  0.09934000  0.25212000  0.84671000  1
  C  C42  1  0.16583000  0.18093000  0.77097000  1
  C  C43  1  0.30240000  0.18375000  0.73635000  1
  C  C44  1  0.37067000  0.25299000  0.78009000  1
  C  C45  1  0.37547000  0.11424000  0.65042000  1
  C  C46  1  0.87835000  0.34342000  0.90814000  1
  C  C47  1  0.62408000  0.89067000  0.59206000  1
  C  C48  1  0.69690000  0.82122000  0.64241000  1
  C  C49  1  0.83350000  0.82315000  0.60963000  1
  C  C50  1  0.90053000  0.75262000  0.65303000  1
  C  C51  1  0.83457000  0.68107000  0.72870000  1
  C  C52  1  0.69803000  0.68362000  0.76359000  1
  C  C53  1  0.62911000  0.75263000  0.72013000  1
  C  C54  1  0.62606000  0.61362000  0.84947000  1
  C  C55  1  0.12139000  0.84411000  0.59206000  1
  N  N56  1  0.03994000  0.74602000  0.11988000  1
  N  N57  1  0.11402000  0.84270000  0.11128000  1
  N  N58  1  0.23548000  0.81039000  0.07871000  1
  N  N59  1  0.24297000  0.69498000  0.06596000  1
  N  N60  1  0.96024000  0.24544000  0.38047000  1
  N  N61  1  0.88614000  0.34214000  0.38892000  1
  N  N62  1  0.76471000  0.30970000  0.42097000  1
  N  N63  1  0.75730000  0.19425000  0.43346000  1
  N  N64  1  0.96006000  0.25398000  0.88012000  1
  N  N65  1  0.88598000  0.15730000  0.88872000  1
  N  N66  1  0.76452000  0.18961000  0.92129000  1
  N  N67  1  0.75703000  0.30502000  0.93404000  1
  N  N68  1  0.03976000  0.75456000  0.61953000  1
  N  N69  1  0.11386000  0.65786000  0.61109000  1
  N  N70  1  0.23529000  0.69030000  0.57903000  1
  N  N71  1  0.24270000  0.80575000  0.56654000  1
  O  O72  1  0.51380000  0.64539000  0.09544000  1
  O  O73  1  0.68393000  0.52007000  0.04853000  1
  O  O74  1  0.51433000  0.84668000  0.40110000  1
  O  O75  1  0.68017000  0.97632000  0.36361000  1
  O  O76  1  0.48641000  0.14808000  0.40490000  1
  O  O77  1  0.31976000  0.01916000  0.45007000  1
  O  O78  1  0.48551000  0.34952000  0.09949000  1
  O  O79  1  0.31568000  0.47519000  0.13604000  1
  O  O80  1  0.48620000  0.35460000  0.90456000  1
  O  O81  1  0.31607000  0.47993000  0.95147000  1
  O  O82  1  0.48567000  0.15332000  0.59890000  1
  O  O83  1  0.31983000  0.02368000  0.63639000  1
  O  O84  1  0.51359000  0.85191000  0.59510000  1
  O  O85  1  0.68024000  0.98084000  0.54994000  1
  O  O86  1  0.51449000  0.65047000  0.90051000  1
  O  O87  1  0.68432000  0.52481000  0.86396000  1
