# generated using pymatgen
data_H9C13N4
_symmetry_space_group_name_H-M   'P 1'
_cell_length_a   36.87800000
_cell_length_b   36.87800000
_cell_length_c   36.87800000
_cell_angle_alpha   90.00000000
_cell_angle_beta   90.00000000
_cell_angle_gamma   90.00000000
_symmetry_Int_Tables_number   1
_chemical_formula_structural   H9C13N4
_chemical_formula_sum   'H144 C208 N64'
_cell_volume   50153.59630815
_cell_formula_units_Z   16
loop_
 _symmetry_equiv_pos_site_id
 _symmetry_equiv_pos_as_xyz
  1  'x, y, z'
loop_
 _atom_site_type_symbol
 _atom_site_label
 _atom_site_symmetry_multiplicity
 _atom_site_fract_x
 _atom_site_fract_y
 _atom_site_fract_z
 _atom_site_occupancy
  H  7  1  0.95063100  0.99793300  0.04123300  1
  H  8  1  0.05771700  0.97076500  0.01122000  1
  H  9  1  0.00713900  0.91740500  0.09782900  1
  H  16  1  0.94682600  0.01365300  0.98183900  1
  H  17  1  0.00104300  0.09159200  0.91936600  1
  H  18  1  0.05907900  0.02999200  0.99471100  1
  H  23  1  0.08634900  0.08200200  0.96335700  1
  H  24  1  0.08568900  0.91729900  0.04146400  1
  H  25  1  0.93846100  0.96143900  0.11433500  1
  H  26  1  0.91324800  0.06181900  0.95022700  1
  H  33  1  0.55551500  0.00808100  0.54121100  1
  H  34  1  0.44840500  0.03519500  0.51122800  1
  H  35  1  0.49904800  0.08871700  0.59770000  1
  H  42  1  0.55927300  0.99243300  0.48176900  1
  H  43  1  0.50508900  0.91439800  0.41939300  1
  H  44  1  0.44706600  0.97592200  0.49481800  1
  H  49  1  0.41981600  0.92387500  0.46349000  1
  H  50  1  0.42044800  0.08871000  0.54143100  1
  H  51  1  0.56814800  0.04420300  0.61380200  1
  H  52  1  0.59286800  0.94432100  0.45013000  1
  H  59  1  0.25949100  0.69450000  0.28993400  1
  H  60  1  0.28696200  0.80213100  0.26146800  1
  H  61  1  0.34258600  0.74851100  0.34479900  1
  H  68  1  0.24221900  0.69126800  0.23199300  1
  H  69  1  0.16351700  0.74568500  0.17099700  1
  H  70  1  0.22847300  0.80424800  0.24306800  1
  H  75  1  0.17010700  0.82927900  0.21189900  1
  H  76  1  0.34649300  0.82639700  0.29275400  1
  H  77  1  0.29863300  0.68312500  0.36319700  1
  H  78  1  0.19209900  0.65809400  0.20372300  1
  H  85  1  0.24651700  0.31145400  0.78984100  1
  H  86  1  0.21934800  0.20372000  0.76145000  1
  H  87  1  0.16320900  0.25741500  0.84436400  1
  H  94  1  0.26399100  0.31467200  0.73198600  1
  H  95  1  0.34276200  0.26028900  0.67105000  1
  H  96  1  0.27781000  0.20169900  0.74309500  1
  H  101  1  0.33617300  0.17669900  0.71194100  1
  H  102  1  0.15971700  0.17939300  0.79257700  1
  H  103  1  0.20849000  0.32443400  0.86164300  1
  H  104  1  0.31424100  0.34784900  0.70380400  1
  H  111  1  0.74809800  0.30515200  0.71684900  1
  H  112  1  0.72415700  0.19565800  0.74067400  1
  H  113  1  0.66689800  0.25073800  0.65947400  1
  H  120  1  0.76405900  0.30615800  0.77583800  1
  H  121  1  0.84356400  0.25130900  0.83562500  1
  H  122  1  0.78318700  0.19485200  0.75809600  1
  H  127  1  0.84300300  0.17117700  0.78903600  1
  H  128  1  0.66830300  0.16890600  0.70838100  1
  H  129  1  0.71403700  0.32467000  0.65018400  1
  H  130  1  0.81052600  0.33975800  0.80877400  1
  H  137  1  0.75795000  0.70100000  0.21675500  1
  H  138  1  0.78190700  0.81049100  0.24059500  1
  H  139  1  0.83913600  0.75542300  0.15936600  1
  H  146  1  0.74195900  0.69998600  0.27573600  1
  H  147  1  0.66244300  0.75486100  0.33548200  1
  H  148  1  0.72288000  0.81129900  0.25798700  1
  H  153  1  0.66302900  0.83497100  0.28889800  1
  H  154  1  0.83776100  0.83724100  0.20829300  1
  H  155  1  0.79202200  0.68151400  0.15007200  1
  H  156  1  0.69542500  0.66639900  0.30863900  1
  H  163  1  0.44921000  0.48733300  0.52415700  1
  H  164  1  0.56287400  0.47797800  0.51445500  1
  H  165  1  0.50554800  0.41052100  0.58552500  1
  H  172  1  0.45291200  0.50468200  0.46612800  1
  H  173  1  0.50418900  0.59079600  0.41312400  1
  H  174  1  0.55844100  0.53678000  0.49696500  1
  H  179  1  0.57936400  0.59903900  0.46683100  1
  H  180  1  0.59176400  0.42371300  0.54697300  1
  H  181  1  0.42076000  0.42784300  0.54998600  1
  H  182  1  0.42851200  0.53438600  0.40762700  1
  H  189  1  0.05680200  0.51879900  0.02422900  1
  H  190  1  0.94314100  0.52818700  0.01451200  1
  H  191  1  0.00048200  0.59566100  0.08555900  1
  H  198  1  0.05307200  0.50151300  0.96616900  1
  H  199  1  0.00180200  0.41538000  0.91319100  1
  H  200  1  0.94757500  0.46936100  0.99707300  1
  H  205  1  0.92663300  0.40711200  0.96692200  1
  H  206  1  0.91428400  0.58250100  0.04700500  1
  H  207  1  0.08536300  0.57812500  0.05010100  1
  H  208  1  0.07724200  0.47181200  0.90736900  1
  H  214  1  0.88903300  0.86912700  0.05415100  1
  H  217  1  0.84797400  0.81922500  0.04994100  1
  H  218  1  0.81305300  0.82065100  0.08268800  1
  H  219  1  0.85095900  0.79162300  0.08898800  1
  H  227  1  0.61691200  0.13713400  0.55427300  1
  H  230  1  0.65792000  0.18707100  0.55005600  1
  H  231  1  0.69289200  0.18566900  0.58275100  1
  H  232  1  0.65493700  0.21461300  0.58914700  1
  H  240  1  0.38217100  0.62095000  0.30305800  1
  H  243  1  0.43075000  0.57824100  0.30120400  1
  H  244  1  0.42957000  0.54749400  0.33782200  1
  H  245  1  0.46087900  0.58412300  0.33795200  1
  H  253  1  0.12289300  0.38437000  0.80313900  1
  H  256  1  0.07443100  0.42720000  0.80135800  1
  H  257  1  0.07598000  0.45824000  0.83771500  1
  H  258  1  0.04460800  0.42167100  0.83841000  1
  H  266  1  0.63090700  0.88949400  0.43999900  1
  H  269  1  0.68266600  0.85087200  0.44526000  1
  H  270  1  0.70874400  0.84855700  0.40513800  1
  H  271  1  0.67826800  0.81296900  0.41628000  1
  H  279  1  0.87507400  0.11648200  0.94010200  1
  H  282  1  0.82323000  0.15501600  0.94534600  1
  H  283  1  0.79723300  0.15731800  0.90517000  1
  H  284  1  0.82756300  0.19299000  0.91645100  1
  H  292  1  0.13453200  0.62258200  0.19716700  1
  H  295  1  0.09355500  0.57284200  0.20537000  1
  H  296  1  0.08993000  0.54477700  0.16670600  1
  H  297  1  0.05575500  0.57734600  0.17625200  1
  H  305  1  0.37178200  0.38327700  0.69716800  1
  H  308  1  0.41268500  0.43305400  0.70536600  1
  H  309  1  0.41617500  0.46120400  0.66675500  1
  H  310  1  0.45042300  0.42866700  0.67615300  1
  H  318  1  0.12609300  0.12970700  0.94638400  1
  H  321  1  0.17591900  0.17063500  0.95082900  1
  H  322  1  0.20356200  0.17084400  0.91170500  1
  H  323  1  0.17155700  0.20610300  0.91891500  1
  H  331  1  0.37999600  0.87628800  0.44650400  1
  H  334  1  0.33011000  0.83543800  0.45097300  1
  H  335  1  0.30249200  0.83520200  0.41183300  1
  H  336  1  0.33445400  0.79992100  0.41911400  1
  H  344  1  0.61141300  0.36132300  0.69912900  1
  H  347  1  0.55944400  0.39985600  0.70143100  1
  H  348  1  0.56200100  0.43702200  0.67133700  1
  H  349  1  0.53563000  0.39838900  0.65988100  1
  H  357  1  0.89450000  0.64462500  0.19922900  1
  H  360  1  0.94639000  0.60598100  0.20156400  1
  H  361  1  0.94379700  0.56887200  0.17140100  1
  H  362  1  0.97029300  0.60745600  0.16006500  1
  H  370  1  0.37741400  0.13462500  0.55893400  1
  H  373  1  0.32928300  0.17763100  0.55345900  1
  H  374  1  0.29981500  0.17757900  0.59123000  1
  H  375  1  0.33322500  0.21196700  0.58665000  1
  H  383  1  0.12882700  0.87147000  0.05892900  1
  H  386  1  0.17702200  0.82852800  0.05342300  1
  H  387  1  0.20645500  0.82859600  0.09122200  1
  H  388  1  0.17314000  0.79412800  0.08655600  1
  H  396  1  0.86460400  0.37887900  0.81720700  1
  H  399  1  0.90079400  0.43235500  0.81207700  1
  H  400  1  0.90369000  0.45726100  0.85290100  1
  H  401  1  0.94000700  0.42867500  0.83936100  1
  H  409  1  0.64137400  0.62728900  0.31711800  1
  H  412  1  0.60526500  0.57377000  0.31201800  1
  H  413  1  0.60240500  0.54887400  0.35285000  1
  H  414  1  0.56605000  0.57741400  0.33930500  1
  C  1  1  0.00420100  0.98949900  0.02135200  1
  C  2  1  0.97385900  0.98311100  0.04432700  1
  C  3  1  0.97454500  0.95648800  0.07183900  1
  C  4  1  0.00676000  0.93688000  0.07795600  1
  C  5  1  0.03796700  0.94264500  0.05653000  1
  C  6  1  0.03570900  0.96813200  0.02789000  1
  C  10  1  0.00323200  0.01642200  0.99267800  1
  C  11  1  0.97044200  0.02648300  0.97502200  1
  C  12  1  0.96881500  0.05406000  0.94830200  1
  C  13  1  0.00166700  0.07088300  0.93787300  1
  C  14  1  0.03518400  0.06143400  0.95382000  1
  C  15  1  0.03513600  0.03502300  0.98164100  1
  C  19  1  0.06700200  0.07965600  0.94473000  1
  C  20  1  0.06941800  0.92248700  0.06231200  1
  C  21  1  0.94414500  0.94773800  0.09184300  1
  C  22  1  0.93539100  0.06666300  0.93559500  1
  C  27  1  0.50193300  0.01649300  0.52135400  1
  C  28  1  0.53229000  0.02290500  0.54430500  1
  C  29  1  0.53162800  0.04958400  0.57176300  1
  C  30  1  0.49941600  0.06921000  0.57785900  1
  C  31  1  0.46819500  0.06339700  0.55647200  1
  C  32  1  0.47042600  0.03786200  0.52787800  1
  C  36  1  0.50289300  0.98955400  0.49270200  1
  C  37  1  0.53566800  0.97955600  0.47499500  1
  C  38  1  0.53729800  0.95199500  0.44825900  1
  C  39  1  0.50446000  0.93508500  0.43792200  1
  C  40  1  0.47095200  0.94448900  0.45391200  1
  C  41  1  0.47099800  0.97091100  0.48172300  1
  C  45  1  0.43914500  0.92624200  0.44484500  1
  C  46  1  0.43673400  0.08352800  0.56226700  1
  C  47  1  0.56205500  0.05837900  0.59171000  1
  C  48  1  0.57071900  0.93944000  0.43551400  1
  C  53  1  0.26833400  0.74821800  0.27030900  1
  C  54  1  0.27500900  0.71730800  0.29255600  1
  C  55  1  0.30266000  0.71682200  0.31900300  1
  C  56  1  0.32278800  0.74863000  0.32522100  1
  C  57  1  0.31632400  0.78051300  0.30504900  1
  C  58  1  0.29008100  0.77943400  0.27707800  1
  C  62  1  0.24065100  0.74788700  0.24229200  1
  C  63  1  0.22956200  0.71502200  0.22538600  1
  C  64  1  0.20111200  0.71334300  0.19969700  1
  C  65  1  0.18470000  0.74626000  0.18898800  1
  C  66  1  0.19554700  0.77991700  0.20366200  1
  C  67  1  0.22253100  0.78003900  0.23093900  1
  C  71  1  0.17789300  0.81152900  0.19314600  1
  C  72  1  0.33597200  0.81170500  0.31275500  1
  C  73  1  0.31067800  0.68639800  0.33930500  1
  C  74  1  0.18737200  0.67989000  0.18851900  1
  C  79  1  0.23784800  0.25768900  0.77026600  1
  C  80  1  0.23104700  0.28861100  0.79245500  1
  C  81  1  0.20323100  0.28912100  0.81872600  1
  C  82  1  0.18311400  0.25729400  0.82489200  1
  C  83  1  0.18976300  0.22536800  0.80485600  1
  C  84  1  0.21613100  0.22644000  0.77700200  1
  C  88  1  0.26559300  0.25805200  0.74230900  1
  C  89  1  0.27667400  0.29092400  0.72540700  1
  C  90  1  0.30514900  0.29262100  0.69975000  1
  C  91  1  0.32157600  0.25971100  0.68903900  1
  C  92  1  0.31072700  0.22605000  0.70369800  1
  C  93  1  0.28374100  0.22591400  0.73097200  1
  C  97  1  0.32838800  0.19444600  0.69318800  1
  C  98  1  0.17016000  0.19414800  0.81257300  1
  C  99  1  0.19496000  0.31959900  0.83882700  1
  C  100  1  0.31884600  0.32608000  0.68852900  1
  C  105  1  0.74100500  0.25040700  0.73396500  1
  C  106  1  0.73342600  0.28195600  0.71296600  1
  C  107  1  0.70574800  0.28269900  0.68649800  1
  C  108  1  0.68667400  0.25045000  0.67904900  1
  C  109  1  0.69412900  0.21792500  0.69787600  1
  C  110  1  0.72031500  0.21880500  0.72590100  1
  C  114  1  0.76837900  0.25042100  0.76225600  1
  C  115  1  0.77763900  0.28262900  0.78137600  1
  C  116  1  0.80534400  0.28388700  0.80794200  1
  C  117  1  0.82294200  0.25106400  0.81698800  1
  C  118  1  0.81409200  0.21804400  0.79976600  1
  C  119  1  0.78777200  0.21847000  0.77188200  1
  C  123  1  0.83286700  0.18663200  0.80867400  1
  C  124  1  0.67566200  0.18620000  0.68905800  1
  C  125  1  0.69666700  0.31398600  0.66779900  1
  C  126  1  0.81706900  0.31710500  0.82190100  1
  C  131  1  0.76504600  0.75574500  0.23387400  1
  C  132  1  0.77261400  0.72420100  0.21286800  1
  C  133  1  0.80028400  0.72346600  0.18639200  1
  C  134  1  0.81936000  0.75571300  0.17894200  1
  C  135  1  0.81192000  0.78823300  0.19777800  1
  C  136  1  0.78574100  0.78734700  0.22581200  1
  C  140  1  0.73766700  0.75572600  0.26215400  1
  C  141  1  0.72838500  0.72351700  0.28126800  1
  C  142  1  0.70067700  0.72226700  0.30783600  1
  C  143  1  0.68306200  0.75509200  0.31683900  1
  C  144  1  0.69194300  0.78810900  0.29963100  1
  C  145  1  0.71827800  0.78768000  0.27176600  1
  C  149  1  0.67318400  0.81952800  0.30853300  1
  C  150  1  0.83039700  0.81995700  0.18896500  1
  C  151  1  0.80938400  0.69218200  0.16770500  1
  C  152  1  0.68890600  0.68905500  0.32177100  1
  C  157  1  0.50606800  0.48785700  0.51445500  1
  C  158  1  0.47340100  0.47556500  0.53087400  1
  C  159  1  0.47269900  0.44729900  0.55668100  1
  C  160  1  0.50589700  0.43174200  0.56755500  1
  C  161  1  0.53940500  0.44372200  0.55330000  1
  C  162  1  0.53876800  0.47092300  0.52618300  1
  C  166  1  0.50565100  0.51584600  0.48678600  1
  C  167  1  0.47490900  0.52141900  0.46403200  1
  C  168  1  0.47326300  0.54956300  0.43805200  1
  C  169  1  0.50447900  0.57102000  0.43269700  1
  C  170  1  0.53622700  0.56569700  0.45338100  1
  C  171  1  0.53590200  0.53910100  0.48098500  1
  C  175  1  0.56666800  0.58667700  0.44651200  1
  C  176  1  0.57173300  0.42762300  0.56458300  1
  C  177  1  0.44005300  0.43260400  0.56826000  1
  C  178  1  0.44235300  0.55544200  0.41725400  1
  C  183  1  0.99994500  0.51829800  0.01452300  1
  C  184  1  0.03261700  0.53057900  0.03094000  1
  C  185  1  0.03332700  0.55886400  0.05672200  1
  C  186  1  0.00013500  0.57444200  0.06758300  1
  C  187  1  0.96662700  0.56245400  0.05333900  1
  C  188  1  0.96725000  0.53524500  0.02623700  1
  C  192  1  0.00035100  0.49031100  0.98686100  1
  C  193  1  0.03108200  0.48476500  0.96408900  1
  C  194  1  0.03271700  0.45662400  0.93811100  1
  C  195  1  0.00151200  0.43515100  0.93276900  1
  C  196  1  0.96977200  0.44045700  0.95347000  1
  C  197  1  0.97010600  0.46704500  0.98108000  1
  C  201  1  0.93933400  0.41946900  0.94660700  1
  C  202  1  0.93430700  0.57856100  0.06461800  1
  C  203  1  0.06596500  0.57356100  0.06831500  1
  C  204  1  0.06360500  0.45076200  0.91728800  1
  C  209  1  0.90279200  0.89876000  0.10110200  1
  C  210  1  0.88450500  0.87166500  0.08143800  1
  C  211  1  0.86113600  0.84726600  0.09948400  1
  C  212  1  0.85728000  0.85087000  0.13757800  1
  C  216  1  0.84230100  0.81809900  0.07899000  1
  C  222  1  0.60334800  0.10733600  0.60118200  1
  C  223  1  0.62152700  0.13452500  0.58154100  1
  C  224  1  0.64488800  0.15893400  0.59958200  1
  C  225  1  0.64880600  0.15528200  0.63766400  1
  C  229  1  0.66363300  0.18816700  0.57910100  1
  C  235  1  0.35792000  0.64380300  0.34951400  1
  C  236  1  0.38177500  0.62057300  0.33082000  1
  C  237  1  0.40658600  0.59865400  0.35025200  1
  C  238  1  0.40628000  0.60085900  0.38870600  1
  C  242  1  0.43340200  0.57592000  0.33060300  1
  C  248  1  0.14756800  0.36191500  0.84954900  1
  C  249  1  0.12353600  0.38497700  0.83089000  1
  C  250  1  0.09898100  0.40714200  0.85036200  1
  C  251  1  0.09963500  0.40524900  0.88882700  1
  C  255  1  0.07203400  0.42976300  0.83076000  1
  C  261  1  0.60062600  0.90080700  0.39266200  1
  C  262  1  0.62912500  0.88492800  0.41269800  1
  C  263  1  0.65335400  0.86052000  0.39569100  1
  C  264  1  0.64840800  0.85325900  0.35824000  1
  C  268  1  0.68233000  0.84227600  0.41691800  1
  C  274  1  0.90552500  0.10544400  0.89280200  1
  C  275  1  0.87696600  0.12120800  0.91283600  1
  C  276  1  0.85268100  0.14556300  0.89582600  1
  C  277  1  0.85768700  0.15293100  0.85840500  1
  C  281  1  0.82359900  0.16366800  0.91702000  1
  C  287  1  0.14688100  0.64955500  0.14810300  1
  C  288  1  0.12986800  0.62300200  0.16982800  1
  C  289  1  0.10428800  0.59898000  0.15432200  1
  C  290  1  0.09715700  0.60213900  0.11669200  1
  C  294  1  0.08486000  0.57202900  0.17707000  1
  C  300  1  0.35941200  0.35633400  0.64808200  1
  C  301  1  0.37635100  0.38293000  0.66981100  1
  C  302  1  0.40187300  0.40700400  0.65428600  1
  C  303  1  0.40891000  0.40394800  0.61662400  1
  C  307  1  0.42131000  0.43393800  0.67704800  1
  C  313  1  0.09801200  0.11385000  0.89891700  1
  C  314  1  0.12493300  0.13242000  0.91882600  1
  C  315  1  0.14901000  0.15632400  0.90099200  1
  C  316  1  0.14537900  0.16051900  0.86294200  1
  C  320  1  0.17649700  0.17707800  0.92192300  1
  C  326  1  0.40813700  0.89203200  0.39903700  1
  C  327  1  0.38115100  0.87355800  0.41894900  1
  C  328  1  0.35706600  0.84964700  0.40113300  1
  C  329  1  0.36071300  0.84539700  0.36309400  1
  C  333  1  0.32954300  0.82895400  0.42207800  1
  C  339  1  0.64599200  0.35240500  0.65445500  1
  C  340  1  0.61627700  0.36800000  0.67260900  1
  C  341  1  0.59245600  0.39150400  0.65394500  1
  C  342  1  0.59927000  0.39829700  0.61670000  1
  C  346  1  0.56063400  0.40750300  0.67283900  1
  C  352  1  0.86005700  0.65373100  0.15449500  1
  C  353  1  0.88970300  0.63804100  0.17267500  1
  C  354  1  0.91349800  0.61449900  0.15402400  1
  C  355  1  0.90674000  0.60779000  0.11675500  1
  C  359  1  0.94524000  0.59838600  0.17295600  1
  C  365  1  0.40256800  0.11656900  0.60720200  1
  C  366  1  0.37732500  0.13663300  0.58657900  1
  C  367  1  0.35329700  0.16096400  0.60400200  1
  C  368  1  0.35508900  0.16390500  0.64232000  1
  C  372  1  0.32752000  0.18322500  0.58249300  1
  C  378  1  0.10355200  0.88933400  0.10720800  1
  C  379  1  0.12883900  0.86934700  0.08656700  1
  C  380  1  0.15292100  0.84505300  0.10396800  1
  C  381  1  0.15110300  0.84203000  0.14227800  1
  C  385  1  0.17877500  0.82289400  0.08245000  1
  C  391  1  0.85652900  0.34670000  0.86395600  1
  C  392  1  0.87039600  0.37642200  0.84422100  1
  C  393  1  0.89440500  0.40114400  0.86102500  1
  C  394  1  0.90340500  0.39527300  0.89794900  1
  C  398  1  0.91055500  0.43151200  0.84003100  1
  C  404  1  0.64935700  0.65953900  0.36384500  1
  C  405  1  0.63561700  0.62973800  0.34414000  1
  C  406  1  0.61162400  0.60500500  0.36095700  1
  C  407  1  0.60263200  0.61086200  0.39789300  1
  C  411  1  0.59550600  0.57461000  0.33997200  1
  N  213  1  0.87611500  0.87756000  0.15474800  1
  N  215  1  0.89760200  0.90007800  0.13759500  1
  N  220  1  0.92839500  0.91758100  0.08450600  1
  N  221  1  0.83896800  0.82593600  0.15573800  1
  N  226  1  0.63001200  0.12856100  0.65482900  1
  N  228  1  0.60853800  0.10603600  0.63767200  1
  N  233  1  0.57760900  0.08869000  0.58461900  1
  N  234  1  0.66710200  0.18022400  0.65582700  1
  N  239  1  0.38325500  0.62484600  0.40454400  1
  N  241  1  0.36043100  0.64492900  0.38626000  1
  N  246  1  0.33970400  0.66886400  0.33131100  1
  N  247  1  0.43257700  0.58798100  0.40943900  1
  N  252  1  0.12276100  0.38134600  0.90465200  1
  N  254  1  0.14538500  0.36107900  0.88632400  1
  N  259  1  0.16534700  0.33644100  0.83154900  1
  N  260  1  0.07345400  0.41820300  0.90965000  1
  N  265  1  0.61999800  0.86929000  0.34101100  1
  N  267  1  0.59751600  0.89143600  0.35722900  1
  N  272  1  0.57325200  0.91884200  0.40743500  1
  N  273  1  0.66731600  0.82729500  0.34201700  1
  N  278  1  0.88614300  0.13697600  0.84117800  1
  N  280  1  0.90865200  0.11484000  0.85737700  1
  N  285  1  0.93286100  0.08731300  0.90755400  1
  N  286  1  0.83876200  0.17887400  0.84215700  1
  N  291  1  0.11425700  0.62885100  0.09784100  1
  N  293  1  0.13745200  0.65120300  0.11261900  1
  N  298  1  0.16593800  0.67702400  0.16115400  1
  N  299  1  0.07010700  0.58418800  0.10124400  1
  N  304  1  0.39178600  0.37725400  0.59776800  1
  N  306  1  0.36867700  0.35481600  0.61255400  1
  N  311  1  0.34027800  0.32891900  0.66115800  1
  N  312  1  0.43590700  0.42199600  0.60119500  1
  N  317  1  0.11859500  0.14194600  0.84570700  1
  N  319  1  0.09639000  0.12007200  0.86267900  1
  N  324  1  0.07157300  0.09410700  0.91327800  1
  N  325  1  0.16426000  0.18581800  0.84588800  1
  N  330  1  0.38752600  0.86392100  0.34584500  1
  N  332  1  0.40975100  0.88578200  0.36280400  1
  N  337  1  0.43455900  0.91179500  0.41339500  1
  N  338  1  0.34181600  0.82009800  0.34606500  1
  N  343  1  0.62835000  0.38186100  0.60095400  1
  N  345  1  0.65032700  0.36022500  0.61867400  1
  N  350  1  0.66419200  0.32619100  0.67086500  1
  N  351  1  0.57481600  0.41620400  0.59737200  1
  N  356  1  0.87772800  0.62431200  0.10098000  1
  N  358  1  0.85576400  0.64596200  0.11869600  1
  N  363  1  0.84183700  0.67994900  0.17086100  1
  N  364  1  0.93121000  0.58990700  0.09743100  1
  N  369  1  0.38028600  0.14373900  0.66016300  1
  N  371  1  0.40250000  0.12156500  0.64364600  1
  N  376  1  0.42888900  0.09600200  0.59391400  1
  N  377  1  0.33642200  0.18934300  0.65962800  1
  N  382  1  0.12587000  0.86213900  0.16014000  1
  N  384  1  0.10362900  0.88430700  0.14364800  1
  N  389  1  0.07725700  0.90995900  0.09393900  1
  N  390  1  0.16980300  0.81661900  0.15959700  1
  N  395  1  0.88933700  0.36570000  0.91491900  1
  N  397  1  0.86748900  0.34281900  0.89885700  1
  N  402  1  0.83903900  0.31912200  0.84895200  1
  N  403  1  0.92902700  0.41495700  0.91362500  1
  N  408  1  0.61665700  0.64047100  0.41483500  1
  N  410  1  0.63845600  0.66339500  0.39876300  1
  N  415  1  0.66692000  0.68705900  0.34881500  1
  N  416  1  0.57699100  0.59117600  0.41353600  1
