# generated using pymatgen
data_H9C14N2O
_symmetry_space_group_name_H-M   'P 1'
_cell_length_a   15.66770000
_cell_length_b   15.66770000
_cell_length_c   31.33540000
_cell_angle_alpha   90.00000000
_cell_angle_beta   90.00000000
_cell_angle_gamma   90.00000000
_symmetry_Int_Tables_number   1
_chemical_formula_structural   H9C14N2O
_chemical_formula_sum   'H72 C112 N16 O8'
_cell_volume   7692.11444852
_cell_formula_units_Z   8
loop_
 _symmetry_equiv_pos_site_id
 _symmetry_equiv_pos_as_xyz
  1  'x, y, z'
loop_
 _atom_site_type_symbol
 _atom_site_label
 _atom_site_symmetry_multiplicity
 _atom_site_fract_x
 _atom_site_fract_y
 _atom_site_fract_z
 _atom_site_occupancy
  C  1  1  0.01450400  0.00268900  0.06642300  1
  C  3  1  0.00509800  0.98322800  0.02215800  1
  C  4  1  0.98536000  0.83160100  0.04454900  1
  C  5  1  0.99293000  0.89499900  0.01264400  1
  C  8  1  0.97426700  0.42416000  0.00847800  1
  C  9  1  0.97365100  0.47416800  0.04605100  1
  C  10  1  0.97368000  0.56394200  0.04404500  1
  C  11  1  0.97625200  0.33424600  0.01138600  1
  C  46  1  0.01338700  0.02903600  0.94515900  1
  C  47  1  0.03067000  0.01424100  0.56495000  1
  C  49  1  0.08727800  0.08449500  0.27740200  1
  C  50  1  0.08727000  0.08429000  0.23246300  1
  C  51  1  0.02970700  0.03296100  0.30075800  1
  C  52  1  0.02883700  0.03695000  0.34576000  1
  C  54  1  0.02589600  0.01538400  0.80070900  1
  C  55  1  0.03213300  0.00948600  0.84556500  1
  C  56  1  0.01625800  0.02667500  0.70940000  1
  C  57  1  0.01116500  0.03369300  0.66455300  1
  C  58  1  0.03478000  0.02736300  0.20924400  1
  C  59  1  0.03857900  0.02612700  0.16424100  1
  C  63  1  0.00505000  0.04814000  0.98954300  1
  C  64  1  0.00340400  0.09126700  0.91284100  1
  C  67  1  0.00457200  0.01527500  0.44363000  1
  C  69  1  0.96272700  0.07683000  0.73568300  1
  C  70  1  0.96984400  0.07371400  0.78047000  1
  C  104  1  0.04987400  0.00593700  0.52057200  1
  C  105  1  0.09269700  0.00362700  0.59731600  1
  C  107  1  0.07622900  0.96204500  0.77440900  1
  C  108  1  0.07400000  0.97003300  0.72964800  1
  C  141  1  0.00410600  0.94134600  0.09913800  1
  C  142  1  0.98660100  0.85612900  0.08781400  1
  C  144  1  0.99303200  0.13630800  0.99939500  1
  C  145  1  0.98605300  0.20033700  0.96783000  1
  C  146  1  0.98864700  0.17680400  0.92449900  1
  C  153  1  0.17794900  0.98715700  0.58573800  1
  C  154  1  0.20192600  0.98648000  0.54244800  1
  C  155  1  0.13810000  0.99405000  0.51081300  1
  C  157  1  0.98502800  0.00637100  0.48791500  1
  C  158  1  0.89673800  0.99459300  0.49743200  1
  C  159  1  0.83320600  0.98765500  0.46556000  1
  C  160  1  0.85747600  0.99021400  0.42227700  1
  C  161  1  0.94313300  0.00540800  0.41091900  1
  C  171  1  0.97942400  0.97334800  0.23264800  1
  C  172  1  0.97472100  0.97833900  0.27749300  1
  C  177  1  0.97475900  0.55726300  0.96677700  1
  C  178  1  0.97444000  0.46750000  0.96878100  1
  C  179  1  0.97459600  0.60727500  0.00435100  1
  C  184  1  0.97683600  0.69718100  0.00141800  1
  C  186  1  0.47584100  0.97676900  0.46426100  1
  C  187  1  0.56561400  0.97650700  0.46622400  1
  C  188  1  0.60902500  0.97631600  0.50589800  1
  C  189  1  0.55908700  0.97567800  0.54349500  1
  C  190  1  0.46931700  0.97561400  0.54153500  1
  C  191  1  0.42591100  0.97651400  0.50186100  1
  C  196  1  0.33600400  0.97862700  0.49899200  1
  C  198  1  0.69894300  0.97824100  0.50878600  1
  C  417  1  0.39745800  0.25799100  0.06642300  1
  C  419  1  0.38805200  0.23853000  0.02215800  1
  C  420  1  0.36831400  0.08690320  0.04454900  1
  C  421  1  0.37588400  0.15030120  0.01264400  1
  C  424  1  0.35722100  0.67946200  0.00847800  1
  C  425  1  0.35660500  0.72947000  0.04605100  1
  C  426  1  0.35663400  0.81924400  0.04404500  1
  C  427  1  0.35920600  0.58954800  0.01138600  1
  C  462  1  0.39634100  0.28433800  0.94515900  1
  C  463  1  0.41362400  0.26954300  0.56495000  1
  C  465  1  0.47023200  0.33979700  0.27740200  1
  C  466  1  0.47022400  0.33959200  0.23246300  1
  C  467  1  0.41266100  0.28826300  0.30075800  1
  C  468  1  0.41179100  0.29225200  0.34576000  1
  C  470  1  0.40885000  0.27068600  0.80070900  1
  C  471  1  0.41508700  0.26478800  0.84556500  1
  C  472  1  0.39921200  0.28197700  0.70940000  1
  C  473  1  0.39411900  0.28899500  0.66455300  1
  C  474  1  0.41773400  0.28266500  0.20924400  1
  C  475  1  0.42153300  0.28142900  0.16424100  1
  C  479  1  0.38800400  0.30344200  0.98954300  1
  C  480  1  0.38635800  0.34656900  0.91284100  1
  C  483  1  0.38752600  0.27057700  0.44363000  1
  C  485  1  0.34568100  0.33213200  0.73568300  1
  C  486  1  0.35279800  0.32901600  0.78047000  1
  C  520  1  0.43282800  0.26123900  0.52057200  1
  C  521  1  0.47565100  0.25892900  0.59731600  1
  C  523  1  0.45918300  0.21734700  0.77440900  1
  C  524  1  0.45695400  0.22533500  0.72964800  1
  C  557  1  0.38706000  0.19664820  0.09913800  1
  C  558  1  0.36955500  0.11143120  0.08781400  1
  C  560  1  0.37598600  0.39161000  0.99939500  1
  C  561  1  0.36900700  0.45563900  0.96783000  1
  C  562  1  0.37160100  0.43210600  0.92449900  1
  C  569  1  0.56090300  0.24245900  0.58573800  1
  C  570  1  0.58488000  0.24178200  0.54244800  1
  C  571  1  0.52105400  0.24935200  0.51081300  1
  C  573  1  0.36798200  0.26167300  0.48791500  1
  C  574  1  0.27969200  0.24989500  0.49743200  1
  C  575  1  0.21616000  0.24295700  0.46556000  1
  C  576  1  0.24043000  0.24551600  0.42227700  1
  C  577  1  0.32608700  0.26071000  0.41091900  1
  C  587  1  0.36237800  0.22865000  0.23264800  1
  C  588  1  0.35767500  0.23364100  0.27749300  1
  C  593  1  0.35771300  0.81256500  0.96677700  1
  C  594  1  0.35739400  0.72280200  0.96878100  1
  C  595  1  0.35755000  0.86257700  0.00435100  1
  C  600  1  0.35979000  0.95248300  0.00141800  1
  C  602  1  0.85879500  0.23207100  0.46426100  1
  C  603  1  0.94856800  0.23180900  0.46622400  1
  C  604  1  0.99197900  0.23161800  0.50589800  1
  C  605  1  0.94204100  0.23098000  0.54349500  1
  C  606  1  0.85227100  0.23091600  0.54153500  1
  C  607  1  0.80886500  0.23181600  0.50186100  1
  C  612  1  0.71895800  0.23392900  0.49899200  1
  C  614  1  0.08189670  0.23354300  0.50878600  1
  H  6  1  0.98477900  0.15564200  0.03007600  1
  H  12  1  0.97862700  0.30568800  0.04071500  1
  H  45  1  0.02883900  0.06308600  0.07588100  1
  H  48  1  0.06515600  0.02850000  0.43411300  1
  H  53  1  0.07550100  0.07046000  0.36126600  1
  H  60  1  0.07241900  0.07244400  0.14864100  1
  H  61  1  0.12894200  0.12380500  0.21689300  1
  H  62  1  0.12761500  0.12551500  0.29287900  1
  H  66  1  0.97022700  0.02762600  0.57477600  1
  H  72  1  0.96271800  0.06782300  0.65082400  1
  H  73  1  0.77596700  0.03896800  0.38477300  1
  H  97  1  0.92049400  0.11908000  0.72244300  1
  H  98  1  0.93084700  0.11234200  0.79816900  1
  H  103  1  0.02610100  0.96848500  0.93528200  1
  H  111  1  0.06622600  0.96094400  0.85922100  1
  H  128  1  0.03741800  0.25864800  0.88717000  1
  H  135  1  0.11280100  0.93119800  0.71195300  1
  H  136  1  0.11816800  0.91950800  0.78765300  1
  H  148  1  0.91867500  0.78995800  0.12514700  1
  H  150  1  0.98529000  0.87528700  0.98197700  1
  H  163  1  0.24425800  0.91917600  0.62301800  1
  H  165  1  0.15769600  0.98651500  0.48014100  1
  H  166  1  0.87706100  0.98670100  0.52808700  1
  H  173  1  0.93936100  0.93203100  0.21718500  1
  H  174  1  0.93303600  0.93883100  0.29306600  1
  H  180  1  0.97378200  0.44565100  0.07545000  1
  H  181  1  0.97522800  0.43425800  0.94067800  1
  H  182  1  0.97568700  0.58576700  0.93737500  1
  H  183  1  0.97384000  0.59721300  0.07213900  1
  H  185  1  0.97994100  0.72556400  0.97206500  1
  H  192  1  0.58765100  0.97581200  0.57288300  1
  H  193  1  0.59882600  0.97732500  0.43811200  1
  H  194  1  0.44727200  0.97768800  0.43487900  1
  H  195  1  0.43611600  0.97575400  0.56965400  1
  H  197  1  0.30745500  0.98169000  0.46967700  1
  H  199  1  0.72741800  0.98057300  0.53813600  1
  H  422  1  0.36773300  0.41094400  0.03007600  1
  H  428  1  0.36158100  0.56099000  0.04071500  1
  H  461  1  0.41179300  0.31838800  0.07588100  1
  H  464  1  0.44811000  0.28380200  0.43411300  1
  H  469  1  0.45845500  0.32576200  0.36126600  1
  H  476  1  0.45537300  0.32774600  0.14864100  1
  H  477  1  0.51189600  0.37910700  0.21689300  1
  H  478  1  0.51056900  0.38081700  0.29287900  1
  H  482  1  0.35318100  0.28292800  0.57477600  1
  H  488  1  0.34567200  0.32312500  0.65082400  1
  H  489  1  0.15892070  0.29427000  0.38477300  1
  H  513  1  0.30344800  0.37438200  0.72244300  1
  H  514  1  0.31380100  0.36764400  0.79816900  1
  H  519  1  0.40905500  0.22378700  0.93528200  1
  H  527  1  0.44918000  0.21624600  0.85922100  1
  H  544  1  0.42037200  0.51395000  0.88717000  1
  H  551  1  0.49575500  0.18650020  0.71195300  1
  H  552  1  0.50112200  0.17481020  0.78765300  1
  H  564  1  0.30162900  0.04526020  0.12514700  1
  H  566  1  0.36824400  0.13058920  0.98197700  1
  H  579  1  0.62721200  0.17447820  0.62301800  1
  H  581  1  0.54065000  0.24181700  0.48014100  1
  H  582  1  0.26001500  0.24200300  0.52808700  1
  H  589  1  0.32231500  0.18733320  0.21718500  1
  H  590  1  0.31599000  0.19413320  0.29306600  1
  H  596  1  0.35673600  0.70095300  0.07545000  1
  H  597  1  0.35818200  0.68956000  0.94067800  1
  H  598  1  0.35864100  0.84106900  0.93737500  1
  H  599  1  0.35679400  0.85251500  0.07213900  1
  H  601  1  0.36289500  0.98086600  0.97206500  1
  H  608  1  0.97060500  0.23111400  0.57288300  1
  H  609  1  0.98178000  0.23262700  0.43811200  1
  H  610  1  0.83022600  0.23299000  0.43487900  1
  H  611  1  0.81907000  0.23105600  0.56965400  1
  H  613  1  0.69040900  0.23699200  0.46967700  1
  H  615  1  0.11037170  0.23587500  0.53813600  1
  N  7  1  0.97879900  0.74680900  0.03665200  1
  N  65  1  0.00733900  0.07533500  0.87040300  1
  N  106  1  0.07668100  0.00794800  0.63973700  1
  N  151  1  0.97920700  0.28492700  0.97607900  1
  N  152  1  0.01006100  0.95864300  0.14147100  1
  N  167  1  0.96065000  0.01024700  0.36856800  1
  N  168  1  0.74845200  0.98099500  0.47352600  1
  N  169  1  0.28661600  0.98024100  0.53430000  1
  N  423  1  0.36175300  0.00211115  0.03665200  1
  N  481  1  0.39029300  0.33063700  0.87040300  1
  N  522  1  0.45963500  0.26325000  0.63973700  1
  N  567  1  0.36216100  0.54022900  0.97607900  1
  N  568  1  0.39301500  0.21394500  0.14147100  1
  N  583  1  0.34360400  0.26554900  0.36856800  1
  N  584  1  0.13140570  0.23629700  0.47352600  1
  N  585  1  0.66957000  0.23554300  0.53430000  1
  O  143  1  0.97995400  0.79551400  0.11895900  1
  O  147  1  0.97961300  0.23781600  0.89364200  1
  O  156  1  0.23907900  0.98041400  0.61664800  1
  O  162  1  0.79706800  0.98121500  0.39114300  1
  O  559  1  0.36290800  0.05081620  0.11895900  1
  O  563  1  0.36256700  0.49311800  0.89364200  1
  O  572  1  0.62203300  0.23571600  0.61664800  1
  O  578  1  0.18002170  0.23651700  0.39114300  1
