# generated using pymatgen
data_H9C13(N2O)2
_symmetry_space_group_name_H-M   'P 1'
_cell_length_a   15.14710000
_cell_length_b   15.14710000
_cell_length_c   90.88280000
_cell_angle_alpha   90.00000000
_cell_angle_beta   90.00000000
_cell_angle_gamma   120.00000000
_symmetry_Int_Tables_number   1
_chemical_formula_structural   H9C13(N2O)2
_chemical_formula_sum   'H108 C156 N48 O24'
_cell_volume   18058.06931116
_cell_formula_units_Z   12
loop_
 _symmetry_equiv_pos_site_id
 _symmetry_equiv_pos_as_xyz
  1  'x, y, z'
loop_
 _atom_site_type_symbol
 _atom_site_label
 _atom_site_symmetry_multiplicity
 _atom_site_fract_x
 _atom_site_fract_y
 _atom_site_fract_z
 _atom_site_occupancy
  C  1  1  0.01118500  0.97078700  0.92620100  1
  C  2  1  0.91050400  0.88573800  0.92549200  1
  C  3  1  0.85878300  0.82202600  0.93770700  1
  C  4  1  0.91376250  0.84639450  0.95113400  1
  C  5  1  0.01332600  0.93025000  0.95257600  1
  C  6  1  0.06039900  0.99034700  0.94006200  1
  C  10  1  0.06116750  0.03430550  0.91375000  1
  C  11  1  0.03469300  0.99805000  0.89910200  1
  C  12  1  0.08290950  0.06002950  0.88673900  1
  C  13  1  0.16147150  0.16131250  0.88916300  1
  C  14  1  0.19362850  0.20229150  0.90343200  1
  C  15  1  0.14072150  0.13717550  0.91540100  1
  C  19  1  0.27651150  0.30366250  0.90521200  1
  C  20  1  0.05739300  0.01988500  0.87218400  1
  C  21  1  0.06264700  0.95681900  0.96652500  1
  C  22  1  0.75741650  0.73692750  0.93705200  1
  C  27  1  0.96643450  0.99440550  0.25960400  1
  C  28  1  0.98202800  0.09507000  0.25889500  1
  C  29  1  0.96986250  0.14670350  0.27110700  1
  C  30  1  0.93896050  0.09159450  0.28452100  1
  C  31  1  0.92319150  0.99200350  0.28595800  1
  C  32  1  0.93648050  0.94505150  0.27345200  1
  C  36  1  0.98025550  0.94454750  0.24716200  1
  C  37  1  0.97059400  0.97103300  0.23251200  1
  C  38  1  0.98448100  0.92285300  0.22015400  1
  C  39  1  0.00732300  0.84438100  0.22259100  1
  C  40  1  0.01611900  0.81227500  0.23686400  1
  C  41  1  0.00367900  0.86507100  0.24882700  1
  C  45  1  0.03464550  0.72942450  0.23865000  1
  C  46  1  0.96960850  0.94814650  0.20559800  1
  C  47  1  0.90021400  0.94254300  0.29989900  1
  C  48  1  0.98621200  0.24810500  0.27046000  1
  C  53  1  0.03461950  0.03875550  0.59284600  1
  C  54  1  0.11972300  0.02321100  0.59213100  1
  C  55  1  0.18357900  0.03543100  0.60433800  1
  C  56  1  0.15939300  0.06633100  0.61775500  1
  C  57  1  0.07558150  0.08209650  0.61919300  1
  C  58  1  0.01525250  0.06872650  0.60669600  1
  C  62  1  0.97095100  0.02497100  0.58040500  1
  C  63  1  0.00717000  0.03480100  0.56575500  1
  C  64  1  0.94513150  0.02095050  0.55339400  1
  C  65  1  0.84383400  0.99814600  0.55583100  1
  C  66  1  0.80285100  0.98916600  0.57010200  1
  C  67  1  0.86804050  0.00150350  0.58206700  1
  C  71  1  0.70145000  0.97057000  0.57188700  1
  C  72  1  0.98534600  0.03592900  0.53884000  1
  C  73  1  0.04911150  0.10503150  0.63313200  1
  C  74  1  0.26862050  0.01907150  0.60368800  1
  C  79  1  0.04867700  0.02056100  0.40961100  1
  C  80  1  0.03046300  0.10391600  0.41069800  1
  C  81  1  0.02567000  0.15934600  0.39840000  1
  C  82  1  0.04010150  0.12735150  0.38439400  1
  C  83  1  0.05695800  0.04454200  0.38257000  1
  C  84  1  0.06149350  0.99305350  0.39517900  1
  C  88  1  0.05467300  0.96706500  0.42223700  1
  C  89  1  0.07763900  0.01174100  0.43645900  1
  C  90  1  0.08323000  0.95965200  0.44894900  1
  C  91  1  0.06551500  0.85960100  0.44726500  1
  C  92  1  0.04278200  0.81003100  0.43343800  1
  C  93  1  0.03715650  0.86570050  0.42127000  1
  C  97  1  0.02490000  0.70850200  0.43228100  1
  C  98  1  0.09828700  0.00330700  0.46319300  1
  C  99  1  0.06662000  0.01247800  0.36827100  1
  C  100  1  0.01001050  0.24464950  0.39951000  1
  C  105  1  0.98287200  0.02635900  0.07626600  1
  C  106  1  0.89947900  0.92479900  0.07734900  1
  C  107  1  0.84393150  0.86467550  0.06505100  1
  C  108  1  0.87578800  0.91120800  0.05104900  1
  C  109  1  0.95867150  0.01083250  0.04922900  1
  C  110  1  0.01036850  0.06673050  0.06183700  1
  C  114  1  0.03649000  0.08574700  0.08889400  1
  C  115  1  0.99196800  0.06389800  0.10312700  1
  C  116  1  0.04415500  0.12158900  0.11561000  1
  C  117  1  0.14424350  0.20383850  0.11392400  1
  C  118  1  0.19370000  0.23072200  0.10008900  1
  C  119  1  0.13787200  0.16955600  0.08792000  1
  C  123  1  0.29525500  0.31431000  0.09892500  1
  C  124  1  0.00054250  0.09276450  0.12985800  1
  C  125  1  0.99077350  0.05263850  0.03493300  1
  C  126  1  0.75864400  0.76370300  0.06615500  1
  C  131  1  0.97728500  0.95625900  0.74291300  1
  C  132  1  0.07887750  0.97452150  0.74400200  1
  C  133  1  0.13917700  0.97948300  0.73170400  1
  C  134  1  0.09277500  0.96506900  0.71769700  1
  C  135  1  0.99310300  0.94820500  0.71587100  1
  C  136  1  0.93703950  0.94361450  0.72847900  1
  C  140  1  0.91771900  0.95011200  0.75553800  1
  C  141  1  0.93949550  0.92719350  0.76976000  1
  C  142  1  0.88169850  0.92137450  0.78224600  1
  C  143  1  0.79931750  0.93903050  0.78056900  1
  C  144  1  0.77246550  0.96179150  0.76674600  1
  C  145  1  0.83379650  0.96752050  0.75457700  1
  C  149  1  0.68876950  0.97960150  0.76559300  1
  C  150  1  0.91059950  0.90653850  0.79648600  1
  C  151  1  0.95133650  0.93855850  0.70157300  1
  C  152  1  0.24014950  0.99516150  0.73281900  1
  C  157  1  0.12333900  0.07989300  0.98610000  1
  C  159  1  0.15345800  0.04045000  0.01058400  1
  C  160  1  0.11692100  0.10298100  0.01644800  1
  C  162  1  0.09580300  0.14871800  0.99208000  1
  C  164  1  0.18104450  0.97722650  0.01974100  1
  C  172  1  0.96234350  0.88161150  0.31951800  1
  C  174  1  0.89313050  0.85244750  0.34402100  1
  C  175  1  0.99188750  0.88659350  0.34984300  1
  C  177  1  0.05818200  0.90677800  0.32546600  1
  C  179  1  0.80298000  0.82670100  0.35322500  1
  C  187  1  0.92580850  0.04273050  0.65279200  1
  C  189  1  0.96599100  0.11236900  0.67727200  1
  C  190  1  0.90090850  0.01385750  0.68312900  1
  C  192  1  0.85456150  0.94719650  0.65876600  1
  C  194  1  0.03075400  0.20254700  0.68645100  1
  C  202  1  0.41547300  0.43555700  0.91994800  1
  C  204  1  0.54187500  0.59944700  0.91019600  1
  C  205  1  0.60041200  0.62229500  0.92335500  1
  C  207  1  0.47140950  0.46086550  0.93320000  1
  C  209  1  0.57096500  0.66724100  0.89721000  1
  C  217  1  0.02733250  0.59032950  0.25338300  1
  C  219  1  0.06485550  0.46392950  0.24363900  1
  C  220  1  0.02893200  0.40528000  0.25678500  1
  C  222  1  0.99635950  0.53421250  0.26661800  1
  C  224  1  0.10376000  0.43493400  0.23066600  1
  C  232  1  0.56963950  0.97782150  0.58661800  1
  C  234  1  0.40576700  0.94039500  0.57686600  1
  C  235  1  0.38302400  0.97629000  0.59001400  1
  C  237  1  0.54445950  0.00871950  0.59985600  1
  C  239  1  0.33789250  0.90155050  0.56388900  1
  C  247  1  0.00884750  0.56513450  0.41764700  1
  C  249  1  0.97445100  0.40393500  0.42807900  1
  C  250  1  0.99179900  0.37141700  0.41421100  1
  C  252  1  0.02125000  0.53041800  0.40381900  1
  C  254  1  0.94798300  0.34292300  0.44175400  1
  C  262  1  0.43849350  0.44174250  0.08428500  1
  C  264  1  0.59978750  0.56845350  0.09470300  1
  C  265  1  0.63212900  0.61850500  0.08084700  1
  C  267  1  0.47305550  0.48902150  0.07046300  1
  C  269  1  0.66091950  0.60288950  0.10836900  1
  C  277  1  0.56160600  0.99593800  0.75096100  1
  C  279  1  0.43481200  0.03033600  0.76139600  1
  C  280  1  0.38504600  0.01319200  0.74752300  1
  C  282  1  0.51460400  0.98375900  0.73712700  1
  C  284  1  0.40017750  0.05661950  0.77507800  1
  C  292  1  0.02384800  0.99555600  0.81615600  1
  C  294  1  0.07008450  0.12558650  0.83450600  1
  C  295  1  0.04925850  0.05288450  0.84585000  1
  C  297  1  0.00471300  0.92385100  0.82733000  1
  C  299  1  0.10518350  0.23469950  0.83705500  1
  C  307  1  0.97692350  0.97984450  0.14955200  1
  C  309  1  0.06115700  0.93396100  0.16788100  1
  C  310  1  0.00983800  0.95536800  0.17924200  1
  C  312  1  0.92484650  0.99947150  0.16074800  1
  C  314  1  0.13504550  0.89867350  0.17041000  1
  C  322  1  0.01007550  0.02898250  0.48279400  1
  C  324  1  0.87995800  0.94417900  0.50110400  1
  C  325  1  0.95248750  0.99588250  0.51247400  1
  C  327  1  0.08159250  0.08141350  0.49399600  1
  C  329  1  0.77091600  0.86972500  0.50361800  1
  H  7  1  0.87239200  0.87277700  0.91582500  1
  H  8  1  0.13493300  0.04637100  0.94106700  1
  H  9  1  0.87932950  0.80476150  0.96038700  1
  H  16  1  0.98156550  0.92342950  0.89723400  1
  H  17  1  0.20058700  0.20412800  0.88022800  1
  H  18  1  0.15507950  0.16841750  0.92565300  1
  H  33  1  0.00749250  0.13330150  0.24924200  1
  H  34  1  0.91797450  0.87051450  0.27445000  1
  H  35  1  0.93162200  0.12595900  0.29377200  1
  H  42  1  0.94899000  0.02407500  0.23063700  1
  H  43  1  0.01114950  0.80531150  0.21366000  1
  H  44  1  0.02041600  0.85071200  0.25908900  1
  H  59  1  0.13245450  0.99771850  0.58247900  1
  H  60  1  0.95905350  0.08699150  0.60770700  1
  H  61  1  0.20120050  0.07381450  0.62699900  1
  H  68  1  0.08179900  0.05634300  0.56388400  1
  H  69  1  0.80090250  0.99426250  0.54690000  1
  H  70  1  0.83690850  0.98465150  0.59232700  1
  H  85  1  0.01651050  0.12228650  0.42083000  1
  H  86  1  0.08105150  0.93818150  0.39364700  1
  H  87  1  0.03552150  0.16315950  0.37511100  1
  H  94  1  0.09545550  0.08575750  0.43788800  1
  H  95  1  0.06828600  0.82197900  0.45646100  1
  H  96  1  0.00986650  0.82753250  0.41162500  1
  H  111  1  0.88108250  0.89243050  0.08747700  1
  H  112  1  0.06521650  0.14116950  0.06030200  1
  H  113  1  0.83995950  0.87086650  0.04176400  1
  H  120  1  0.91793700  0.00776500  0.10456800  1
  H  121  1  0.18197250  0.24410450  0.12312200  1
  H  122  1  0.17594750  0.18048750  0.07826400  1
  H  137  1  0.11118650  0.98845450  0.75413500  1
  H  138  1  0.86256450  0.92387350  0.72694100  1
  H  139  1  0.13321950  0.96980550  0.70841300  1
  H  146  1  0.99570600  0.90939400  0.77118700  1
  H  147  1  0.75894650  0.93624350  0.78976800  1
  H  148  1  0.82292650  0.99479550  0.74493000  1
  H  163  1  0.06959350  0.18560850  0.98554200  1
  H  165  1  0.20389900  0.93254700  0.01295600  1
  H  166  1  0.11600900  0.92473600  0.02645200  1
  H  167  1  0.24462400  0.02612800  0.02693900  1
  H  169  1  0.13982200  0.10150600  0.03810800  1
  H  171  1  0.10929450  0.10646050  0.96493800  1
  H  178  1  0.12105300  0.93170100  0.31891100  1
  H  180  1  0.73565450  0.80550950  0.34647100  1
  H  181  1  0.81717850  0.89208750  0.35998200  1
  H  182  1  0.78691350  0.76251350  0.36037900  1
  H  184  1  0.96802100  0.86277300  0.37143800  1
  H  186  1  0.00322150  0.89609750  0.29833800  1
  H  193  1  0.81672200  0.88409200  0.65225200  1
  H  195  1  0.07719550  0.26967150  0.67967800  1
  H  196  1  0.08165400  0.18807600  0.69323200  1
  H  197  1  0.98287000  0.21909600  0.69358200  1
  H  199  1  0.90143050  0.03787350  0.70476400  1
  H  201  1  0.89967200  0.00137900  0.63164800  1
  H  208  1  0.44900700  0.41111100  0.94184700  1
  H  210  1  0.51397300  0.63399800  0.88848100  1
  H  211  1  0.64357600  0.68032400  0.89281800  1
  H  212  1  0.57806100  0.74008800  0.90033600  1
  H  214  1  0.71715750  0.75414250  0.91679300  1
  H  216  1  0.31077900  0.29672700  0.92638200  1
  H  223  1  0.96914100  0.55670500  0.27527100  1
  H  225  1  0.12769650  0.49202250  0.22194600  1
  H  226  1  0.04428400  0.36238400  0.22625100  1
  H  227  1  0.16943100  0.42776500  0.23381500  1
  H  229  1  0.04403500  0.28853300  0.25022200  1
  H  231  1  0.99314050  0.69500250  0.25980700  1
  H  238  1  0.59413850  0.03587250  0.60851200  1
  H  240  1  0.37104200  0.87761800  0.55517000  1
  H  241  1  0.32486150  0.96105750  0.55947700  1
  H  242  1  0.26503200  0.83589400  0.56703400  1
  H  244  1  0.25123350  0.96130450  0.58344600  1
  H  246  1  0.70846800  0.01191700  0.59304900  1
  H  253  1  0.03996800  0.57527500  0.39464200  1
  H  255  1  0.93692100  0.38277900  0.45095800  1
  H  256  1  0.00905050  0.32780450  0.44466600  1
  H  257  1  0.87736250  0.27070850  0.44016500  1
  H  259  1  0.97987550  0.24119550  0.42098000  1
  H  261  1  0.03919800  0.70115900  0.41041400  1
  H  268  1  0.42810300  0.46298300  0.06129500  1
  H  270  1  0.62117400  0.55185800  0.11756700  1
  H  271  1  0.67600700  0.67902300  0.11130700  1
  H  272  1  0.73314650  0.60455950  0.10675100  1
  H  274  1  0.76241350  0.73675950  0.08760800  1
  H  276  1  0.30239050  0.33615850  0.07706400  1
  H  283  1  0.54078550  0.96513050  0.72794700  1
  H  285  1  0.45102000  0.06753200  0.78428700  1
  H  286  1  0.32396050  0.99552950  0.77797100  1
  H  287  1  0.39862400  0.12728000  0.77351000  1
  H  289  1  0.26671450  0.02504850  0.75429500  1
  H  291  1  0.66728200  0.96560000  0.74372200  1
  H  298  1  0.98014800  0.84917200  0.82495400  1
  H  300  1  0.11790900  0.27601800  0.82670200  1
  H  301  1  0.17672800  0.26989400  0.84317300  1
  H  302  1  0.04788950  0.24238550  0.84331500  1
  H  304  1  0.06977800  0.14494000  0.86295400  1
  H  306  1  0.05311500  0.02523900  0.79485400  1
  H  313  1  0.87482100  0.02417800  0.15839000  1
  H  315  1  0.16314200  0.88542700  0.16004800  1
  H  316  1  0.09876100  0.82737200  0.17658700  1
  H  317  1  0.20034700  0.95609700  0.17660200  1
  H  319  1  0.08206200  0.93558800  0.19632400  1
  H  321  1  0.97709400  0.95037200  0.12825000  1
  H  328  1  0.15627650  0.13167050  0.49164300  1
  H  330  1  0.72973550  0.84132750  0.49325100  1
  H  331  1  0.73540050  0.90562450  0.50976700  1
  H  332  1  0.76347600  0.80467600  0.50983000  1
  H  334  1  0.86033750  0.92365750  0.52954400  1
  H  336  1  0.98092450  0.02951750  0.46154100  1
  N  158  1  0.15229650  0.03030350  0.99572100  1
  N  161  1  0.08989450  0.15441350  0.00688000  1
  N  168  1  0.09093900  0.09877300  0.03087800  1
  N  170  1  0.10882700  0.05514300  0.97148500  1
  N  173  1  0.88417950  0.85414150  0.32916500  1
  N  176  1  0.06996300  0.91210300  0.34026300  1
  N  183  1  0.01439250  0.91212450  0.36428200  1
  N  185  1  0.95252300  0.89665100  0.30490900  1
  N  188  1  0.97682750  0.12096350  0.66241700  1
  N  191  1  0.84813700  0.93569500  0.67356900  1
  N  198  1  0.90388250  0.99143850  0.69756700  1
  N  200  1  0.95115650  0.05206250  0.63820400  1
  N  203  1  0.45438800  0.50791200  0.90924300  1
  N  206  1  0.56025200  0.55042800  0.93416000  1
  N  213  1  0.69358100  0.70854000  0.92511600  1
  N  215  1  0.33009150  0.34245750  0.91799900  1
  N  218  1  0.06089900  0.55146700  0.24268800  1
  N  221  1  0.99709900  0.44538000  0.26758200  1
  N  228  1  0.02191200  0.31206300  0.25854000  1
  N  230  1  0.01969550  0.67575450  0.25143100  1
  N  233  1  0.49724250  0.94431050  0.57591800  1
  N  236  1  0.45491350  0.00802950  0.60081700  1
  N  243  1  0.29686050  0.98336850  0.59176700  1
  N  245  1  0.66268700  0.98542000  0.58467200  1
  N  248  1  0.98482650  0.49831050  0.42898300  1
  N  251  1  0.01396300  0.43784800  0.40283400  1
  N  258  1  0.99202300  0.28178800  0.41223200  1
  N  260  1  0.02263900  0.66086900  0.41935900  1
  N  263  1  0.50542700  0.48443100  0.09561200  1
  N  266  1  0.56559050  0.57434650  0.06947800  1
  N  273  1  0.72170000  0.70841200  0.07886700  1
  N  275  1  0.34276850  0.35978650  0.08600200  1
  N  278  1  0.51875550  0.01986050  0.76230200  1
  N  281  1  0.42936250  0.99112450  0.73614300  1
  N  288  1  0.29521600  0.01301100  0.74554400  1
  N  290  1  0.64351000  0.98207100  0.75266900  1
  N  293  1  0.05617300  0.09302800  0.82032900  1
  N  296  1  0.01801900  0.95544500  0.84151300  1
  N  303  1  0.06011050  0.07814450  0.86054100  1
  N  305  1  0.00615100  0.97235500  0.80160100  1
  N  308  1  0.04207900  0.94748100  0.15370800  1
  N  311  1  0.94363350  0.98664550  0.17492700  1
  N  318  1  0.02478950  0.94506350  0.19393200  1
  N  320  1  0.97116950  0.99734350  0.13499400  1
  N  323  1  0.91264700  0.96334300  0.48693600  1
  N  326  1  0.04988650  0.06251550  0.50817000  1
  N  333  1  0.92713800  0.98088500  0.52716100  1
  N  335  1  0.03371300  0.03479000  0.46824800  1
  O  23  1  0.30950900  0.36296400  0.89297400  1
  O  24  1  0.04214400  0.87907400  0.97586600  1
  O  25  1  0.72133900  0.67895300  0.94937700  1
  O  26  1  0.03678800  0.92277200  0.87019300  1
  O  49  1  0.06137300  0.69666900  0.22642900  1
  O  50  1  0.84284800  0.96309500  0.30920800  1
  O  51  1  0.96412050  0.28408650  0.28277800  1
  O  52  1  0.89277750  0.96828750  0.20362200  1
  O  75  1  0.64201450  0.94394250  0.55966000  1
  O  76  1  0.12700900  0.16273300  0.64242500  1
  O  77  1  0.32669650  0.04114450  0.61600500  1
  O  78  1  0.08243750  0.11256750  0.53688000  1
  O  101  1  0.01649200  0.65814400  0.44503500  1
  O  102  1  0.11447150  0.08614950  0.35795400  1
  O  103  1  0.01451100  0.29398400  0.38680800  1
  O  104  1  0.15635500  0.98503500  0.47269100  1
  O  127  1  0.34574800  0.35611300  0.11167600  1
  O  128  1  0.91700750  0.02699150  0.02464000  1
  O  129  1  0.70917400  0.71899400  0.05345600  1
  O  130  1  0.01865750  0.16938950  0.13929000  1
  O  153  1  0.64683050  0.98800750  0.77834700  1
  O  154  1  0.97714650  0.89060650  0.69127200  1
  O  155  1  0.28506950  0.99084050  0.72011400  1
  O  156  1  0.83407400  0.84811100  0.80593800  1
