# generated using pymatgen
data_Cu2H16C29O8
_symmetry_space_group_name_H-M   'P 1'
_cell_length_a   12.51681000
_cell_length_b   12.51681000
_cell_length_c   22.45339000
_cell_angle_alpha   90.00000000
_cell_angle_beta   90.00000000
_cell_angle_gamma   90.00000000
_symmetry_Int_Tables_number   1
_chemical_formula_structural   Cu2H16C29O8
_chemical_formula_sum   'Cu4 H32 C58 O16'
_cell_volume   3517.78456944
_cell_formula_units_Z   2
loop_
 _symmetry_equiv_pos_site_id
 _symmetry_equiv_pos_as_xyz
  1  'x, y, z'
loop_
 _atom_site_type_symbol
 _atom_site_label
 _atom_site_symmetry_multiplicity
 _atom_site_fract_x
 _atom_site_fract_y
 _atom_site_fract_z
 _atom_site_occupancy
  Cu  Cu0  1  0.00000000  0.59748000  0.00000000  1
  Cu  Cu1  1  0.00000000  0.40252000  0.00000000  1
  Cu  Cu2  1  0.40252000  0.00000000  0.50000000  1
  Cu  Cu3  1  0.59748000  0.00000000  0.50000000  1
  H  H4  1  0.60532000  0.67192000  0.79978000  1
  H  H5  1  0.75307000  0.67139000  0.87332000  1
  H  H6  1  0.39468000  0.32808000  0.79978000  1
  H  H7  1  0.24693000  0.32861000  0.87332000  1
  H  H8  1  0.32808000  0.60532000  0.29978000  1
  H  H9  1  0.32861000  0.75307000  0.37332000  1
  H  H10  1  0.67192000  0.39468000  0.29978000  1
  H  H11  1  0.67139000  0.24693000  0.37332000  1
  H  H12  1  0.39468000  0.67192000  0.20021000  1
  H  H13  1  0.24693000  0.67139000  0.12668000  1
  H  H14  1  0.60532000  0.32808000  0.20021000  1
  H  H15  1  0.75307000  0.32861000  0.12668000  1
  H  H16  1  0.67192000  0.60532000  0.70021000  1
  H  H17  1  0.67139000  0.75307000  0.62668000  1
  H  H18  1  0.32808000  0.39468000  0.70021000  1
  H  H19  1  0.32861000  0.24693000  0.62668000  1
  H  H20  1  0.39468000  0.32808000  0.20021000  1
  H  H21  1  0.24693000  0.32861000  0.12668000  1
  H  H22  1  0.60532000  0.67192000  0.20021000  1
  H  H23  1  0.75307000  0.67139000  0.12668000  1
  H  H24  1  0.67192000  0.39468000  0.70021000  1
  H  H25  1  0.67139000  0.24693000  0.62668000  1
  H  H26  1  0.32808000  0.60532000  0.70021000  1
  H  H27  1  0.32861000  0.75307000  0.62668000  1
  H  H28  1  0.60532000  0.32808000  0.79978000  1
  H  H29  1  0.75307000  0.32861000  0.87332000  1
  H  H30  1  0.39468000  0.67192000  0.79978000  1
  H  H31  1  0.24693000  0.67139000  0.87332000  1
  H  H32  1  0.32808000  0.39468000  0.29978000  1
  H  H33  1  0.32861000  0.24693000  0.37332000  1
  H  H34  1  0.67192000  0.60532000  0.29978000  1
  H  H35  1  0.67139000  0.75307000  0.37332000  1
  C  C36  1  0.63765000  0.59632000  0.81528000  1
  C  C37  1  0.72069000  0.59664000  0.85658000  1
  C  C38  1  0.36234000  0.40368000  0.81528000  1
  C  C39  1  0.27931000  0.40336000  0.85658000  1
  C  C40  1  0.40368000  0.63765000  0.31529000  1
  C  C41  1  0.40336000  0.72069000  0.35659000  1
  C  C42  1  0.59632000  0.36234000  0.31529000  1
  C  C43  1  0.59664000  0.27931000  0.35659000  1
  C  C44  1  0.36234000  0.59632000  0.18471000  1
  C  C45  1  0.27931000  0.59664000  0.14341000  1
  C  C46  1  0.63765000  0.40368000  0.18471000  1
  C  C47  1  0.72069000  0.40336000  0.14341000  1
  C  C48  1  0.59632000  0.63765000  0.68471000  1
  C  C49  1  0.59664000  0.72069000  0.64341000  1
  C  C50  1  0.40368000  0.36234000  0.68471000  1
  C  C51  1  0.40336000  0.27931000  0.64341000  1
  C  C52  1  0.36234000  0.40368000  0.18471000  1
  C  C53  1  0.27931000  0.40336000  0.14341000  1
  C  C54  1  0.63765000  0.59632000  0.18471000  1
  C  C55  1  0.72069000  0.59664000  0.14341000  1
  C  C56  1  0.59632000  0.36234000  0.68471000  1
  C  C57  1  0.59664000  0.27931000  0.64341000  1
  C  C58  1  0.40368000  0.63765000  0.68471000  1
  C  C59  1  0.40336000  0.72069000  0.64341000  1
  C  C60  1  0.63765000  0.40368000  0.81528000  1
  C  C61  1  0.72069000  0.40336000  0.85658000  1
  C  C62  1  0.36234000  0.59632000  0.81528000  1
  C  C63  1  0.27931000  0.59664000  0.85658000  1
  C  C64  1  0.40368000  0.36234000  0.31529000  1
  C  C65  1  0.40336000  0.27931000  0.35659000  1
  C  C66  1  0.59632000  0.63765000  0.31529000  1
  C  C67  1  0.59664000  0.72069000  0.35659000  1
  C  C68  1  0.59623000  0.50000000  0.79301000  1
  C  C69  1  0.85351000  0.50000000  0.92069000  1
  C  C70  1  0.76376000  0.50000000  0.87712000  1
  C  C71  1  0.40377000  0.50000000  0.79301000  1
  C  C72  1  0.14649000  0.50000000  0.92069000  1
  C  C73  1  0.23624000  0.50000000  0.87712000  1
  C  C74  1  0.50000000  0.59623000  0.29301000  1
  C  C75  1  0.50000000  0.85351000  0.42069000  1
  C  C76  1  0.50000000  0.76376000  0.37712000  1
  C  C77  1  0.50000000  0.40377000  0.29301000  1
  C  C78  1  0.50000000  0.14649000  0.42069000  1
  C  C79  1  0.50000000  0.23624000  0.37712000  1
  C  C80  1  0.40377000  0.50000000  0.20698000  1
  C  C81  1  0.14649000  0.50000000  0.07931000  1
  C  C82  1  0.23624000  0.50000000  0.12288000  1
  C  C83  1  0.59623000  0.50000000  0.20698000  1
  C  C84  1  0.85351000  0.50000000  0.07931000  1
  C  C85  1  0.76376000  0.50000000  0.12288000  1
  C  C86  1  0.50000000  0.59623000  0.70698000  1
  C  C87  1  0.50000000  0.85351000  0.57930000  1
  C  C88  1  0.50000000  0.76376000  0.62288000  1
  C  C89  1  0.50000000  0.40377000  0.70698000  1
  C  C90  1  0.50000000  0.14649000  0.57930000  1
  C  C91  1  0.50000000  0.23624000  0.62288000  1
  C  C92  1  0.50000000  0.50000000  0.75000000  1
  C  C93  1  0.50000000  0.50000000  0.25000000  1
  O  O94  1  0.88867000  0.59134000  0.93775000  1
  O  O95  1  0.11133000  0.40866000  0.93775000  1
  O  O96  1  0.40866000  0.88867000  0.43775000  1
  O  O97  1  0.59134000  0.11133000  0.43775000  1
  O  O98  1  0.11133000  0.59134000  0.06224000  1
  O  O99  1  0.88867000  0.40866000  0.06224000  1
  O  O100  1  0.59134000  0.88867000  0.56224000  1
  O  O101  1  0.40866000  0.11133000  0.56224000  1
  O  O102  1  0.11133000  0.40866000  0.06224000  1
  O  O103  1  0.88867000  0.59134000  0.06224000  1
  O  O104  1  0.59134000  0.11133000  0.56224000  1
  O  O105  1  0.40866000  0.88867000  0.56224000  1
  O  O106  1  0.88867000  0.40866000  0.93775000  1
  O  O107  1  0.11133000  0.59134000  0.93775000  1
  O  O108  1  0.40866000  0.11133000  0.43775000  1
  O  O109  1  0.59134000  0.88867000  0.43775000  1
