# generated using pymatgen
data_Mg3H38(C28O9)2
_symmetry_space_group_name_H-M   'P 1'
_cell_length_a   12.32026667
_cell_length_b   13.68520000
_cell_length_c   13.72185000
_cell_angle_alpha   84.57400000
_cell_angle_beta   76.00500000
_cell_angle_gamma   76.56600000
_symmetry_Int_Tables_number   1
_chemical_formula_structural   Mg3H38(C28O9)2
_chemical_formula_sum   'Mg3 H38 C56 O18'
_cell_volume   2181.67212466
_cell_formula_units_Z   1
loop_
 _symmetry_equiv_pos_site_id
 _symmetry_equiv_pos_as_xyz
  1  'x, y, z'
loop_
 _atom_site_type_symbol
 _atom_site_label
 _atom_site_symmetry_multiplicity
 _atom_site_fract_x
 _atom_site_fract_y
 _atom_site_fract_z
 _atom_site_occupancy
  C  C1  1  0.33138000  0.93054000  0.26742000  1.0
  C  C2  1  0.12367000  0.26858000  0.13894000  1.0
  C  C3  1  0.22866000  0.83794000  0.06084000  1.0
  C  C4  1  0.11501000  0.07392000  0.90882000  1.0
  C  C5  1  0.78190000  0.80296000  0.78722000  1.0
  C  C6  1  0.64896000  0.73860000  0.06838000  1.0
  C  C7  1  0.75312000  0.93360000  0.17744000  1.0
  C  C8  1  0.63487000  0.93636000  0.58662000  1.0
  C  C9  1  0.68455000  0.91698000  0.66972000  1.0
  C  C10  1  0.74400000  0.81986000  0.69200000  1.0
  C  C11  1  0.75267000  0.74090000  0.63040000  1.0
  C  C12  1  0.70618000  0.75954000  0.54438000  1.0
  C  C13  1  0.71626000  0.67264000  0.47854000  1.0
  C  C14  1  0.61186000  0.67542000  0.43240000  1.0
  C  C15  1  0.58874000  0.75966000  0.35470000  1.0
  C  C16  1  0.47436000  0.80558000  0.34994000  1.0
  C  C17  1  0.45007000  0.89060000  0.28592000  1.0
  C  C18  1  0.54226000  0.93444000  0.23478000  1.0
  C  C19  1  0.65734000  0.89058000  0.24040000  1.0
  C  C20  1  0.67960000  0.79906000  0.29346000  1.0
  C  C21  1  0.65429000  0.85934000  0.52120000  1.0
  C  C22  1  0.53781500  0.02442000  0.58500000  1.0
  C  C23  1  0.53440000  0.11418000  0.62882000  1.0
  C  C24  1  0.42958000  0.17016000  0.67986000  1.0
  C  C25  1  0.33002000  0.13388000  0.69052000  1.0
  C  C26  1  0.23951000  0.15832000  0.77432000  1.0
  C  C27  1  0.15846000  0.09770000  0.80158000  1.0
  C  C28  1  0.14677000  0.03670000  0.72960000  1.0
  C  C29  1  0.23218000  0.01748000  0.64200000  1.0
  C  C30  1  0.33040000  0.05670000  0.62900000  1.0
  C  C31  1  0.43445000  0.00620000  0.57132000  1.0
  C  C32  1  0.31007000  0.44892000  0.02642000  1.0
  C  C33  1  0.24755000  0.37370000  0.03690000  1.0
  C  C34  1  0.17547000  0.35520000  0.12960000  1.0
  C  C35  1  0.17162000  0.40694000  0.21412000  1.0
  C  C36  1  0.23256000  0.48362000  0.20438000  1.0
  C  C37  1  0.23869000  0.53164000  0.29844000  1.0
  C  C38  1  0.35428000  0.56106000  0.29688000  1.0
  C  C39  1  0.38426000  0.64660000  0.22392000  1.0
  C  C40  1  0.50019000  0.65022000  0.18080000  1.0
  C  C41  1  0.52862000  0.72142000  0.10270000  1.0
  C  C42  1  0.43901000  0.77968000  0.06088000  1.0
  C  C43  1  0.32309000  0.77458000  0.10258000  1.0
  C  C44  1  0.29721000  0.71776000  0.19096000  1.0
  C  C45  1  0.28787000  0.51122000  0.10686000  1.0
  C  C46  1  0.44378000  0.38966000  0.86174000  1.0
  C  C47  1  0.55429000  0.33432000  0.82220000  1.0
  C  C48  1  0.63978000  0.32482000  0.87590000  1.0
  C  C49  1  0.73098000  0.24074000  0.86520000  1.0
  C  C50  1  0.79534000  0.21646000  0.93956000  1.0
  C  C51  1  0.78586000  0.28846000  0.00906000  1.0
  C  C158  1  0.85169000  0.11102000  0.95704000  1.0
  C  C181  1  0.42190000  0.44082000  0.95106000  1.0
  C  C182  1  0.70347000  0.37742000  0.01318000  1.0
  C  C183  1  0.62306000  0.39048000  0.95386000  1.0
  C  C184  1  0.51675000  0.45450000  0.98482000  1.0
  H  H1  1  0.99721000  0.21784000  0.10320000  1.0
  H  H2  1  0.07264000  0.97152000  0.21462000  1.0
  H  H3  1  0.00232000  0.07742000  0.18770000  1.0
  H  H4  1  0.81616000  0.68160000  0.07146000  1.0
  H  H5  1  0.97818000  0.84780000  0.91868000  1.0
  H  H6  1  0.92129000  0.79636000  0.02018000  1.0
  H  H7  1  0.66731000  0.97532000  0.72302000  1.0
  H  H8  1  0.79457000  0.66526000  0.64976000  1.0
  H  H9  1  0.79715000  0.66438000  0.42010000  1.0
  H  H10  1  0.72646000  0.60156000  0.52526000  1.0
  H  H11  1  0.62738000  0.60342000  0.39480000  1.0
  H  H12  1  0.53429000  0.67718000  0.49436000  1.0
  H  H13  1  0.40480000  0.77326000  0.39432000  1.0
  H  H14  1  0.52437000  0.00194000  0.18812000  1.0
  H  H15  1  0.76773000  0.76234000  0.29118000  1.0
  H  H16  1  0.61902000  0.88020000  0.45714000  1.0
  H  H17  1  0.61274000  0.13346000  0.63528000  1.0
  H  H18  1  0.42836000  0.23242000  0.72302000  1.0
  H  H19  1  0.24577000  0.20926000  0.82770000  1.0
  H  H20  1  0.08077000  0.99332000  0.74696000  1.0
  H  H21  1  0.22929000  0.96062000  0.59332000  1.0
  H  H22  1  0.43453000  0.93962000  0.53434000  1.0
  H  H23  1  0.12439000  0.38552000  0.28736000  1.0
  H  H24  1  0.16430000  0.59528000  0.31854000  1.0
  H  H25  1  0.22652000  0.47622000  0.36268000  1.0
  H  H26  1  0.35035000  0.58400000  0.37342000  1.0
  H  H27  1  0.42499000  0.49314000  0.28240000  1.0
  H  H28  1  0.56750000  0.59894000  0.20970000  1.0
  H  H29  1  0.45932000  0.83060000  0.99710000  1.0
  H  H30  1  0.20821000  0.72208000  0.22702000  1.0
  H  H31  1  0.32791000  0.57314000  0.09176000  1.0
  H  H32  1  0.37407000  0.38338000  0.82918000  1.0
  H  H33  1  0.56907000  0.28858000  0.75836000  1.0
  H  H34  1  0.73895000  0.18668000  0.80956000  1.0
  H  H35  1  0.83246000  0.27214000  0.06754000  1.0
  H  H36  1  0.69223000  0.42792000  0.07290000  1.0
  H  H37  1  0.50512000  0.49724000  0.05024000  1.0
  H  H120  1  0.26216000  0.32314000  0.97658000  1.0
  Mg  Mg1  1  0.21439000  0.05012000  0.08420000  1.0
  Mg  Mg2  1  0.98924000  0.94654000  0.06642000  1.0
  Mg  Mg8  1  0.76760000  0.93142000  0.96180000  1.0
  O  O1  1  0.32054000  0.97940000  0.18104000  1.0
  O  O2  1  0.24097000  0.90860000  0.33076000  1.0
  O  O3  1  0.03147000  0.27738000  0.10434000  1.0
  O  O4  1  0.18837000  0.18038000  0.15518000  1.0
  O  O5  1  0.12027000  0.82534000  0.08824000  1.0
  O  O6  1  0.05890000  0.01844000  0.15722000  1.0
  O  O7  1  0.13719000  0.12370000  0.97580000  1.0
  O  O8  1  0.08959000  0.98554000  0.93422000  1.0
  O  O9  1  0.76207000  0.72534000  0.84704000  1.0
  O  O10  1  0.80226000  0.88154000  0.82170000  1.0
  O  O11  1  0.73518000  0.67098000  0.09104000  1.0
  O  O12  1  0.66517000  0.82608000  0.02302000  1.0
  O  O13  1  0.88066000  0.08136000  0.04316000  1.0
  O  O14  1  0.92418000  0.86214000  0.98454000  1.0
  O  O15  1  0.72825000  0.98798000  0.09894000  1.0
  O  O16  1  0.86240000  0.90772000  0.18716000  1.0
  O  O53  1  0.25089000  0.92076000  0.01272000  1.0
  O  O57  1  0.84357000  0.04396000  0.89926000  1.0
