# generated using pymatgen
data_VH8C18O7
_symmetry_space_group_name_H-M   'P 1'
_cell_length_a   7.23787000
_cell_length_b   15.27729000
_cell_length_c   22.30411000
_cell_angle_alpha   90.00000000
_cell_angle_beta   90.00002000
_cell_angle_gamma   89.99999000
_symmetry_Int_Tables_number   1
_chemical_formula_structural   VH8C18O7
_chemical_formula_sum   'V4 H32 C72 O28'
_cell_volume   2466.27783249
_cell_formula_units_Z   4
loop_
 _symmetry_equiv_pos_site_id
 _symmetry_equiv_pos_as_xyz
  1  'x, y, z'
loop_
 _atom_site_type_symbol
 _atom_site_label
 _atom_site_symmetry_multiplicity
 _atom_site_fract_x
 _atom_site_fract_y
 _atom_site_fract_z
 _atom_site_occupancy
  V  V0  1  0.16784000  0.74998000  0.50683000  1
  V  V1  1  0.33216000  0.25002000  0.00683000  1
  V  V2  1  0.66784000  0.75002000  0.49317000  1
  V  V3  1  0.83216000  0.24998000  0.99317000  1
  H  H4  1  0.01750000  0.54035000  0.04867000  1
  H  H5  1  0.48250000  0.45965000  0.54867000  1
  H  H6  1  0.51750000  0.95965000  0.95133000  1
  H  H7  1  0.98250000  0.04035000  0.45133000  1
  H  H8  1  0.12853000  0.71876000  0.22371000  1
  H  H9  1  0.37147000  0.28124000  0.72371000  1
  H  H10  1  0.62853000  0.78124000  0.77629000  1
  H  H11  1  0.87147000  0.21876000  0.27629000  1
  H  H12  1  0.81433000  0.46875000  0.44796000  1
  H  H13  1  0.68567000  0.53125000  0.94796000  1
  H  H14  1  0.31433000  0.03125000  0.55204000  1
  H  H15  1  0.18567000  0.96875000  0.05204000  1
  H  H16  1  0.84826000  0.36498000  0.27155000  1
  H  H17  1  0.65174000  0.63502000  0.77155000  1
  H  H18  1  0.34826000  0.13502000  0.72846000  1
  H  H19  1  0.15174000  0.86498000  0.22845000  1
  H  H20  1  0.75526000  0.35080000  0.37614000  1
  H  H21  1  0.74474000  0.64920000  0.87614000  1
  H  H22  1  0.25526000  0.14920000  0.62386000  1
  H  H23  1  0.24474000  0.85080000  0.12386000  1
  H  H24  1  0.10769000  0.69486000  0.33036000  1
  H  H25  1  0.39231000  0.30513000  0.83036000  1
  H  H26  1  0.60769000  0.80514000  0.66964000  1
  H  H27  1  0.89231000  0.19487000  0.16964000  1
  H  H28  1  0.98140000  0.74513000  0.13787000  1
  H  H29  1  0.51859000  0.25487000  0.63787000  1
  H  H30  1  0.48141000  0.75487000  0.86213000  1
  H  H31  1  0.01860000  0.24513000  0.36213000  1
  H  H32  1  0.14015000  0.28782000  0.17168000  1
  H  H33  1  0.35985000  0.71218000  0.67168000  1
  H  H34  1  0.64015000  0.21218000  0.82832000  1
  H  H35  1  0.85985000  0.78782000  0.32832000  1
  C  C36  1  0.44751000  0.62743000  0.57381000  1
  C  C37  1  0.05249000  0.37256000  0.07381000  1
  C  C38  1  0.94751000  0.87257000  0.42619000  1
  C  C39  1  0.55249000  0.12743000  0.92620000  1
  C  C40  1  0.44749000  0.87283000  0.57371000  1
  C  C41  1  0.05251000  0.12717000  0.07371000  1
  C  C42  1  0.94749000  0.62717000  0.42629000  1
  C  C43  1  0.55251000  0.37283000  0.92629000  1
  C  C44  1  0.04239000  0.60159000  0.13553000  1
  C  C45  1  0.45761000  0.39841000  0.63553000  1
  C  C46  1  0.54239000  0.89841000  0.86447000  1
  C  C47  1  0.95761000  0.10159000  0.36447000  1
  C  C48  1  0.04556000  0.44427000  0.11804000  1
  C  C49  1  0.45444000  0.55573000  0.61804000  1
  C  C50  1  0.54556000  0.05573000  0.88196000  1
  C  C51  1  0.95445000  0.94427000  0.38196000  1
  C  C52  1  0.86445000  0.47541000  0.40239000  1
  C  C53  1  0.63555000  0.52460000  0.90239000  1
  C  C54  1  0.36445000  0.02459000  0.59761000  1
  C  C55  1  0.13555000  0.97540000  0.09761000  1
  C  C56  1  0.83145000  0.40808000  0.36189000  1
  C  C57  1  0.66855000  0.59192000  0.86189000  1
  C  C58  1  0.33145000  0.09192000  0.63811000  1
  C  C59  1  0.16855000  0.90808000  0.13811000  1
  C  C60  1  0.88894000  0.41559000  0.30255000  1
  C  C61  1  0.61106000  0.58441000  0.80255000  1
  C  C62  1  0.38894000  0.08441000  0.69745000  1
  C  C63  1  0.11106000  0.91559000  0.19745000  1
  C  C64  1  0.98438000  0.49034000  0.28244000  1
  C  C65  1  0.51562000  0.50966000  0.78244000  1
  C  C66  1  0.48438000  0.00966000  0.71756000  1
  C  C67  1  0.01562000  0.99034000  0.21756000  1
  C  C68  1  0.00796000  0.56149000  0.32306000  1
  C  C69  1  0.49204000  0.43850000  0.82306000  1
  C  C70  1  0.50796000  0.93851000  0.67694000  1
  C  C71  1  0.99204000  0.06150000  0.17694000  1
  C  C72  1  0.03379000  0.50048000  0.22080000  1
  C  C73  1  0.46621000  0.49952000  0.72080000  1
  C  C74  1  0.53379000  0.99952000  0.77921000  1
  C  C75  1  0.96621000  0.00048000  0.27920000  1
  C  C76  1  0.05349000  0.58664000  0.19818000  1
  C  C77  1  0.44651000  0.41336000  0.69819000  1
  C  C78  1  0.55349000  0.91336000  0.80181000  1
  C  C79  1  0.94651000  0.08664000  0.30182000  1
  C  C80  1  0.08789000  0.65481000  0.23904000  1
  C  C81  1  0.41211000  0.34519000  0.73904000  1
  C  C82  1  0.58790000  0.84519000  0.76096000  1
  C  C83  1  0.91210000  0.15481000  0.26096000  1
  C  C84  1  0.07560000  0.64101000  0.30069000  1
  C  C85  1  0.42441000  0.35899000  0.80069000  1
  C  C86  1  0.57560000  0.85899000  0.69931000  1
  C  C87  1  0.92441000  0.14101000  0.19931000  1
  C  C88  1  0.06040000  0.42905000  0.18046000  1
  C  C89  1  0.43960000  0.57095000  0.68046000  1
  C  C90  1  0.56040000  0.07095000  0.81954000  1
  C  C91  1  0.93960000  0.92905000  0.31954000  1
  C  C92  1  0.03102000  0.52979000  0.09656000  1
  C  C93  1  0.46898000  0.47021000  0.59656000  1
  C  C94  1  0.53103000  0.97021000  0.90344000  1
  C  C95  1  0.96897000  0.02979000  0.40344000  1
  C  C96  1  0.95043000  0.55293000  0.38380000  1
  C  C97  1  0.54957000  0.44707000  0.88380000  1
  C  C98  1  0.45043000  0.94707000  0.61620000  1
  C  C99  1  0.04957000  0.05293000  0.11620000  1
  C  C100  1  0.02602000  0.69102000  0.11006000  1
  C  C101  1  0.47398000  0.30898000  0.61006000  1
  C  C102  1  0.52602000  0.80898000  0.88994000  1
  C  C103  1  0.97398000  0.19102000  0.38994000  1
  C  C104  1  0.13676000  0.34373000  0.20140000  1
  C  C105  1  0.36324000  0.65627000  0.70140000  1
  C  C106  1  0.63676000  0.15627000  0.79860000  1
  C  C107  1  0.86324000  0.84373000  0.29860000  1
  O  O108  1  0.60919000  0.84481000  0.55266000  1
  O  O109  1  0.89081000  0.15519000  0.05266000  1
  O  O110  1  0.10919000  0.65519000  0.44734000  1
  O  O111  1  0.39081000  0.34481000  0.94734000  1
  O  O112  1  0.27945000  0.65582000  0.55958000  1
  O  O113  1  0.22055000  0.34418000  0.05958000  1
  O  O114  1  0.77945000  0.84418000  0.44042000  1
  O  O115  1  0.72055000  0.15582000  0.94042000  1
  O  O116  1  0.27947000  0.84413000  0.55958000  1
  O  O117  1  0.22053000  0.15587000  0.05958000  1
  O  O118  1  0.77947000  0.65587000  0.44042000  1
  O  O119  1  0.72053000  0.34413000  0.94042000  1
  O  O120  1  0.10917000  0.84481000  0.44734000  1
  O  O121  1  0.39083000  0.15519000  0.94734000  1
  O  O122  1  0.60917000  0.65519000  0.55266000  1
  O  O123  1  0.89083000  0.34481000  0.05266000  1
  O  O124  1  0.44269000  0.74998000  0.46318000  1
  O  O125  1  0.05731000  0.25002000  0.96318000  1
  O  O126  1  0.94269000  0.75002000  0.53682000  1
  O  O127  1  0.55731000  0.24998000  0.03682000  1
  O  O128  1  0.05801000  0.70497000  0.05715000  1
  O  O129  1  0.44198000  0.29503000  0.55715000  1
  O  O130  1  0.55801000  0.79503000  0.94285000  1
  O  O131  1  0.94199000  0.20497000  0.44285000  1
  O  O132  1  0.20948000  0.33647000  0.25056000  1
  O  O133  1  0.29052000  0.66353000  0.75056000  1
  O  O134  1  0.70948000  0.16353000  0.74944000  1
  O  O135  1  0.79052000  0.83647000  0.24944000  1
