# generated using pymatgen
data_H40C45N4
_symmetry_space_group_name_H-M   'P 1'
_cell_length_a   30.82880000
_cell_length_b   43.49910000
_cell_length_c   43.49910000
_cell_angle_alpha   90.00000000
_cell_angle_beta   89.99740000
_cell_angle_gamma   90.00000000
_symmetry_Int_Tables_number   1
_chemical_formula_structural   H40C45N4
_chemical_formula_sum   'H320 C360 N32'
_cell_volume   58333.38286987
_cell_formula_units_Z   8
loop_
 _symmetry_equiv_pos_site_id
 _symmetry_equiv_pos_as_xyz
  1  'x, y, z'
loop_
 _atom_site_type_symbol
 _atom_site_label
 _atom_site_symmetry_multiplicity
 _atom_site_fract_x
 _atom_site_fract_y
 _atom_site_fract_z
 _atom_site_occupancy
  H  25  1  0.09236200  0.25857500  0.18766700  1
  H  26  1  0.01473100  0.26474300  0.18765500  1
  H  27  1  0.93351400  0.26378700  0.17965200  1
  H  28  1  0.85858400  0.25306500  0.16791100  1
  H  29  1  0.89684400  0.17665800  0.11438200  1
  H  30  1  0.08137700  0.18488800  0.12488300  1
  H  31  1  0.98442500  0.22903100  0.07299700  1
  H  32  1  0.98319900  0.15998000  0.00463400  1
  H  33  1  0.99118800  0.12114100  0.04329500  1
  H  34  1  0.99353000  0.15340400  0.18108600  1
  H  35  1  0.00771200  0.08924900  0.08993800  1
  H  36  1  0.01621700  0.06685500  0.14002900  1
  H  39  1  0.82378900  0.19490900  0.11384700  1
  H  41  1  0.01285000  0.10991400  0.21145600  1
  H  43  1  0.97530300  0.24209700  0.01913500  1
  H  45  1  0.15009500  0.19748900  0.14927000  1
  H  70  1  0.09094700  0.74399200  0.67936200  1
  H  71  1  0.01329900  0.73800600  0.67965200  1
  H  72  1  0.93219100  0.73910000  0.68797200  1
  H  73  1  0.85741000  0.74993400  0.69997900  1
  H  74  1  0.89625700  0.82638400  0.75323200  1
  H  75  1  0.08073500  0.81771500  0.74217800  1
  H  76  1  0.98390200  0.77376500  0.79434000  1
  H  77  1  0.98337400  0.84276200  0.86277200  1
  H  78  1  0.99127500  0.88161500  0.82412000  1
  H  79  1  0.99292600  0.84947200  0.68629400  1
  H  80  1  0.00777700  0.91348000  0.77748200  1
  H  81  1  0.01625900  0.93590800  0.72739800  1
  H  84  1  0.82309200  0.80845300  0.75385300  1
  H  86  1  0.01250400  0.89294700  0.65595500  1
  H  88  1  0.97504400  0.76066600  0.84821500  1
  H  90  1  0.14925300  0.80489700  0.71764400  1
  H  115  1  0.09251700  0.74777100  0.19081000  1
  H  116  1  0.01488800  0.74768200  0.19701200  1
  H  117  1  0.93363400  0.75546600  0.19600300  1
  H  118  1  0.85866500  0.76710000  0.18531300  1
  H  119  1  0.89671400  0.82075400  0.10894300  1
  H  120  1  0.08129500  0.81053800  0.11711500  1
  H  121  1  0.98446700  0.86224900  0.16128900  1
  H  122  1  0.98299100  0.93063900  0.09226300  1
  H  123  1  0.99084100  0.89198600  0.05339600  1
  H  124  1  0.99355900  0.75419000  0.08562700  1
  H  125  1  0.00734000  0.84536600  0.02147400  1
  H  126  1  0.01595200  0.79528300  0.99906100  1
  H  129  1  0.82364900  0.82111500  0.12716200  1
  H  131  1  0.01290000  0.72385400  0.04212100  1
  H  133  1  0.97540700  0.91610100  0.17439600  1
  H  135  1  0.15013100  0.78635100  0.12973200  1
  H  160  1  0.09182900  0.25550200  0.67654600  1
  H  161  1  0.01419000  0.25543500  0.67048400  1
  H  162  1  0.93302100  0.24732400  0.67148900  1
  H  163  1  0.85814300  0.23546200  0.68223000  1
  H  164  1  0.89660700  0.18196100  0.75860000  1
  H  165  1  0.08113400  0.19262000  0.75017300  1
  H  166  1  0.98426600  0.14068800  0.70615900  1
  H  167  1  0.98321800  0.07230900  0.77520000  1
  H  168  1  0.99112900  0.11096900  0.81404200  1
  H  169  1  0.99327700  0.24877300  0.78181600  1
  H  170  1  0.00757300  0.15761000  0.84593800  1
  H  171  1  0.01608300  0.20770000  0.86834100  1
  H  174  1  0.82351000  0.18143500  0.74049200  1
  H  176  1  0.01262300  0.27913700  0.82530300  1
  H  178  1  0.97527400  0.08681400  0.69308100  1
  H  180  1  0.14979000  0.21705000  0.73750400  1
  H  205  1  0.63976900  0.75968900  0.65748700  1
  H  206  1  0.56606200  0.76516500  0.67534500  1
  H  207  1  0.48636700  0.76099000  0.68918000  1
  H  208  1  0.41011400  0.74986600  0.69463500  1
  H  209  1  0.42165200  0.67687800  0.63106800  1
  H  210  1  0.60328100  0.68206200  0.60509100  1
  H  211  1  0.50216100  0.72852900  0.57328500  1
  H  212  1  0.47860200  0.66116700  0.50524800  1
  H  213  1  0.48948400  0.62113700  0.54256100  1
  H  214  1  0.53121200  0.65148000  0.67791100  1
  H  215  1  0.51113600  0.58735900  0.58726200  1
  H  216  1  0.52953500  0.56399500  0.63568500  1
  H  219  1  0.35496100  0.68571000  0.65995800  1
  H  221  1  0.55102800  0.60663300  0.70590200  1
  H  223  1  0.48476800  0.74293000  0.52059000  1
  H  225  1  0.67373100  0.70507800  0.59989400  1
  H  250  1  0.63830600  0.24277500  0.20981000  1
  H  251  1  0.56438800  0.23786500  0.19215700  1
  H  252  1  0.48458600  0.24254500  0.17871200  1
  H  253  1  0.40840700  0.25414500  0.17366900  1
  H  254  1  0.42145700  0.32691000  0.23734500  1
  H  255  1  0.60317700  0.32044300  0.26260900  1
  H  256  1  0.50208600  0.27481900  0.29477100  1
  H  257  1  0.47917600  0.34237200  0.36273000  1
  H  258  1  0.49006500  0.38230200  0.32531000  1
  H  259  1  0.53092000  0.35163000  0.18990800  1
  H  260  1  0.51160300  0.41594600  0.28050200  1
  H  261  1  0.52981000  0.43919000  0.23198500  1
  H  264  1  0.35436100  0.31856700  0.20873500  1
  H  266  1  0.55085600  0.39639200  0.16180400  1
  H  268  1  0.48510900  0.26056200  0.34755000  1
  H  270  1  0.67313700  0.29643100  0.26787300  1
  H  295  1  0.63900100  0.27761000  0.69231000  1
  H  296  1  0.56516700  0.25989300  0.69749500  1
  H  297  1  0.48539100  0.24627400  0.69302800  1
  H  298  1  0.40917900  0.24104800  0.68162100  1
  H  299  1  0.42158000  0.30472300  0.60879900  1
  H  300  1  0.60325500  0.33026400  0.61468700  1
  H  301  1  0.50211200  0.36229000  0.66070500  1
  H  302  1  0.47917300  0.43031900  0.59322600  1
  H  303  1  0.49009400  0.39294600  0.55325500  1
  H  304  1  0.53087800  0.25750200  0.58382000  1
  H  305  1  0.51175300  0.34816100  0.51956600  1
  H  306  1  0.52994700  0.29965700  0.49629900  1
  H  309  1  0.35467500  0.27597100  0.61731800  1
  H  311  1  0.55059900  0.22936700  0.53904100  1
  H  313  1  0.48501500  0.41502900  0.67502800  1
  H  315  1  0.67343900  0.33548900  0.63824600  1
  H  340  1  0.63844300  0.72531300  0.17534200  1
  H  341  1  0.56458000  0.74303500  0.17031800  1
  H  342  1  0.48479100  0.75657100  0.17488300  1
  H  343  1  0.40860500  0.76173900  0.18640500  1
  H  344  1  0.42133700  0.69814500  0.25926700  1
  H  345  1  0.60300200  0.67262000  0.25301100  1
  H  346  1  0.50155100  0.64070500  0.20717900  1
  H  347  1  0.47893900  0.57258200  0.27461500  1
  H  348  1  0.49007100  0.60989700  0.31461600  1
  H  349  1  0.53089400  0.74535700  0.28409000  1
  H  350  1  0.51165200  0.65470700  0.34833800  1
  H  351  1  0.52990400  0.70321200  0.37161600  1
  H  354  1  0.35431500  0.72678500  0.25079100  1
  H  356  1  0.55105300  0.77338600  0.32884200  1
  H  358  1  0.48420700  0.58800500  0.19282800  1
  H  360  1  0.67308900  0.66737200  0.22923600  1
  H  366  1  0.05592300  0.97891600  0.19806800  1
  H  368  1  0.93216500  0.03791500  0.16406700  1
  H  370  1  0.91849300  0.96438700  0.14149300  1
  H  371  1  0.95368700  0.98001000  0.11306300  1
  H  372  1  0.91076000  0.00201900  0.12794900  1
  H  374  1  0.03780700  0.03864300  0.24776500  1
  H  375  1  0.06985600  0.05376900  0.21736000  1
  H  376  1  0.08007000  0.01667400  0.23174700  1
  H  378  1  0.97664300  0.06936600  0.22998900  1
  H  379  1  0.94483200  0.07824600  0.19816000  1
  H  381  1  0.04323200  0.93832000  0.16497800  1
  H  382  1  0.02539700  0.95469700  0.13055400  1
  H  388  1  0.05587400  0.02393500  0.66940700  1
  H  390  1  0.93202600  0.96503300  0.70341400  1
  H  392  1  0.91836900  0.03856900  0.72589100  1
  H  393  1  0.95355700  0.02302100  0.75436400  1
  H  394  1  0.91065600  0.00096200  0.73951600  1
  H  396  1  0.03774100  0.96418500  0.61975400  1
  H  397  1  0.06972900  0.94905100  0.65018500  1
  H  398  1  0.08001900  0.98613000  0.63578000  1
  H  400  1  0.97643900  0.93358200  0.63747600  1
  H  401  1  0.94460100  0.92471000  0.66929600  1
  H  403  1  0.04313800  0.06460800  0.70239200  1
  H  404  1  0.02541100  0.04823200  0.73684800  1
  H  410  1  0.05582600  0.73697100  0.91111300  1
  H  412  1  0.93208100  0.77108200  0.97006300  1
  H  414  1  0.91825300  0.79338600  0.89649400  1
  H  415  1  0.95348300  0.82189500  0.91193000  1
  H  416  1  0.91063300  0.80710100  0.93407900  1
  H  418  1  0.03785500  0.68746700  0.97102000  1
  H  419  1  0.06986600  0.71795500  0.98601300  1
  H  420  1  0.08006100  0.70343700  0.94896600  1
  H  422  1  0.97662000  0.70525500  0.00165200  1
  H  423  1  0.94478600  0.73709300  0.01046900  1
  H  425  1  0.04298300  0.76982500  0.87035800  1
  H  426  1  0.02544100  0.80431700  0.88675700  1
  H  432  1  0.05578500  0.26584900  0.95627700  1
  H  434  1  0.93205100  0.23168700  0.89734700  1
  H  436  1  0.91845700  0.20915800  0.97088900  1
  H  437  1  0.95370700  0.18075100  0.95529400  1
  H  438  1  0.91074700  0.19556300  0.93327000  1
  H  440  1  0.03754800  0.31548000  0.89650400  1
  H  441  1  0.06964600  0.28508400  0.88141300  1
  H  442  1  0.07984000  0.29953000  0.91848900  1
  H  444  1  0.97637400  0.29763600  0.86584300  1
  H  445  1  0.94462100  0.26576900  0.85698900  1
  H  447  1  0.04316200  0.23279800  0.99691300  1
  H  448  1  0.02544300  0.19834000  0.98054100  1
  H  454  1  0.57430800  0.47511100  0.69272900  1
  H  456  1  0.45037800  0.53939200  0.67073700  1
  H  458  1  0.42529100  0.46579300  0.65306400  1
  H  459  1  0.45406000  0.47921600  0.62023700  1
  H  460  1  0.41718800  0.50337600  0.63939200  1
  H  462  1  0.57213400  0.53680400  0.74221500  1
  H  463  1  0.59972900  0.54870500  0.70837400  1
  H  464  1  0.60803900  0.51163500  0.72340200  1
  H  466  1  0.51163600  0.57052600  0.72933400  1
  H  467  1  0.47541300  0.58044600  0.70027500  1
  H  469  1  0.55243500  0.43572600  0.66102100  1
  H  470  1  0.52998900  0.45392400  0.62889700  1
  H  476  1  0.57385400  0.52803400  0.17488600  1
  H  478  1  0.45016400  0.46356600  0.19701300  1
  H  480  1  0.42482100  0.53712100  0.21461500  1
  H  481  1  0.45369600  0.52382200  0.24744800  1
  H  482  1  0.41690300  0.49954600  0.22836400  1
  H  484  1  0.57187200  0.46626400  0.12548800  1
  H  485  1  0.59951500  0.45446400  0.15934100  1
  H  486  1  0.60769200  0.49152700  0.14425500  1
  H  488  1  0.51143100  0.43250500  0.13839000  1
  H  489  1  0.47528300  0.42253700  0.16748500  1
  H  491  1  0.55183500  0.56744300  0.20650500  1
  H  492  1  0.52974900  0.54914900  0.23870300  1
  H  498  1  0.57387000  0.24252200  0.40747000  1
  H  500  1  0.45037200  0.26516900  0.47194900  1
  H  502  1  0.42547900  0.28339400  0.39840800  1
  H  503  1  0.45475400  0.31591000  0.41203500  1
  H  504  1  0.41758100  0.29689300  0.43607600  1
  H  506  1  0.57105100  0.19279300  0.46891500  1
  H  507  1  0.59913200  0.22635600  0.48101800  1
  H  508  1  0.60723500  0.21148800  0.44385800  1
  H  510  1  0.51104900  0.20609200  0.50289700  1
  H  511  1  0.47507200  0.23529000  0.51286800  1
  H  513  1  0.55248400  0.27463300  0.36827900  1
  H  514  1  0.52998500  0.30676900  0.38641600  1
  H  520  1  0.57417500  0.76045700  0.46041400  1
  H  522  1  0.45025500  0.73843300  0.39613800  1
  H  524  1  0.42501900  0.72109900  0.46980000  1
  H  525  1  0.45365100  0.68816300  0.45649600  1
  H  526  1  0.41687700  0.70732000  0.43226400  1
  H  528  1  0.57226100  0.80970600  0.39849800  1
  H  529  1  0.59977100  0.77575600  0.38681600  1
  H  530  1  0.60802600  0.79097200  0.42381600  1
  H  532  1  0.51161600  0.79687100  0.36489200  1
  H  533  1  0.47542600  0.76778100  0.35499900  1
  H  535  1  0.55216000  0.72892500  0.49989300  1
  H  536  1  0.52973900  0.69677300  0.48172800  1
  H  542  1  0.70311900  0.28336700  0.16574600  1
  H  544  1  0.79740500  0.21080400  0.21679800  1
  H  546  1  0.77474400  0.27091600  0.26502900  1
  H  547  1  0.78513000  0.23115600  0.26537800  1
  H  548  1  0.73148200  0.24426900  0.26945800  1
  H  550  1  0.72590600  0.22268800  0.11772500  1
  H  551  1  0.76803900  0.25017300  0.11289100  1
  H  552  1  0.71396600  0.26222400  0.11735700  1
  H  554  1  0.76997600  0.18487500  0.14618500  1
  H  555  1  0.81254000  0.18316600  0.17243800  1
  H  557  1  0.68976800  0.31174000  0.21008500  1
  H  558  1  0.72947800  0.30817600  0.23822700  1
  H  564  1  0.70350500  0.71887000  0.70187900  1
  H  566  1  0.79673600  0.79227300  0.65105200  1
  H  568  1  0.77529500  0.73198700  0.60275000  1
  H  569  1  0.78503000  0.77183100  0.60243700  1
  H  570  1  0.73161900  0.75827700  0.59823700  1
  H  572  1  0.72504400  0.77970300  0.74997800  1
  H  573  1  0.76766000  0.75260800  0.75488000  1
  H  574  1  0.71383300  0.74005800  0.75030900  1
  H  576  1  0.76874900  0.81786000  0.72172100  1
  H  577  1  0.81130400  0.81997000  0.69548000  1
  H  579  1  0.69064100  0.69048300  0.65747100  1
  H  580  1  0.73054500  0.69431700  0.62949000  1
  H  586  1  0.70311900  0.76943600  0.21576700  1
  H  588  1  0.79735600  0.71816100  0.14332600  1
  H  590  1  0.77466900  0.67009400  0.20356600  1
  H  591  1  0.78504900  0.66963900  0.16380500  1
  H  592  1  0.73139800  0.66561600  0.17693600  1
  H  594  1  0.72591900  0.81728800  0.15494700  1
  H  595  1  0.76803600  0.82218400  0.18243300  1
  H  596  1  0.71395300  0.81775900  0.19447800  1
  H  598  1  0.76994600  0.78868500  0.11718800  1
  H  599  1  0.81254900  0.76245200  0.11558500  1
  H  601  1  0.68975200  0.72518000  0.24426300  1
  H  602  1  0.72947800  0.69704100  0.24077700  1
  H  608  1  0.70335000  0.23341800  0.65157400  1
  H  610  1  0.79715500  0.28434400  0.72453800  1
  H  612  1  0.77501000  0.33264100  0.66437700  1
  H  613  1  0.78511700  0.33294900  0.70417300  1
  H  614  1  0.73156700  0.33708000  0.69087500  1
  H  616  1  0.72559800  0.18533000  0.71229400  1
  H  617  1  0.76794200  0.18048900  0.68497300  1
  H  618  1  0.71397300  0.18500300  0.67271200  1
  H  620  1  0.76949200  0.21369300  0.75028400  1
  H  621  1  0.81206300  0.23993400  0.75217000  1
  H  623  1  0.69019600  0.27780300  0.62322200  1
  H  624  1  0.72999000  0.30587500  0.62691800  1
  H  630  1  0.26902800  0.70579800  0.17025600  1
  H  632  1  0.23066800  0.80458600  0.21219900  1
  H  634  1  0.30959000  0.77408700  0.25586600  1
  H  635  1  0.29228900  0.80953300  0.24106400  1
  H  636  1  0.33772400  0.79167300  0.22459800  1
  H  638  1  0.19050500  0.73544000  0.12645100  1
  H  639  1  0.16158300  0.71928800  0.15812300  1
  H  640  1  0.20660500  0.70023500  0.14246400  1
  H  642  1  0.17764100  0.81171000  0.17047200  1
  H  643  1  0.15124500  0.78816100  0.19731000  1
  H  645  1  0.34718900  0.72088600  0.18377900  1
  H  646  1  0.32235900  0.69941400  0.21303300  1
  H  652  1  0.26915500  0.29722400  0.69748100  1
  H  654  1  0.23055500  0.19853100  0.65541700  1
  H  656  1  0.31018300  0.22861100  0.61217700  1
  H  657  1  0.29257600  0.19326100  0.62703300  1
  H  658  1  0.33790800  0.21109700  0.64366600  1
  H  660  1  0.18990600  0.26801200  0.74084100  1
  H  661  1  0.16139400  0.28408200  0.70894200  1
  H  662  1  0.20632100  0.30311600  0.72476200  1
  H  664  1  0.17688500  0.19161200  0.69660600  1
  H  665  1  0.15092900  0.21553400  0.66987700  1
  H  667  1  0.34751300  0.28159000  0.68439300  1
  H  668  1  0.32309000  0.30342400  0.65523000  1
  H  674  1  0.26891500  0.23811700  0.22977600  1
  H  676  1  0.23068600  0.27992100  0.13090300  1
  H  678  1  0.30962600  0.32360900  0.16137700  1
  H  679  1  0.29232300  0.30876900  0.12594600  1
  H  680  1  0.33772700  0.29229800  0.14384200  1
  H  682  1  0.19041500  0.19428600  0.20015400  1
  H  683  1  0.16147400  0.22597700  0.21625100  1
  H  684  1  0.20647500  0.21034200  0.23534700  1
  H  686  1  0.17771500  0.23813600  0.12382200  1
  H  687  1  0.15124800  0.26505600  0.14724000  1
  H  689  1  0.34709100  0.25156400  0.21466300  1
  H  690  1  0.32232300  0.28085600  0.23612100  1
  H  696  1  0.26940400  0.76538800  0.63814900  1
  H  698  1  0.23025500  0.72336600  0.73675400  1
  H  700  1  0.31089800  0.68066600  0.70748000  1
  H  701  1  0.29285000  0.69572700  0.74263100  1
  H  702  1  0.33805800  0.71251800  0.72477800  1
  H  704  1  0.18912000  0.80818600  0.66659100  1
  H  705  1  0.16120700  0.77595100  0.65067400  1
  H  706  1  0.20604800  0.79194900  0.63168200  1
  H  708  1  0.17570400  0.76380100  0.74323900  1
  H  709  1  0.15036600  0.73721000  0.71883000  1
  H  711  1  0.34802600  0.75289100  0.65471000  1
  H  712  1  0.32415500  0.72390400  0.63232400  1
  C  1  1  0.99207300  0.15298900  0.13259200  1
  C  2  1  0.99556400  0.13427900  0.10656600  1
  C  3  1  0.99275100  0.15257900  0.08053600  1
  C  4  1  0.98988700  0.18346200  0.08939900  1
  C  5  1  0.98688300  0.20651700  0.06651600  1
  C  6  1  0.98569900  0.19837100  0.03483000  1
  C  7  1  0.98614400  0.16672400  0.02702500  1
  C  8  1  0.99078600  0.14380000  0.04951400  1
  C  9  1  0.00343300  0.10254800  0.10907000  1
  C  10  1  0.00816800  0.08956600  0.13847800  1
  C  11  1  0.00326600  0.10753200  0.16540300  1
  C  12  1  0.99533300  0.13959500  0.16211800  1
  C  13  1  0.02212900  0.20566600  0.13774300  1
  C  14  1  0.00322600  0.22867900  0.15586400  1
  C  15  1  0.95836800  0.22638000  0.15378500  1
  C  16  1  0.94808500  0.20122400  0.13510100  1
  C  17  1  0.92576200  0.24512000  0.16648500  1
  C  18  1  0.88205900  0.23866900  0.15965300  1
  C  19  1  0.87057600  0.21338100  0.14086700  1
  C  20  1  0.90416200  0.19458500  0.12866200  1
  C  21  1  0.06775800  0.20240200  0.13722000  1
  C  22  1  0.09424500  0.22219100  0.15518300  1
  C  23  1  0.07404200  0.24488300  0.17363100  1
  C  24  1  0.02873600  0.24862300  0.17373600  1
  C  37  1  0.98812600  0.18593300  0.12357200  1
  C  46  1  0.99145100  0.84985600  0.73478700  1
  C  47  1  0.99511600  0.86853700  0.76082500  1
  C  48  1  0.99237800  0.85021200  0.78684100  1
  C  49  1  0.98941000  0.81934000  0.77795600  1
  C  50  1  0.98647500  0.79626900  0.80083200  1
  C  51  1  0.98549200  0.80439100  0.83252700  1
  C  52  1  0.98613400  0.83602800  0.84036400  1
  C  53  1  0.99066200  0.85896400  0.81787600  1
  C  54  1  0.00326700  0.90023400  0.75833900  1
  C  55  1  0.00801500  0.91323000  0.72894100  1
  C  56  1  0.00293500  0.89530300  0.70200700  1
  C  57  1  0.99483700  0.86325900  0.70527200  1
  C  58  1  0.02129700  0.79710800  0.72949400  1
  C  59  1  0.00217100  0.77416300  0.71140500  1
  C  60  1  0.95734300  0.77652400  0.71366800  1
  C  61  1  0.94727800  0.80170800  0.73237000  1
  C  62  1  0.92459100  0.75782400  0.70110100  1
  C  63  1  0.88096600  0.76434600  0.70809200  1
  C  64  1  0.86967100  0.78970300  0.72684900  1
  C  65  1  0.90340900  0.80844600  0.73892400  1
  C  66  1  0.06695100  0.80024400  0.72987400  1
  C  67  1  0.09323700  0.78037900  0.71183600  1
  C  68  1  0.07279400  0.75774600  0.69344800  1
  C  69  1  0.02746700  0.75414400  0.69346300  1
  C  82  1  0.98745800  0.81690600  0.74378500  1
  C  91  1  0.99190500  0.80268000  0.08521500  1
  C  92  1  0.99521700  0.82871300  0.06649700  1
  C  93  1  0.99249800  0.85473400  0.08481900  1
  C  94  1  0.98976100  0.84586100  0.11570500  1
  C  95  1  0.98685700  0.86873900  0.13877400  1
  C  96  1  0.98559600  0.90042500  0.13063600  1
  C  97  1  0.98595200  0.90824300  0.09899400  1
  C  98  1  0.99047400  0.88576000  0.07605300  1
  C  99  1  0.00317200  0.82622300  0.03477500  1
  C  100  1  0.00793300  0.79682300  0.02177800  1
  C  101  1  0.00314000  0.76988900  0.03974700  1
  C  102  1  0.99525200  0.77316000  0.07181700  1
  C  103  1  0.02209100  0.79749200  0.13783700  1
  C  104  1  0.00325800  0.77938600  0.16089000  1
  C  105  1  0.95839400  0.78142900  0.15863000  1
  C  106  1  0.94804000  0.80014200  0.13351000  1
  C  107  1  0.92583700  0.76867000  0.17737200  1
  C  108  1  0.88210800  0.77542200  0.17092600  1
  C  109  1  0.87054400  0.79420000  0.14565000  1
  C  110  1  0.90408700  0.80648500  0.12686600  1
  C  111  1  0.06772300  0.79813500  0.13460000  1
  C  112  1  0.09427400  0.78021300  0.15438500  1
  C  113  1  0.07414300  0.76174200  0.17708900  1
  C  114  1  0.02883500  0.76153900  0.18081400  1
  C  127  1  0.98803500  0.81168700  0.11816800  1
  C  136  1  0.99184000  0.20027700  0.78221800  1
  C  137  1  0.99534000  0.17424800  0.80092200  1
  C  138  1  0.99252100  0.14822300  0.78261600  1
  C  139  1  0.98967600  0.15709200  0.75173300  1
  C  140  1  0.98673100  0.13420600  0.72867200  1
  C  141  1  0.98562200  0.10251500  0.73681300  1
  C  142  1  0.98609800  0.09470600  0.76845700  1
  C  143  1  0.99069500  0.11719500  0.79138400  1
  C  144  1  0.00327600  0.17674500  0.83264600  1
  C  145  1  0.00801300  0.20615000  0.84563500  1
  C  146  1  0.00308500  0.23307600  0.82767400  1
  C  147  1  0.99510600  0.22980000  0.79561600  1
  C  148  1  0.02180400  0.20548500  0.72952200  1
  C  149  1  0.00282300  0.22364600  0.70657300  1
  C  150  1  0.95797500  0.22150500  0.70889400  1
  C  151  1  0.94777100  0.20276700  0.73402600  1
  C  152  1  0.92532100  0.23414300  0.69015600  1
  C  153  1  0.88164700  0.22724400  0.69662200  1
  C  154  1  0.87022600  0.20844700  0.72191700  1
  C  155  1  0.90386400  0.19628200  0.74069400  1
  C  156  1  0.06744400  0.20501400  0.73272700  1
  C  157  1  0.09386600  0.22298700  0.71290100  1
  C  158  1  0.07357300  0.24143200  0.69024800  1
  C  159  1  0.02825700  0.24151500  0.68657400  1
  C  172  1  0.98786000  0.19126500  0.74927300  1
  C  181  1  0.51709800  0.65150000  0.63046500  1
  C  182  1  0.51039300  0.63291400  0.60466000  1
  C  183  1  0.50185300  0.65167500  0.57954300  1
  C  184  1  0.50427600  0.68248500  0.58875000  1
  C  185  1  0.49908600  0.70608800  0.56668300  1
  C  186  1  0.49081400  0.69857500  0.53542700  1
  C  187  1  0.48564400  0.66719700  0.52739700  1
  C  188  1  0.49197900  0.64364700  0.54906200  1
  C  189  1  0.51462600  0.60077100  0.60639600  1
  C  190  1  0.52512000  0.58724600  0.63482800  1
  C  191  1  0.53011200  0.60528600  0.66170400  1
  C  192  1  0.52648600  0.63776700  0.65912500  1
  C  193  1  0.55261000  0.70297700  0.63011900  1
  C  194  1  0.54215900  0.72681000  0.65043500  1
  C  195  1  0.49800200  0.72548600  0.65678800  1
  C  196  1  0.47965900  0.70114700  0.64019000  1
  C  197  1  0.47272700  0.74361700  0.67666300  1
  C  198  1  0.42825600  0.73702600  0.67970100  1
  C  199  1  0.40854400  0.71310600  0.66259300  1
  C  200  1  0.43484100  0.69485300  0.64297100  1
  C  201  1  0.59585900  0.69942800  0.62002300  1
  C  202  1  0.62861400  0.72001700  0.63026100  1
  C  203  1  0.61695000  0.74416200  0.65044400  1
  C  204  1  0.57395700  0.74755500  0.66083100  1
  C  217  1  0.51344200  0.68460700  0.62226700  1
  C  226  1  0.51716600  0.35171000  0.23740900  1
  C  227  1  0.51070800  0.37035200  0.26320500  1
  C  228  1  0.50213800  0.35166000  0.28836400  1
  C  229  1  0.50435700  0.32082500  0.27920800  1
  C  230  1  0.49914400  0.29728200  0.30133500  1
  C  231  1  0.49113900  0.30488000  0.33260900  1
  C  232  1  0.48613700  0.33628300  0.34058200  1
  C  233  1  0.49243000  0.35977300  0.31885000  1
  C  234  1  0.51495400  0.40249100  0.26138600  1
  C  235  1  0.52536300  0.41594600  0.23290500  1
  C  236  1  0.53015400  0.39784700  0.20604800  1
  C  237  1  0.52641100  0.36538000  0.20869300  1
  C  238  1  0.55208200  0.30000800  0.23761500  1
  C  239  1  0.54117300  0.27630400  0.21726200  1
  C  240  1  0.49697400  0.27791800  0.21110800  1
  C  241  1  0.47908800  0.30233000  0.22784600  1
  C  242  1  0.47128400  0.25998400  0.19132200  1
  C  243  1  0.42686800  0.26685600  0.18851600  1
  C  244  1  0.40763200  0.29087200  0.20576000  1
  C  245  1  0.43432200  0.30890500  0.22531200  1
  C  246  1  0.59542100  0.30320400  0.24761300  1
  C  247  1  0.62779700  0.28237800  0.23725600  1
  C  248  1  0.61571700  0.25842400  0.21697500  1
  C  249  1  0.57262100  0.25537300  0.20669600  1
  C  262  1  0.51322500  0.31862900  0.24564800  1
  C  271  1  0.51716600  0.30500600  0.58376300  1
  C  272  1  0.51068900  0.33081300  0.56513700  1
  C  273  1  0.50218400  0.35596800  0.58385500  1
  C  274  1  0.50441200  0.34678600  0.61468100  1
  C  275  1  0.49920300  0.36888300  0.63825000  1
  C  276  1  0.49112900  0.40015500  0.63069100  1
  C  277  1  0.48614300  0.40816400  0.59929300  1
  C  278  1  0.49247500  0.38646500  0.57577700  1
  C  279  1  0.51506400  0.32903200  0.53300800  1
  C  280  1  0.52543500  0.30055100  0.51953600  1
  C  281  1  0.53013100  0.27367000  0.53761200  1
  C  282  1  0.52637500  0.27629300  0.57007900  1
  C  283  1  0.55234800  0.30526600  0.63534900  1
  C  284  1  0.54163700  0.28493200  0.65911100  1
  C  285  1  0.49744800  0.27870400  0.65762900  1
  C  286  1  0.47935700  0.29540600  0.63326800  1
  C  287  1  0.47193600  0.25887000  0.67563700  1
  C  288  1  0.42750000  0.25595000  0.66887300  1
  C  289  1  0.40806700  0.27313900  0.64489900  1
  C  290  1  0.43457800  0.29274800  0.62679400  1
  C  291  1  0.59565100  0.31528900  0.63197700  1
  C  292  1  0.62820200  0.30496900  0.65268200  1
  C  293  1  0.61630700  0.28473200  0.67672500  1
  C  294  1  0.57325400  0.27440800  0.67993100  1
  C  307  1  0.51335200  0.31323800  0.61684900  1
  C  316  1  0.51705600  0.69787100  0.28414800  1
  C  317  1  0.51059500  0.67205900  0.30276900  1
  C  318  1  0.50200500  0.64692100  0.28404000  1
  C  319  1  0.50408800  0.65614000  0.25322100  1
  C  320  1  0.49872200  0.63408400  0.22963200  1
  C  321  1  0.49066200  0.60280700  0.23716800  1
  C  322  1  0.48586100  0.59474700  0.26856700  1
  C  323  1  0.49232300  0.61641500  0.29209800  1
  C  324  1  0.51498000  0.67383600  0.33490000  1
  C  325  1  0.52541800  0.70230800  0.34837400  1
  C  326  1  0.53019300  0.72917800  0.33029300  1
  C  327  1  0.52637800  0.72656600  0.29783000  1
  C  328  1  0.55200700  0.69763200  0.23247000  1
  C  329  1  0.54120200  0.71797300  0.20873600  1
  C  330  1  0.49702600  0.72421400  0.21031700  1
  C  331  1  0.47904300  0.70754300  0.23473900  1
  C  332  1  0.47142300  0.74401000  0.19233200  1
  C  333  1  0.42700100  0.74688600  0.19915600  1
  C  334  1  0.40766500  0.72969300  0.22316800  1
  C  335  1  0.43427000  0.71013400  0.24125800  1
  C  336  1  0.59532100  0.68758600  0.23573300  1
  C  337  1  0.62778000  0.69791300  0.21495800  1
  C  338  1  0.61579800  0.71817100  0.19095800  1
  C  339  1  0.57272800  0.72848600  0.18783800  1
  C  352  1  0.51309200  0.68967600  0.25106200  1
  C  361  1  0.98639400  0.03847200  0.19345400  1
  C  362  1  0.02270800  0.02091000  0.20348600  1
  C  363  1  0.02922400  0.99110900  0.19120100  1
  C  364  1  0.00158000  0.97815100  0.16865900  1
  C  365  1  0.96542900  0.99589300  0.15849300  1
  C  367  1  0.95802400  0.02522000  0.17160900  1
  C  369  1  0.93543100  0.98504000  0.13394200  1
  C  373  1  0.05436900  0.03309200  0.22631700  1
  C  377  1  0.97721400  0.07036000  0.20487100  1
  C  380  1  0.01490100  0.94849000  0.15370700  1
  C  383  1  0.98627000  0.96442400  0.67404400  1
  C  384  1  0.02261800  0.98195500  0.66401500  1
  C  385  1  0.02915500  0.01176200  0.67627500  1
  C  386  1  0.00150000  0.02476300  0.69878900  1
  C  387  1  0.96533900  0.00704100  0.70897200  1
  C  389  1  0.95792300  0.97770000  0.69589100  1
  C  391  1  0.93532100  0.01793800  0.73349300  1
  C  395  1  0.05428500  0.96973400  0.64120600  1
  C  399  1  0.97700900  0.93255700  0.66259300  1
  C  402  1  0.01484400  0.05443500  0.71371000  1
  C  405  1  0.98634200  0.74173000  0.97068200  1
  C  406  1  0.02265300  0.73166500  0.95313300  1
  C  407  1  0.02910700  0.74384500  0.92328200  1
  C  408  1  0.00140600  0.76631400  0.91024800  1
  C  409  1  0.96529600  0.77654000  0.92800100  1
  C  411  1  0.95794900  0.76352800  0.95738100  1
  C  413  1  0.93525300  0.80103700  0.91708700  1
  C  417  1  0.05437000  0.70890600  0.96537800  1
  C  421  1  0.97717500  0.73037500  0.00259600  1
  C  424  1  0.01476100  0.78120200  0.88056400  1
  C  427  1  0.98622200  0.26112700  0.89674900  1
  C  428  1  0.02252600  0.27121000  0.91429600  1
  C  429  1  0.02906500  0.25897300  0.94411200  1
  C  430  1  0.00148800  0.23639800  0.95708800  1
  C  431  1  0.96535500  0.22617500  0.93936000  1
  C  433  1  0.95790400  0.23926500  0.91002600  1
  C  435  1  0.93541200  0.20160200  0.95024400  1
  C  439  1  0.05414600  0.29405400  0.90208100  1
  C  443  1  0.97699700  0.27251800  0.86485900  1
  C  446  1  0.01486800  0.22147500  0.98674800  1
  C  449  1  0.51045500  0.53787000  0.69370300  1
  C  450  1  0.54647300  0.51859900  0.70064200  1
  C  451  1  0.54750500  0.48838200  0.68859400  1
  C  452  1  0.51440600  0.47654500  0.66937600  1
  C  453  1  0.47792400  0.49565600  0.66303200  1
  C  455  1  0.47630200  0.52558100  0.67580300  1
  C  457  1  0.44163900  0.48552900  0.64282800  1
  C  461  1  0.58363700  0.52946100  0.71967100  1
  C  465  1  0.50759100  0.57057900  0.70435600  1
  C  468  1  0.52302800  0.44705000  0.65254800  1
  C  471  1  0.51020900  0.46516600  0.17401300  1
  C  472  1  0.54615900  0.48448800  0.16703700  1
  C  473  1  0.54709300  0.51472500  0.17904600  1
  C  474  1  0.51397100  0.52652800  0.19826800  1
  C  475  1  0.47757300  0.50735700  0.20466200  1
  C  477  1  0.47604900  0.47741200  0.19193600  1
  C  479  1  0.44127000  0.51744000  0.22487400  1
  C  483  1  0.58335400  0.47366500  0.14801600  1
  C  487  1  0.50742500  0.43245000  0.16337100  1
  C  490  1  0.52256100  0.55603400  0.21508800  1
  C  493  1  0.51010800  0.24177300  0.47028000  1
  C  494  1  0.54599700  0.23465100  0.45095200  1
  C  495  1  0.54714500  0.24679800  0.42077500  1
  C  496  1  0.51429200  0.26629300  0.40903800  1
  C  497  1  0.47795300  0.27283300  0.42821600  1
  C  499  1  0.47619800  0.25996800  0.45809300  1
  C  501  1  0.44198000  0.29337600  0.41820800  1
  C  505  1  0.58288100  0.21529200  0.46170500  1
  C  509  1  0.50720200  0.23108500  0.50297500  1
  C  512  1  0.52304700  0.28311100  0.37955900  1
  C  515  1  0.51040000  0.76131200  0.39761400  1
  C  516  1  0.54640800  0.76827300  0.41689000  1
  C  517  1  0.54734300  0.75635800  0.44716100  1
  C  518  1  0.51418500  0.73721000  0.45903400  1
  C  519  1  0.47771300  0.73085100  0.43992200  1
  C  521  1  0.47618200  0.74350400  0.40994500  1
  C  523  1  0.44133100  0.71076400  0.45010500  1
  C  527  1  0.58366300  0.78718600  0.40597800  1
  C  531  1  0.50758400  0.77189400  0.36488300  1
  C  534  1  0.52276800  0.72043300  0.48856500  1
  C  537  1  0.77321600  0.22438300  0.17358200  1
  C  538  1  0.74504400  0.24568100  0.15871900  1
  C  539  1  0.72306800  0.26799400  0.17659600  1
  C  540  1  0.72745700  0.26983800  0.20891900  1
  C  541  1  0.75538500  0.24841900  0.22381900  1
  C  543  1  0.77761100  0.22624900  0.20591300  1
  C  545  1  0.76212600  0.24865800  0.25773700  1
  C  549  1  0.73776900  0.24520500  0.12486100  1
  C  553  1  0.79554300  0.19875000  0.15676000  1
  C  556  1  0.70464700  0.29516500  0.22584000  1
  C  559  1  0.77260300  0.77845900  0.69421000  1
  C  560  1  0.74475200  0.75690700  0.70901100  1
  C  561  1  0.72323000  0.73441900  0.69107600  1
  C  562  1  0.72777200  0.73264000  0.65876000  1
  C  563  1  0.75538500  0.75430900  0.64392600  1
  C  565  1  0.77715100  0.77666100  0.66188700  1
  C  567  1  0.76228100  0.75413900  0.61002200  1
  C  571  1  0.73734400  0.75729800  0.74285500  1
  C  575  1  0.79453100  0.80421400  0.71110800  1
  C  578  1  0.70542200  0.70715000  0.64176900  1
  C  581  1  0.77318000  0.76142000  0.15678500  1
  C  582  1  0.74502800  0.77634900  0.17805000  1
  C  583  1  0.72305500  0.75853700  0.20042000  1
  C  584  1  0.72741500  0.72621700  0.20234400  1
  C  585  1  0.75533700  0.71125300  0.18096300  1
  C  587  1  0.77756900  0.72909500  0.15874300  1
  C  589  1  0.76205400  0.67733300  0.18128900  1
  C  593  1  0.73776200  0.81020700  0.17748700  1
  C  597  1  0.79551700  0.77817200  0.13110900  1
  C  600  1  0.70462800  0.70937500  0.22773600  1
  C  603  1  0.77299200  0.24115900  0.71083500  1
  C  604  1  0.74497600  0.22633000  0.68941300  1
  C  605  1  0.72319800  0.24424200  0.66702900  1
  C  606  1  0.72764200  0.27656400  0.66523600  1
  C  607  1  0.75543100  0.29142600  0.68677300  1
  C  609  1  0.77745600  0.27348600  0.70901200  1
  C  611  1  0.76222300  0.32534000  0.68658500  1
  C  615  1  0.73764900  0.19247600  0.68982900  1
  C  619  1  0.79515300  0.22428600  0.73650900  1
  C  622  1  0.70503300  0.29352500  0.63984500  1
  C  625  1  0.21007500  0.77003100  0.18168500  1
  C  626  1  0.22141800  0.74054600  0.16978100  1
  C  627  1  0.26091300  0.72682100  0.17922500  1
  C  628  1  0.29002500  0.74060800  0.20034300  1
  C  629  1  0.27842000  0.76991200  0.21254800  1
  C  631  1  0.23889200  0.78363200  0.20312500  1
  C  633  1  0.30594800  0.78725200  0.23469600  1
  C  637  1  0.19357100  0.72291100  0.14805100  1
  C  641  1  0.16903400  0.78780200  0.17554700  1
  C  644  1  0.33115200  0.72283000  0.20615100  1
  C  647  1  0.20987100  0.23319500  0.68578200  1
  C  648  1  0.22127500  0.26266000  0.69770300  1
  C  649  1  0.26098900  0.27622200  0.68848600  1
  C  650  1  0.29023300  0.26231100  0.66754000  1
  C  651  1  0.27856600  0.23303000  0.65531000  1
  C  653  1  0.23883000  0.21946400  0.66451800  1
  C  655  1  0.30626000  0.21554000  0.63338200  1
  C  659  1  0.19325900  0.28044000  0.71920400  1
  C  663  1  0.16860200  0.21561100  0.69168700  1
  C  666  1  0.33157700  0.27990700  0.66196600  1
  C  669  1  0.21001100  0.24949700  0.16551500  1
  C  670  1  0.22133400  0.23760900  0.19501000  1
  C  671  1  0.26081900  0.24706700  0.20873900  1
  C  672  1  0.28994600  0.26817100  0.19494500  1
  C  673  1  0.27839400  0.28031800  0.16560700  1
  C  675  1  0.23887400  0.27088600  0.15188200  1
  C  677  1  0.30596200  0.30242200  0.14824000  1
  C  681  1  0.19346700  0.21590100  0.21265600  1
  C  685  1  0.16903000  0.24329200  0.14770000  1
  C  688  1  0.33109300  0.27394800  0.21270600  1
  C  691  1  0.20951100  0.75342900  0.70184900  1
  C  692  1  0.22108800  0.76533200  0.67241100  1
  C  693  1  0.26111700  0.75639200  0.65912900  1
  C  694  1  0.29049600  0.73570700  0.67328000  1
  C  695  1  0.27868800  0.72352200  0.70255400  1
  C  697  1  0.23863800  0.73245600  0.71583900  1
  C  699  1  0.30658500  0.70196300  0.72033600  1
  C  703  1  0.19289200  0.78647800  0.65435200  1
  C  707  1  0.16790700  0.75907000  0.71912200  1
  C  710  1  0.33217000  0.73040800  0.65599100  1
  N  38  1  0.82624100  0.20937700  0.13244900  1
  N  40  1  0.01010300  0.09342100  0.19465500  1
  N  42  1  0.98014300  0.22031900  0.01066900  1
  N  44  1  0.13986000  0.21808400  0.15831100  1
  N  83  1  0.82539500  0.79378400  0.73540000  1
  N  85  1  0.00982900  0.90943000  0.67277200  1
  N  87  1  0.97998400  0.78242900  0.85668400  1
  N  89  1  0.13886100  0.78436500  0.70855200  1
  N  128  1  0.82617600  0.80254200  0.14166100  1
  N  130  1  0.01006200  0.74064900  0.02563100  1
  N  132  1  0.98016200  0.92457700  0.15261300  1
  N  134  1  0.13991500  0.77722900  0.15029600  1
  N  173  1  0.82591000  0.19998300  0.72595100  1
  N  175  1  0.00989400  0.26232900  0.84179100  1
  N  177  1  0.98010700  0.07835000  0.71486100  1
  N  179  1  0.13948900  0.22615500  0.71695500  1
  N  218  1  0.36369000  0.70716600  0.66769400  1
  N  220  1  0.54131900  0.59060900  0.68996400  1
  N  222  1  0.48699000  0.72111300  0.51169100  1
  N  224  1  0.67218100  0.71829700  0.61944600  1
  N  263  1  0.36278500  0.29706100  0.20096700  1
  N  265  1  0.54122800  0.41245400  0.17772600  1
  N  267  1  0.48731400  0.28239900  0.35640100  1
  N  269  1  0.67140500  0.28370500  0.24800400  1
  N  308  1  0.36322200  0.26820800  0.63880100  1
  N  310  1  0.54107600  0.24532900  0.52298600  1
  N  312  1  0.48726600  0.42391200  0.65320400  1
  N  314  1  0.67179100  0.31575300  0.65118400  1
  N  353  1  0.36281000  0.73454600  0.22929900  1
  N  355  1  0.54135100  0.75747900  0.34490200  1
  N  357  1  0.48668800  0.57908700  0.21462500  1
  N  359  1  0.67138600  0.68715600  0.21637600  1
