# generated using pymatgen
data_CuH8C13NO4
_symmetry_space_group_name_H-M   'P 1'
_cell_length_a   10.93681000
_cell_length_b   14.02623000
_cell_length_c   21.95619000
_cell_angle_alpha   87.59089000
_cell_angle_beta   86.66877000
_cell_angle_gamma   88.09535000
_symmetry_Int_Tables_number   1
_chemical_formula_structural   CuH8C13NO4
_chemical_formula_sum   'Cu8 H64 C104 N8 O32'
_cell_volume   3357.86369208
_cell_formula_units_Z   8
loop_
 _symmetry_equiv_pos_site_id
 _symmetry_equiv_pos_as_xyz
  1  'x, y, z'
loop_
 _atom_site_type_symbol
 _atom_site_label
 _atom_site_symmetry_multiplicity
 _atom_site_fract_x
 _atom_site_fract_y
 _atom_site_fract_z
 _atom_site_occupancy
  Cu  Cu1  1  0.22861000  0.30345000  0.66811000  1.0
  Cu  Cu2  1  0.23732000  0.11759000  0.67278000  1.0
  Cu  Cu3  1  0.19899000  0.30071000  0.16881000  1.0
  Cu  Cu4  1  0.20664000  0.11466000  0.17414000  1.0
  Cu  Cu5  1  0.77138000  0.69656000  0.33189000  1.0
  Cu  Cu6  1  0.76268000  0.88242000  0.32722000  1.0
  Cu  Cu7  1  0.80101000  0.69930000  0.83119000  1.0
  Cu  Cu8  1  0.79336000  0.88534000  0.82586000  1.0
  H  H1  1  0.20367000  0.36314000  0.85950000  1.0
  H  H2  1  0.19353000  0.36403000  0.97426000  1.0
  H  H3  1  0.24756000  0.05956000  0.98276000  1.0
  H  H4  1  0.25723000  0.05836000  0.86851000  1.0
  H  H5  1  0.85259000  0.05785000  0.68354000  1.0
  H  H6  1  0.62555000  0.05651000  0.67925000  1.0
  H  H7  1  0.61113000  0.36265000  0.66094000  1.0
  H  H8  1  0.83988000  0.36429000  0.66449000  1.0
  H  H9  1  0.26056000  0.06231000  0.48104000  1.0
  H  H10  1  0.24654000  0.06061000  0.36750000  1.0
  H  H11  1  0.16739000  0.36261000  0.36166000  1.0
  H  H12  1  0.18025000  0.36383000  0.47569000  1.0
  H  H13  1  0.82309000  0.05455000  0.18598000  1.0
  H  H14  1  0.59597000  0.05236000  0.18335000  1.0
  H  H15  1  0.58089000  0.35804000  0.15981000  1.0
  H  H16  1  0.80994000  0.36010000  0.16076000  1.0
  H  H17  1  0.39407000  0.46214000  0.61329000  1.0
  H  H18  1  0.40329000  0.64027000  0.61049000  1.0
  H  H19  1  0.06153000  0.64423000  0.72037000  1.0
  H  H20  1  0.06390000  0.46653000  0.71392000  1.0
  H  H21  1  0.42645000  0.95082000  0.66541000  1.0
  H  H22  1  0.43363000  0.77316000  0.66320000  1.0
  H  H23  1  0.03748000  0.78567000  0.67099000  1.0
  H  H24  1  0.04750000  0.96202000  0.67604000  1.0
  H  H25  1  0.39640000  0.94826000  0.16883000  1.0
  H  H26  1  0.40360000  0.77074000  0.16503000  1.0
  H  H27  1  0.00784000  0.78443000  0.16481000  1.0
  H  H28  1  0.01777000  0.96031000  0.17234000  1.0
  H  H29  1  0.36873000  0.45911000  0.11618000  1.0
  H  H30  1  0.37838000  0.63720000  0.11277000  1.0
  H  H31  1  0.02592000  0.64335000  0.21303000  1.0
  H  H32  1  0.02813000  0.46568000  0.20693000  1.0
  H  H33  1  0.79632000  0.63687000  0.14050000  1.0
  H  H34  1  0.80646000  0.63597000  0.02574000  1.0
  H  H35  1  0.75244000  0.94044000  0.01724000  1.0
  H  H36  1  0.74277000  0.94165000  0.13149000  1.0
  H  H37  1  0.14741000  0.94216000  0.31646000  1.0
  H  H38  1  0.37445000  0.94350000  0.32075000  1.0
  H  H39  1  0.38887000  0.63736000  0.33906000  1.0
  H  H40  1  0.16012000  0.63572000  0.33551000  1.0
  H  H41  1  0.73944000  0.93770000  0.51896000  1.0
  H  H42  1  0.75345000  0.93940000  0.63250000  1.0
  H  H43  1  0.83261000  0.63740000  0.63834000  1.0
  H  H44  1  0.81975000  0.63618000  0.52431000  1.0
  H  H45  1  0.17691000  0.94546000  0.81402000  1.0
  H  H46  1  0.40403000  0.94765000  0.81665000  1.0
  H  H47  1  0.41911000  0.64196000  0.84019000  1.0
  H  H48  1  0.19006000  0.63991000  0.83924000  1.0
  H  H49  1  0.60593000  0.53787000  0.38671000  1.0
  H  H50  1  0.59671000  0.35974000  0.38951000  1.0
  H  H51  1  0.93846000  0.35577000  0.27963000  1.0
  H  H52  1  0.93609000  0.53348000  0.28608000  1.0
  H  H53  1  0.57355000  0.04919000  0.33459000  1.0
  H  H54  1  0.56637000  0.22685000  0.33680000  1.0
  H  H55  1  0.96252000  0.21433000  0.32901000  1.0
  H  H56  1  0.95250000  0.03799000  0.32396000  1.0
  H  H57  1  0.60359000  0.05175000  0.83117000  1.0
  H  H58  1  0.59640000  0.22927000  0.83497000  1.0
  H  H59  1  0.99215000  0.21558000  0.83519000  1.0
  H  H60  1  0.98223000  0.03969000  0.82766000  1.0
  H  H61  1  0.63127000  0.54090000  0.88382000  1.0
  H  H62  1  0.62161000  0.36281000  0.88723000  1.0
  H  H63  1  0.97408000  0.35666000  0.78697000  1.0
  H  H64  1  0.97187000  0.53433000  0.79307000  1.0
  C  C1  1  0.23296000  0.20982000  0.78894000  1.0
  C  C2  1  0.99683000  0.21290000  0.67522000  1.0
  C  C3  1  0.23030000  0.21395000  0.55260000  1.0
  C  C4  1  0.46825000  0.20907000  0.66714000  1.0
  C  C5  1  0.19996000  0.21018000  0.28986000  1.0
  C  C6  1  0.96715000  0.20875000  0.17372000  1.0
  C  C7  1  0.21400000  0.21199000  0.05342000  1.0
  C  C8  1  0.43808000  0.20453000  0.16999000  1.0
  C  C9  1  0.23104000  0.21069000  0.85719000  1.0
  C  C10  1  0.21348000  0.29726000  0.88693000  1.0
  C  C11  1  0.20802000  0.29784000  0.95046000  1.0
  C  C12  1  0.22034000  0.21194000  0.98502000  1.0
  C  C13  1  0.23837000  0.12549000  0.95534000  1.0
  C  C14  1  0.24364000  0.12495000  0.89187000  1.0
  C  C15  1  0.86033000  0.21144000  0.67363000  1.0
  C  C16  1  0.79999000  0.12445000  0.67781000  1.0
  C  C17  1  0.67304000  0.12359000  0.67545000  1.0
  C  C18  1  0.60481000  0.20957000  0.66905000  1.0
  C  C19  1  0.66512000  0.29652000  0.66539000  1.0
  C  C20  1  0.79203000  0.29744000  0.66765000  1.0
  C  C21  1  0.22236000  0.21336000  0.48469000  1.0
  C  C22  1  0.24055000  0.12748000  0.45441000  1.0
  C  C23  1  0.23262000  0.12669000  0.39139000  1.0
  C  C24  1  0.20685000  0.21160000  0.35775000  1.0
  C  C25  1  0.18795000  0.29743000  0.38817000  1.0
  C  C26  1  0.19537000  0.29823000  0.45128000  1.0
  C  C27  1  0.83059000  0.20753000  0.17271000  1.0
  C  C28  1  0.77022000  0.12070000  0.17906000  1.0
  C  C29  1  0.64315000  0.11947000  0.17793000  1.0
  C  C30  1  0.57475000  0.20515000  0.17065000  1.0
  C  C31  1  0.63504000  0.29210000  0.16483000  1.0
  C  C32  1  0.76219000  0.29326000  0.16561000  1.0
  C  C33  1  0.32232000  0.50581000  0.63591000  1.0
  C  C34  1  0.32740000  0.60490000  0.63532000  1.0
  C  C35  1  0.23322000  0.65811000  0.66575000  1.0
  C  C36  1  0.13621000  0.60741000  0.69500000  1.0
  C  C37  1  0.13790000  0.50844000  0.69267000  1.0
  C  C38  1  0.34255000  0.91092000  0.66683000  1.0
  C  C39  1  0.34571000  0.81184000  0.66490000  1.0
  C  C40  1  0.23524000  0.76331000  0.66696000  1.0
  C  C41  1  0.12599000  0.81867000  0.67062000  1.0
  C  C42  1  0.13073000  0.91737000  0.67272000  1.0
  C  C43  1  0.31264000  0.90852000  0.16837000  1.0
  C  C44  1  0.31579000  0.80955000  0.16545000  1.0
  C  C45  1  0.20535000  0.76138000  0.16496000  1.0
  C  C46  1  0.09621000  0.81698000  0.16688000  1.0
  C  C47  1  0.10091000  0.91547000  0.17027000  1.0
  C  C48  1  0.29478000  0.50325000  0.13659000  1.0
  C  C49  1  0.29998000  0.60236000  0.13563000  1.0
  C  C50  1  0.20302000  0.65624000  0.16329000  1.0
  C  C51  1  0.10295000  0.60605000  0.18983000  1.0
  C  C52  1  0.10462000  0.50705000  0.18788000  1.0
  C  C53  1  0.76704000  0.79019000  0.21106000  1.0
  C  C54  1  0.00316000  0.78711000  0.32478000  1.0
  C  C55  1  0.76969000  0.78606000  0.44740000  1.0
  C  C56  1  0.53175000  0.79093000  0.33286000  1.0
  C  C57  1  0.80004000  0.78982000  0.71014000  1.0
  C  C58  1  0.03285000  0.79126000  0.82628000  1.0
  C  C59  1  0.78600000  0.78801000  0.94658000  1.0
  C  C60  1  0.56192000  0.79548000  0.83001000  1.0
  C  C61  1  0.76896000  0.78932000  0.14281000  1.0
  C  C62  1  0.78651000  0.70275000  0.11307000  1.0
  C  C63  1  0.79198000  0.70217000  0.04955000  1.0
  C  C64  1  0.77966000  0.78807000  0.01498000  1.0
  C  C65  1  0.76162000  0.87451000  0.04466000  1.0
  C  C66  1  0.75636000  0.87506000  0.10813000  1.0
  C  C67  1  0.13967000  0.78857000  0.32637000  1.0
  C  C68  1  0.20001000  0.87556000  0.32219000  1.0
  C  C69  1  0.32696000  0.87642000  0.32455000  1.0
  C  C70  1  0.39519000  0.79044000  0.33095000  1.0
  C  C71  1  0.33488000  0.70349000  0.33461000  1.0
  C  C72  1  0.20796000  0.70257000  0.33235000  1.0
  C  C73  1  0.77764000  0.78665000  0.51531000  1.0
  C  C74  1  0.75945000  0.87253000  0.54559000  1.0
  C  C75  1  0.76738000  0.87332000  0.60861000  1.0
  C  C76  1  0.79315000  0.78841000  0.64225000  1.0
  C  C77  1  0.81205000  0.70257000  0.61183000  1.0
  C  C78  1  0.80463000  0.70178000  0.54872000  1.0
  C  C79  1  0.16941000  0.79247000  0.82729000  1.0
  C  C80  1  0.22977000  0.87931000  0.82094000  1.0
  C  C81  1  0.35685000  0.88053000  0.82207000  1.0
  C  C82  1  0.42524000  0.79486000  0.82935000  1.0
  C  C83  1  0.36496000  0.70791000  0.83517000  1.0
  C  C84  1  0.23780000  0.70674000  0.83439000  1.0
  C  C85  1  0.67768000  0.49419000  0.36409000  1.0
  C  C86  1  0.67260000  0.39511000  0.36468000  1.0
  C  C87  1  0.76678000  0.34190000  0.33425000  1.0
  C  C88  1  0.86379000  0.39260000  0.30500000  1.0
  C  C89  1  0.86210000  0.49157000  0.30733000  1.0
  C  C90  1  0.65745000  0.08909000  0.33317000  1.0
  C  C91  1  0.65429000  0.18817000  0.33510000  1.0
  C  C92  1  0.76476000  0.23670000  0.33304000  1.0
  C  C93  1  0.87400000  0.18134000  0.32938000  1.0
  C  C94  1  0.86927000  0.08264000  0.32728000  1.0
  C  C95  1  0.68736000  0.09148000  0.83163000  1.0
  C  C96  1  0.68421000  0.19045000  0.83455000  1.0
  C  C97  1  0.79465000  0.23862000  0.83504000  1.0
  C  C98  1  0.90379000  0.18303000  0.83312000  1.0
  C  C99  1  0.89909000  0.08454000  0.82973000  1.0
  C  C100  1  0.70522000  0.49676000  0.86341000  1.0
  C  C101  1  0.70002000  0.39764000  0.86437000  1.0
  C  C102  1  0.79698000  0.34377000  0.83671000  1.0
  C  C103  1  0.89705000  0.39395000  0.81017000  1.0
  C  C104  1  0.89538000  0.49295000  0.81212000  1.0
  N  N1  1  0.22930000  0.45776000  0.66424000  1.0
  N  N2  1  0.23716000  0.96341000  0.67098000  1.0
  N  N3  1  0.20723000  0.96114000  0.17127000  1.0
  N  N4  1  0.19898000  0.45571000  0.16256000  1.0
  N  N5  1  0.77069000  0.54224000  0.33576000  1.0
  N  N6  1  0.76284000  0.03660000  0.32902000  1.0
  N  N7  1  0.79277000  0.03886000  0.82873000  1.0
  N  N8  1  0.80102000  0.54429000  0.83744000  1.0
  O  O1  1  0.22959000  0.29099000  0.76042000  1.0
  O  O2  1  0.23601000  0.12846000  0.76484000  1.0
  O  O3  1  0.04526000  0.29467000  0.67576000  1.0
  O  O4  1  0.05437000  0.13226000  0.67582000  1.0
  O  O5  1  0.22418000  0.29533000  0.57672000  1.0
  O  O6  1  0.24192000  0.13315000  0.58074000  1.0
  O  O7  1  0.41197000  0.29022000  0.66344000  1.0
  O  O8  1  0.41893000  0.12762000  0.66991000  1.0
  O  O9  1  0.19365000  0.29100000  0.26083000  1.0
  O  O10  1  0.20038000  0.12846000  0.26645000  1.0
  O  O11  1  0.01614000  0.29034000  0.17277000  1.0
  O  O12  1  0.02416000  0.12787000  0.17559000  1.0
  O  O13  1  0.20559000  0.29330000  0.07778000  1.0
  O  O14  1  0.21754000  0.13091000  0.08168000  1.0
  O  O15  1  0.38202000  0.28569000  0.16668000  1.0
  O  O16  1  0.38847000  0.12311000  0.17317000  1.0
  O  O17  1  0.77041000  0.70902000  0.23958000  1.0
  O  O18  1  0.76399000  0.87154000  0.23516000  1.0
  O  O19  1  0.95474000  0.70534000  0.32424000  1.0
  O  O20  1  0.94563000  0.86775000  0.32418000  1.0
  O  O21  1  0.77581000  0.70468000  0.42328000  1.0
  O  O22  1  0.75808000  0.86686000  0.41926000  1.0
  O  O23  1  0.58803000  0.70978000  0.33656000  1.0
  O  O24  1  0.58107000  0.87238000  0.33009000  1.0
  O  O25  1  0.80635000  0.70900000  0.73917000  1.0
  O  O26  1  0.79961000  0.87155000  0.73355000  1.0
  O  O27  1  0.98385000  0.70966000  0.82723000  1.0
  O  O28  1  0.97584000  0.87213000  0.82441000  1.0
  O  O29  1  0.79440000  0.70671000  0.92223000  1.0
  O  O30  1  0.78246000  0.86909000  0.91832000  1.0
  O  O31  1  0.61798000  0.71432000  0.83332000  1.0
  O  O32  1  0.61153000  0.87689000  0.82683000  1.0
