# generated using pymatgen
data_H2C4N
_symmetry_space_group_name_H-M   'P 1'
_cell_length_a   9.90636667
_cell_length_b   43.88680000
_cell_length_c   43.88680000
_cell_angle_alpha   90.00000000
_cell_angle_beta   90.00000000
_cell_angle_gamma   90.00000000
_symmetry_Int_Tables_number   1
_chemical_formula_structural   H2C4N
_chemical_formula_sum   'H120 C240 N60'
_cell_volume   19080.16954704
_cell_formula_units_Z   60
loop_
 _symmetry_equiv_pos_site_id
 _symmetry_equiv_pos_as_xyz
  1  'x, y, z'
loop_
 _atom_site_type_symbol
 _atom_site_label
 _atom_site_symmetry_multiplicity
 _atom_site_fract_x
 _atom_site_fract_y
 _atom_site_fract_z
 _atom_site_occupancy
  C  1  1  0.99243400  0.28103200  0.03337200  1
  C  2  1  0.01144800  0.25960200  0.05685900  1
  C  3  1  0.02396700  0.22805900  0.05099100  1
  C  4  1  0.01151500  0.21775800  0.02041500  1
  C  5  1  0.99000700  0.23854600  0.99595800  1
  C  6  1  0.98452400  0.27001700  0.00321300  1
  C  10  1  0.98689300  0.72829200  0.97688200  1
  C  11  1  0.00631400  0.74963600  0.95331600  1
  C  12  1  0.01969900  0.78118500  0.95906500  1
  C  13  1  0.00751500  0.79159800  0.98960500  1
  C  14  1  0.98529700  0.77091100  0.01411200  1
  C  15  1  0.97896800  0.73942300  0.00698600  1
  C  19  1  0.99243300  0.97615900  0.28119600  1
  C  20  1  0.01180300  0.95270800  0.25974800  1
  C  21  1  0.02465400  0.95863700  0.22822400  1
  C  22  1  0.01220400  0.98922200  0.21796000  1
  C  23  1  0.99047600  0.01363900  0.23878000  1
  C  24  1  0.98458600  0.00633500  0.27023400  1
  C  28  1  0.98802400  0.03266800  0.72848100  1
  C  29  1  0.00692100  0.05626100  0.74982200  1
  C  30  1  0.01966200  0.05055900  0.78139700  1
  C  31  1  0.00738400  0.02002600  0.79183000  1
  C  32  1  0.98573200  0.99548400  0.77115000  1
  C  33  1  0.98003300  0.00257500  0.73964600  1
  C  37  1  0.03393000  0.22893200  0.53435400  1
  C  38  1  0.01304200  0.25024800  0.55783100  1
  C  39  1  0.00066200  0.28179800  0.55198600  1
  C  40  1  0.01472600  0.29215600  0.52145500  1
  C  41  1  0.03761400  0.27140300  0.49703300  1
  C  42  1  0.04344500  0.23993500  0.50423600  1
  C  46  1  0.02834800  0.78098700  0.47642300  1
  C  47  1  0.00881600  0.75985700  0.45269400  1
  C  48  1  0.99870400  0.72818300  0.45814000  1
  C  49  1  0.01389000  0.71750700  0.48853200  1
  C  50  1  0.03555100  0.73806000  0.51316800  1
  C  51  1  0.03881800  0.76962800  0.50638200  1
  C  55  1  0.03440500  0.53401700  0.78088600  1
  C  56  1  0.01336900  0.55748200  0.75956800  1
  C  57  1  0.00077300  0.55161500  0.72802800  1
  C  58  1  0.01479100  0.52108400  0.71768100  1
  C  59  1  0.03794800  0.49668200  0.73844100  1
  C  60  1  0.04399500  0.50389600  0.76990400  1
  C  64  1  0.02868700  0.47610700  0.22874500  1
  C  65  1  0.00943400  0.45236200  0.24987200  1
  C  66  1  0.99946000  0.45778500  0.28155400  1
  C  67  1  0.01452000  0.48818300  0.29223400  1
  C  68  1  0.03593400  0.51284200  0.27169000  1
  C  69  1  0.03900400  0.50606600  0.24011800  1
  C  73  1  0.02806600  0.19429600  0.22286400  1
  C  74  1  0.03854900  0.20134600  0.19133600  1
  C  75  1  0.03416700  0.17883900  0.16821800  1
  C  76  1  0.01816400  0.14811300  0.17691700  1
  C  77  1  0.00653600  0.13957200  0.20791300  1
  C  78  1  0.01023600  0.16302600  0.23035600  1
  C  82  1  0.02792000  0.81496300  0.78713700  1
  C  83  1  0.03851400  0.80789900  0.81866100  1
  C  84  1  0.03375300  0.83038200  0.84180200  1
  C  85  1  0.01723600  0.86110200  0.83312100  1
  C  86  1  0.00546100  0.86964900  0.80213000  1
  C  87  1  0.00956600  0.84622000  0.77966700  1
  C  91  1  0.02822700  0.78677400  0.19463600  1
  C  92  1  0.03937300  0.81829900  0.20166900  1
  C  93  1  0.03469800  0.84141300  0.17916200  1
  C  94  1  0.01794000  0.83272700  0.14845900  1
  C  95  1  0.00572400  0.80174000  0.13994600  1
  C  96  1  0.00959600  0.77928900  0.16338800  1
  C  100  1  0.02769200  0.22249000  0.81530900  1
  C  101  1  0.03783800  0.19096200  0.80824300  1
  C  102  1  0.03319400  0.16782300  0.83072800  1
  C  103  1  0.01736100  0.17652200  0.86146600  1
  C  104  1  0.00611200  0.20752400  0.87003200  1
  C  105  1  0.01010200  0.22997600  0.84658500  1
  C  109  1  0.02035200  0.31578300  0.72344100  1
  C  110  1  0.00302300  0.30847300  0.69216500  1
  C  111  1  0.99868700  0.33102200  0.66909000  1
  C  112  1  0.01132600  0.36187900  0.67764300  1
  C  113  1  0.02579000  0.37059200  0.70854100  1
  C  114  1  0.02925800  0.34717700  0.73102200  1
  C  118  1  0.02065100  0.69360000  0.28660100  1
  C  119  1  0.00322100  0.70102900  0.31784000  1
  C  120  1  0.99864300  0.67857100  0.34100200  1
  C  121  1  0.01117900  0.64767800  0.33256500  1
  C  122  1  0.02580400  0.63884800  0.30170400  1
  C  123  1  0.02945800  0.66217900  0.27913200  1
  C  127  1  0.02030300  0.72306300  0.69390600  1
  C  128  1  0.00289200  0.69180500  0.70127900  1
  C  129  1  0.99834400  0.66869500  0.67877100  1
  C  130  1  0.01082500  0.67718500  0.64789600  1
  C  131  1  0.02538200  0.70806000  0.63913300  1
  C  132  1  0.02908600  0.73058900  0.66249800  1
  C  136  1  0.02077200  0.28622700  0.31609500  1
  C  137  1  0.00350700  0.31748300  0.30871500  1
  C  138  1  0.99905600  0.34062400  0.33119500  1
  C  139  1  0.01155500  0.33213400  0.36208200  1
  C  140  1  0.02599600  0.30125200  0.37087700  1
  C  141  1  0.02952500  0.27871900  0.34750800  1
  C  145  1  0.02497500  0.44549800  0.10400300  1
  C  146  1  0.00986200  0.41451400  0.09564200  1
  C  147  1  0.00135900  0.40555000  0.06473700  1
  C  148  1  0.01214000  0.42823800  0.04205900  1
  C  149  1  0.02657200  0.45927300  0.04966800  1
  C  150  1  0.02985400  0.46765300  0.08064100  1
  C  154  1  0.03364800  0.56505600  0.90538200  1
  C  155  1  0.01481100  0.59566900  0.91444800  1
  C  156  1  0.00256900  0.60376700  0.94554900  1
  C  157  1  0.01128200  0.58047500  0.96773100  1
  C  158  1  0.03093800  0.54972100  0.95945300  1
  C  159  1  0.03884200  0.54243400  0.92819900  1
  C  163  1  0.02516000  0.90568700  0.44570400  1
  C  164  1  0.00977100  0.91397900  0.41471200  1
  C  165  1  0.00103000  0.94486100  0.40569600  1
  C  166  1  0.01187100  0.96759200  0.42832700  1
  C  167  1  0.02674900  0.96005900  0.45937300  1
  C  168  1  0.03028700  0.92909700  0.46780800  1
  C  172  1  0.03381600  0.10438000  0.56527700  1
  C  173  1  0.01563100  0.09523900  0.59589000  1
  C  174  1  0.00389700  0.06411400  0.60394000  1
  C  175  1  0.01265800  0.04198900  0.58059100  1
  C  176  1  0.03145900  0.05033200  0.54982600  1
  C  177  1  0.03873700  0.08161000  0.54260100  1
  C  181  1  0.98847700  0.37446800  0.05631100  1
  C  182  1  0.91019900  0.36469100  0.03122500  1
  C  183  1  0.90895300  0.33375400  0.02316200  1
  C  184  1  0.98619000  0.31272500  0.04019300  1
  C  189  1  0.98868900  0.63472400  0.95440600  1
  C  190  1  0.91021900  0.64427800  0.97954100  1
  C  191  1  0.90664100  0.67526900  0.98745000  1
  C  192  1  0.98194200  0.69654200  0.97025500  1
  C  197  1  0.98799400  0.95321600  0.37460500  1
  C  198  1  0.90924600  0.97821000  0.36479300  1
  C  199  1  0.90808500  0.98625800  0.33385400  1
  C  200  1  0.98585200  0.96929800  0.31287100  1
  C  205  1  0.99033300  0.05517800  0.63489000  1
  C  206  1  0.91235400  0.02994800  0.64440800  1
  C  207  1  0.90872100  0.02201100  0.67539200  1
  C  208  1  0.98346600  0.03927200  0.69671300  1
  C  213  1  0.04360200  0.13558400  0.55703500  1
  C  214  1  0.12726300  0.14604100  0.53311700  1
  C  215  1  0.12613900  0.17696800  0.52510100  1
  C  216  1  0.04172400  0.19731800  0.54114700  1
  C  221  1  0.03343100  0.87461800  0.45455400  1
  C  222  1  0.11488900  0.86432600  0.47891600  1
  C  223  1  0.11517700  0.83332400  0.48670400  1
  C  224  1  0.03404700  0.81273900  0.47007500  1
  C  229  1  0.04369200  0.55677100  0.87419900  1
  C  230  1  0.12753700  0.53286600  0.86378600  1
  C  231  1  0.12657700  0.52482100  0.83286600  1
  C  232  1  0.04212800  0.54082800  0.81249000  1
  C  237  1  0.03335100  0.45430300  0.13508600  1
  C  238  1  0.11479800  0.47866800  0.14538300  1
  C  239  1  0.11521800  0.48643100  0.17639100  1
  C  240  1  0.03424300  0.46977200  0.19698600  1
  C  245  1  0.04698800  0.18709800  0.13695100  1
  C  246  1  0.15770000  0.20433000  0.12637800  1
  C  247  1  0.15850800  0.21506600  0.09620400  1
  C  248  1  0.04786600  0.20896700  0.07672300  1
  C  253  1  0.04586200  0.82208100  0.87308300  1
  C  254  1  0.15555000  0.80455400  0.88372400  1
  C  255  1  0.15535900  0.79378800  0.91388800  1
  C  256  1  0.04477700  0.80016300  0.93329900  1
  C  261  1  0.04758900  0.87267900  0.18738500  1
  C  262  1  0.15853800  0.88329100  0.20451300  1
  C  263  1  0.15942100  0.91348700  0.21518200  1
  C  264  1  0.04865300  0.93293900  0.20910700  1
  C  269  1  0.04526700  0.13654500  0.82239500  1
  C  270  1  0.15506500  0.12593100  0.80488700  1
  C  271  1  0.15494500  0.09578600  0.79406300  1
  C  272  1  0.04435800  0.07635500  0.80037300  1
  C  277  1  0.98295100  0.32269600  0.63794400  1
  C  278  1  0.87202100  0.30522400  0.62793100  1
  C  279  1  0.86885700  0.29452800  0.59774900  1
  C  280  1  0.97757000  0.30085100  0.57778900  1
  C  285  1  0.98252600  0.68704300  0.37210300  1
  C  286  1  0.87196200  0.70474700  0.38190300  1
  C  287  1  0.86857500  0.71563700  0.41201000  1
  C  288  1  0.97658400  0.70929800  0.43216900  1
  C  293  1  0.98261200  0.63756800  0.68712000  1
  C  294  1  0.87191500  0.62756900  0.70466500  1
  C  295  1  0.86886200  0.59738700  0.71535200  1
  C  296  1  0.97736200  0.57737200  0.70897000  1
  C  301  1  0.98305500  0.37174100  0.32273900  1
  C  302  1  0.87264200  0.38155900  0.30499200  1
  C  303  1  0.86939200  0.41165900  0.29407700  1
  C  304  1  0.97748600  0.43178800  0.30043700  1
  C  309  1  0.99295800  0.21537800  0.90161100  1
  C  310  1  0.90702400  0.23886200  0.91187300  1
  C  311  1  0.89974700  0.24565000  0.94313800  1
  C  312  1  0.98049100  0.22961100  0.96447900  1
  C  317  1  0.99152400  0.79394500  0.10840000  1
  C  318  1  0.90371900  0.77078800  0.09821800  1
  C  319  1  0.89519400  0.76410900  0.06695100  1
  C  320  1  0.97658600  0.77991100  0.04556300  1
  C  325  1  0.99340200  0.10799400  0.21574600  1
  C  326  1  0.90725200  0.09770300  0.23917700  1
  C  327  1  0.89995900  0.06643000  0.24591500  1
  C  328  1  0.98094600  0.04512400  0.22989400  1
  C  333  1  0.99135500  0.90120300  0.79432100  1
  C  334  1  0.90400700  0.91137400  0.77106800  1
  C  335  1  0.89568400  0.94263400  0.76433700  1
  C  336  1  0.97676800  0.96404200  0.78019400  1
  C  341  1  0.03763100  0.29369900  0.40255800  1
  C  342  1  0.12647700  0.27100400  0.41334100  1
  C  343  1  0.13287700  0.26461000  0.44469200  1
  C  344  1  0.04864400  0.28029200  0.46559600  1
  C  349  1  0.03697900  0.71557300  0.60746700  1
  C  350  1  0.12654800  0.73809400  0.59664200  1
  C  351  1  0.13279100  0.74445600  0.56528800  1
  C  352  1  0.04763900  0.72891600  0.54447800  1
  C  357  1  0.03750900  0.40224600  0.71614000  1
  C  358  1  0.12656800  0.41299400  0.73880500  1
  C  359  1  0.13312900  0.44434100  0.74520600  1
  C  360  1  0.04880500  0.46525200  0.72956100  1
  C  365  1  0.03744800  0.60716700  0.29421400  1
  C  366  1  0.12682100  0.59633900  0.27165100  1
  C  367  1  0.13300900  0.56498500  0.26527300  1
  C  368  1  0.04800300  0.54416100  0.28083800  1
  C  373  1  0.02962000  0.26341200  0.29246800  1
  C  374  1  0.09593200  0.26884900  0.26444600  1
  C  375  1  0.09861600  0.24632000  0.24160800  1
  C  376  1  0.03387100  0.21785800  0.24601900  1
  C  381  1  0.02930400  0.74586900  0.71753000  1
  C  382  1  0.09590100  0.74043700  0.74551800  1
  C  383  1  0.09870700  0.76297000  0.76835200  1
  C  384  1  0.03378500  0.79141600  0.76397200  1
  C  389  1  0.02964200  0.71719800  0.26376500  1
  C  390  1  0.09634600  0.74517600  0.26916500  1
  C  391  1  0.09911300  0.76800300  0.24662500  1
  C  392  1  0.03404300  0.76362100  0.21819700  1
  C  397  1  0.02914600  0.29211700  0.74621800  1
  C  398  1  0.09519300  0.26407300  0.74073300  1
  C  399  1  0.09792900  0.24122500  0.76325500  1
  C  400  1  0.03349100  0.24565000  0.79175100  1
  C  405  1  0.03982200  0.52657100  0.98188800  1
  C  406  1  0.12235800  0.50052000  0.97848800  1
  C  407  1  0.12036000  0.47782000  0.00091800  1
  C  408  1  0.03681600  0.48160500  0.02666100  1
  C  413  1  0.04013700  0.02793300  0.52662100  1
  C  414  1  0.12133000  0.03149300  0.50037600  1
  C  415  1  0.11927000  0.00904700  0.47769000  1
  C  416  1  0.03699000  0.98312300  0.48166000  1
  H  7  1  0.01904300  0.19494800  0.01595000  1
  H  8  1  0.98026000  0.28560100  0.98593900  1
  H  9  1  0.01590700  0.26719900  0.07892300  1
  H  16  1  0.01598700  0.81440000  0.99401400  1
  H  17  1  0.97456700  0.72391300  0.02432600  1
  H  18  1  0.01095300  0.74195700  0.93128500  1
  H  25  1  0.01997100  0.99372300  0.19516200  1
  H  26  1  0.98009900  0.02358100  0.28584500  1
  H  27  1  0.01624500  0.93063300  0.26731500  1
  H  34  1  0.01535800  0.01564700  0.81464800  1
  H  35  1  0.97589400  0.98521700  0.72415600  1
  H  36  1  0.01159900  0.07828500  0.74212500  1
  H  43  1  0.00760600  0.31497400  0.51700100  1
  H  44  1  0.04976800  0.22434400  0.48698700  1
  H  45  1  0.00812200  0.24256000  0.57986200  1
  H  52  1  0.00848000  0.69461900  0.49273400  1
  H  53  1  0.04410600  0.78499200  0.52385700  1
  H  54  1  0.00325000  0.76778000  0.43075800  1
  H  61  1  0.00746400  0.51661100  0.69487000  1
  H  62  1  0.05043500  0.48665400  0.78550100  1
  H  63  1  0.00839900  0.57951600  0.76724400  1
  H  70  1  0.00921600  0.49237600  0.31512400  1
  H  71  1  0.04419700  0.52354700  0.22475900  1
  H  72  1  0.00396200  0.43043000  0.24193800  1
  H  79  1  0.01519700  0.13171800  0.16031700  1
  H  80  1  0.00535500  0.15703800  0.25283700  1
  H  81  1  0.04525700  0.22360300  0.18466600  1
  H  88  1  0.01380000  0.87748300  0.84972700  1
  H  89  1  0.00441600  0.85222400  0.75719100  1
  H  90  1  0.04535800  0.78563700  0.82530700  1
  H  97  1  0.01469200  0.84932400  0.13206400  1
  H  98  1  0.00411800  0.75681500  0.15739800  1
  H  99  1  0.04641800  0.82497500  0.22391900  1
  H  106  1  0.01413900  0.15991700  0.87785200  1
  H  107  1  0.00537500  0.25245600  0.85257800  1
  H  108  1  0.04413700  0.18430900  0.78597400  1
  H  115  1  0.00942300  0.37824400  0.66101200  1
  H  116  1  0.03965600  0.35306700  0.75343800  1
  H  117  1  0.99328300  0.28612300  0.68588300  1
  H  124  1  0.00906500  0.63137200  0.34925500  1
  H  125  1  0.03994200  0.65620900  0.25674000  1
  H  126  1  0.99356000  0.72340700  0.32402900  1
  H  133  1  0.00878600  0.66052700  0.63155900  1
  H  134  1  0.03958300  0.75299200  0.65656000  1
  H  135  1  0.99329100  0.68556400  0.72364600  1
  H  142  1  0.00953200  0.34880400  0.37840800  1
  H  143  1  0.03983100  0.25631400  0.35344600  1
  H  144  1  0.99385200  0.32370300  0.28634400  1
  H  151  1  0.00965100  0.42212200  0.01955900  1
  H  152  1  0.03791300  0.49024300  0.08613100  1
  H  153  1  0.00504800  0.39821100  0.11228400  1
  H  160  1  0.00910000  0.58608500  0.99035700  1
  H  161  1  0.04406100  0.52003100  0.92187400  1
  H  162  1  0.01009900  0.61230900  0.89813800  1
  H  169  1  0.00910000  0.99007200  0.42215700  1
  H  170  1  0.03859000  0.92364700  0.49040000  1
  H  171  1  0.00485900  0.89730600  0.39844100  1
  H  178  1  0.01077800  0.01935200  0.58616300  1
  H  179  1  0.04345500  0.08799400  0.52021100  1
  H  180  1  0.01099600  0.11151800  0.61256200  1
  H  186  1  0.85002200  0.32687100  0.00531900  1
  H  187  1  0.85289300  0.37970000  0.01895600  1
  H  194  1  0.84746700  0.68201200  0.00530100  1
  H  195  1  0.85405400  0.62909400  0.99186100  1
  H  202  1  0.84892600  0.00405100  0.32694100  1
  H  203  1  0.85167600  0.99044100  0.37978400  1
  H  210  1  0.84978400  0.00410600  0.68209800  1
  H  211  1  0.85644600  0.01759300  0.62920300  1
  H  218  1  0.18865000  0.18438300  0.50810300  1
  H  219  1  0.19021400  0.13155300  0.52166000  1
  H  226  1  0.17691500  0.82602500  0.50389200  1
  H  227  1  0.17634400  0.87891400  0.49065100  1
  H  234  1  0.18920500  0.50783600  0.82547400  1
  H  235  1  0.19051500  0.52144600  0.87829600  1
  H  242  1  0.17692900  0.50362100  0.18368800  1
  H  243  1  0.17613700  0.49042500  0.13079200  1
  H  250  1  0.23458900  0.22931000  0.08941900  1
  H  251  1  0.23499300  0.21013200  0.14070700  1
  H  258  1  0.23064400  0.77935100  0.92072100  1
  H  259  1  0.23274200  0.79856400  0.86944800  1
  H  266  1  0.23561000  0.92030600  0.22938100  1
  H  267  1  0.23590300  0.86897700  0.21029700  1
  H  274  1  0.23037000  0.08897600  0.77965400  1
  H  275  1  0.23229600  0.14021500  0.79894200  1
  H  282  1  0.79285600  0.28009800  0.59131200  1
  H  283  1  0.79646900  0.29923100  0.64264700  1
  H  290  1  0.79257300  0.73013100  0.41829900  1
  H  291  1  0.79677300  0.71074000  0.36709000  1
  H  298  1  0.79300700  0.59096400  0.72982500  1
  H  299  1  0.79644900  0.64228900  0.71070600  1
  H  306  1  0.79346200  0.41795500  0.27956700  1
  H  307  1  0.79743400  0.36675500  0.29898500  1
  H  314  1  0.83587900  0.26261400  0.95000300  1
  H  315  1  0.84798600  0.25080700  0.89694200  1
  H  322  1  0.83012600  0.74736100  0.06011600  1
  H  323  1  0.84426600  0.75902100  0.11321000  1
  H  330  1  0.83593000  0.05953300  0.26283800  1
  H  331  1  0.84806100  0.11261700  0.25110300  1
  H  338  1  0.83096700  0.94945200  0.74751600  1
  H  339  1  0.84476600  0.89637900  0.75925300  1
  H  346  1  0.19848200  0.24815200  0.45195600  1
  H  347  1  0.18826600  0.25937000  0.39874200  1
  H  354  1  0.19848700  0.76087400  0.55796100  1
  H  355  1  0.18876100  0.74965400  0.61121300  1
  H  362  1  0.19888000  0.45159400  0.76163900  1
  H  363  1  0.18840300  0.39837500  0.75040300  1
  H  370  1  0.19857700  0.55766700  0.24882900  1
  H  371  1  0.18893200  0.61090800  0.26006700  1
  H  378  1  0.15046200  0.25095200  0.22203100  1
  H  379  1  0.14514200  0.28897100  0.26056100  1
  H  386  1  0.15071500  0.75834700  0.78791100  1
  H  387  1  0.14517700  0.72031900  0.74937800  1
  H  394  1  0.15122400  0.78754900  0.25123000  1
  H  395  1  0.14573300  0.74903900  0.28926900  1
  H  402  1  0.14957500  0.22163000  0.75859000  1
  H  403  1  0.14419200  0.26018100  0.72058800  1
  H  410  1  0.18055300  0.45902900  0.99848000  1
  H  411  1  0.18456700  0.49788800  0.96007900  1
  H  418  1  0.17862100  0.01160200  0.45878000  1
  H  419  1  0.18274400  0.05001300  0.49760300  1
  N  185  1  0.05664400  0.32400900  0.06433500  1
  N  188  1  0.05807800  0.35281000  0.07189300  1
  N  193  1  0.05317100  0.68542500  0.94617800  1
  N  196  1  0.05649700  0.65662300  0.93875200  1
  N  201  1  0.05667500  0.94522500  0.32418000  1
  N  204  1  0.05803700  0.93768300  0.35298500  1
  N  209  1  0.05426600  0.06343200  0.68562800  1
  N  212  1  0.05764300  0.07088500  0.65683100  1
  N  217  1  0.96664400  0.18552800  0.56430600  1
  N  220  1  0.96716300  0.15668700  0.57173200  1
  N  225  1  0.96039400  0.82443500  0.44665100  1
  N  228  1  0.95992900  0.85330500  0.43939200  1
  N  233  1  0.96681400  0.56396200  0.82424300  1
  N  236  1  0.96718800  0.57141600  0.85307200  1
  N  241  1  0.96063800  0.44633900  0.18528600  1
  N  244  1  0.96004000  0.43910200  0.15640700  1
  N  249  1  0.94513000  0.19215100  0.08866500  1
  N  252  1  0.94558600  0.18152600  0.11670300  1
  N  257  1  0.94316200  0.81728900  0.92131100  1
  N  260  1  0.94455800  0.82792800  0.89328000  1
  N  265  1  0.94571800  0.92095600  0.19238700  1
  N  268  1  0.94609600  0.89290200  0.18182000  1
  N  273  1  0.94265400  0.08831200  0.81749900  1
  N  276  1  0.94395100  0.11633200  0.82818300  1
  N  281  1  0.08061800  0.31792300  0.58920200  1
  N  284  1  0.08219200  0.32853600  0.61723300  1
  N  289  1  0.07922500  0.69196900  0.42093100  1
  N  292  1  0.08115400  0.68119600  0.39295600  1
  N  297  1  0.08020300  0.58883500  0.69185700  1
  N  300  1  0.08177300  0.61685800  0.68124100  1
  N  305  1  0.07997700  0.42056200  0.31781300  1
  N  308  1  0.08171700  0.39259000  0.32860000  1
  N  313  1  0.05812300  0.20678200  0.95283600  1
  N  316  1  0.06303300  0.20008400  0.92362900  1
  N  321  1  0.05616900  0.80242400  0.05713800  1
  N  324  1  0.06217500  0.80904300  0.08634500  1
  N  329  1  0.05876900  0.05679300  0.20711400  1
  N  332  1  0.06366900  0.08600500  0.20045700  1
  N  337  1  0.05591700  0.95247600  0.80279300  1
  N  340  1  0.06176600  0.92327300  0.80945500  1
  N  345  1  0.96824300  0.30237300  0.45348900  1
  N  348  1  0.96412000  0.30871000  0.42419800  1
  N  353  1  0.96656700  0.70698300  0.55660500  1
  N  356  1  0.96267700  0.70066400  0.58589400  1
  N  361  1  0.96822300  0.45318200  0.70750000  1
  N  364  1  0.96396700  0.42389700  0.70115600  1
  N  369  1  0.96713200  0.55629000  0.30281300  1
  N  372  1  0.96328200  0.58558400  0.30914300  1
  N  377  1  0.97565300  0.21415000  0.27402100  1
  N  380  1  0.97376500  0.23513500  0.29554000  1
  N  385  1  0.97530900  0.79511600  0.73599600  1
  N  388  1  0.97332500  0.77413300  0.71447900  1
  N  393  1  0.97547100  0.73565200  0.21452300  1
  N  396  1  0.97351200  0.71414200  0.23551500  1
  N  401  1  0.97551700  0.27367200  0.79549900  1
  N  404  1  0.97359600  0.29519800  0.77452500  1
  N  409  1  0.96318000  0.50764500  0.02877700  1
  N  412  1  0.96453400  0.52868500  0.00772400  1
  N  417  1  0.96459800  0.98087600  0.50786800  1
  N  420  1  0.96601700  0.00193700  0.52889900  1
