# generated using pymatgen
data_H28C47(N4O3)2
_symmetry_space_group_name_H-M   'P 1'
_cell_length_a   31.75350000
_cell_length_b   35.94080000
_cell_length_c   35.94080000
_cell_angle_alpha   90.00000000
_cell_angle_beta   90.00170000
_cell_angle_gamma   90.00000000
_symmetry_Int_Tables_number   1
_chemical_formula_structural   H28C47(N4O3)2
_chemical_formula_sum   'H224 C376 N64 O48'
_cell_volume   41017.30114813
_cell_formula_units_Z   8
loop_
 _symmetry_equiv_pos_site_id
 _symmetry_equiv_pos_as_xyz
  1  'x, y, z'
loop_
 _atom_site_type_symbol
 _atom_site_label
 _atom_site_symmetry_multiplicity
 _atom_site_fract_x
 _atom_site_fract_y
 _atom_site_fract_z
 _atom_site_occupancy
  H  25  1  0.14603400  0.27315700  0.11223300  1
  H  26  1  0.08120600  0.28729500  0.14213500  1
  H  27  1  0.92652300  0.26890100  0.15901400  1
  H  28  1  0.86245100  0.23777400  0.14487900  1
  H  29  1  0.92620500  0.17302300  0.06511900  1
  H  30  1  0.08447400  0.19139600  0.04833700  1
  H  31  1  0.98680900  0.26506100  0.04050800  1
  H  32  1  0.96673300  0.22723400  0.93096200  1
  H  33  1  0.98803400  0.16673100  0.94865000  1
  H  34  1  0.01988800  0.16805300  0.14069200  1
  H  35  1  0.02432600  0.07380900  0.04461800  1
  H  36  1  0.03934100  0.05707100  0.10714900  1
  H  39  1  0.00884700  0.25483000  0.16167000  1
  H  40  1  0.99904100  0.28872200  0.12690500  1
  H  42  1  0.98031900  0.12303700  0.00582400  1
  H  43  1  0.03501900  0.13116600  0.99974500  1
  H  76  1  0.14593200  0.73140000  0.63643400  1
  H  77  1  0.08109300  0.71723800  0.60654900  1
  H  78  1  0.92642500  0.73562900  0.58964100  1
  H  79  1  0.86235700  0.76680000  0.60371200  1
  H  80  1  0.92608800  0.83157300  0.68346700  1
  H  81  1  0.08438900  0.81322600  0.70026200  1
  H  82  1  0.98668300  0.73957200  0.70821000  1
  H  83  1  0.96675200  0.77755900  0.81773700  1
  H  84  1  0.98805000  0.83803300  0.79993800  1
  H  85  1  0.01972400  0.83646400  0.60788300  1
  H  86  1  0.02429600  0.93081100  0.70385000  1
  H  87  1  0.03926400  0.94747700  0.64129400  1
  H  90  1  0.00873800  0.74967400  0.58700700  1
  H  91  1  0.99892800  0.71581300  0.62180100  1
  H  93  1  0.98027800  0.88165500  0.74270800  1
  H  94  1  0.03497500  0.87350300  0.74878500  1
  H  127  1  0.14581400  0.76466800  0.14537100  1
  H  128  1  0.08101900  0.73465800  0.15941800  1
  H  129  1  0.92638400  0.71761600  0.14091200  1
  H  130  1  0.86232200  0.73167000  0.10973400  1
  H  131  1  0.92603500  0.81143700  0.04496100  1
  H  132  1  0.08428100  0.82842000  0.06347800  1
  H  133  1  0.98654500  0.83620500  0.13703400  1
  H  134  1  0.96648400  0.94572400  0.09908200  1
  H  135  1  0.98781400  0.92797000  0.03860800  1
  H  136  1  0.01982200  0.73594900  0.04012300  1
  H  137  1  0.02426500  0.83195400  0.94580600  1
  H  138  1  0.03937100  0.76942900  0.92913200  1
  H  141  1  0.00872500  0.71502300  0.12688200  1
  H  142  1  0.99884600  0.74978800  0.16075700  1
  H  144  1  0.98014500  0.87073200  0.99495300  1
  H  145  1  0.03482700  0.87688600  0.00313100  1
  H  178  1  0.14588600  0.24008900  0.60327900  1
  H  179  1  0.08104000  0.26996100  0.58913200  1
  H  180  1  0.92638100  0.28684400  0.60757300  1
  H  181  1  0.86232500  0.27273100  0.63872800  1
  H  182  1  0.92611700  0.19304000  0.70354500  1
  H  183  1  0.08441300  0.17633200  0.68519600  1
  H  184  1  0.98656400  0.16836700  0.61157000  1
  H  185  1  0.96681100  0.05881200  0.64951800  1
  H  186  1  0.98827000  0.07658500  0.70997400  1
  H  187  1  0.01962700  0.26868200  0.70844000  1
  H  188  1  0.02446000  0.17270000  0.80276200  1
  H  189  1  0.03930800  0.23527500  0.81943700  1
  H  192  1  0.00870200  0.28953200  0.62161100  1
  H  193  1  0.99889000  0.25471700  0.58777000  1
  H  195  1  0.98050800  0.13377100  0.75363400  1
  H  196  1  0.03520400  0.12779900  0.74541000  1
  H  229  1  0.64827300  0.75361100  0.63711200  1
  H  230  1  0.58244700  0.77969600  0.65516800  1
  H  231  1  0.42513800  0.78245900  0.65031900  1
  H  232  1  0.36010900  0.76317400  0.62362900  1
  H  233  1  0.42491400  0.68387200  0.55925000  1
  H  234  1  0.58572500  0.68629000  0.55884300  1
  H  235  1  0.49597400  0.76883600  0.54243500  1
  H  236  1  0.47497500  0.73182000  0.43274900  1
  H  237  1  0.49273700  0.67058900  0.45061500  1
  H  238  1  0.51090500  0.67053600  0.64372500  1
  H  239  1  0.51933900  0.57611700  0.54812600  1
  H  240  1  0.53090600  0.55937000  0.61110500  1
  H  243  1  0.50410000  0.75747900  0.66429700  1
  H  244  1  0.50367400  0.79193000  0.62902200  1
  H  246  1  0.47979000  0.62743200  0.50681800  1
  H  247  1  0.53529600  0.63237300  0.50397300  1
  H  280  1  0.64822600  0.25099300  0.11153200  1
  H  281  1  0.58240000  0.22495800  0.09347100  1
  H  282  1  0.42510700  0.22224000  0.09835200  1
  H  283  1  0.36008400  0.24157600  0.12502800  1
  H  284  1  0.42497400  0.32080800  0.18944900  1
  H  285  1  0.58575400  0.31825400  0.18989300  1
  H  286  1  0.49593700  0.23581300  0.20633100  1
  H  287  1  0.47478000  0.27293500  0.31594300  1
  H  288  1  0.49261700  0.33412700  0.29807200  1
  H  289  1  0.51095900  0.33403000  0.10497400  1
  H  290  1  0.51951200  0.42850700  0.20051700  1
  H  291  1  0.53110400  0.44519900  0.13753200  1
  H  294  1  0.50408700  0.24721500  0.08439600  1
  H  295  1  0.50362100  0.21271100  0.11961900  1
  H  297  1  0.47983400  0.37725100  0.24183200  1
  H  298  1  0.53533400  0.37227600  0.24472200  1
  H  331  1  0.64814700  0.23951900  0.62569000  1
  H  332  1  0.58232100  0.22143700  0.65172600  1
  H  333  1  0.42502100  0.22632600  0.65447300  1
  H  334  1  0.36000800  0.25299800  0.63514000  1
  H  335  1  0.42485100  0.31735200  0.55584200  1
  H  336  1  0.58563100  0.31785000  0.55840900  1
  H  337  1  0.49572600  0.33425200  0.64081100  1
  H  338  1  0.47464100  0.44389100  0.60368000  1
  H  339  1  0.49259800  0.42600000  0.54248500  1
  H  340  1  0.51080400  0.23289700  0.54264200  1
  H  341  1  0.51949000  0.32841200  0.44814800  1
  H  342  1  0.53101000  0.26540200  0.43147100  1
  H  345  1  0.50398900  0.21233700  0.62948200  1
  H  346  1  0.50355200  0.24758300  0.66396300  1
  H  348  1  0.47985000  0.36976400  0.49935000  1
  H  349  1  0.53534000  0.37262100  0.50441000  1
  H  382  1  0.64813100  0.76501900  0.12281400  1
  H  383  1  0.58232400  0.78308200  0.09672400  1
  H  384  1  0.42502500  0.77829100  0.09394600  1
  H  385  1  0.35998600  0.75167200  0.11327300  1
  H  386  1  0.42474800  0.68738600  0.19269200  1
  H  387  1  0.58554600  0.68687900  0.19024900  1
  H  388  1  0.49577600  0.67040000  0.10773200  1
  H  389  1  0.47479900  0.56075500  0.14489700  1
  H  390  1  0.49258600  0.57869600  0.20609700  1
  H  391  1  0.51066900  0.77181600  0.20591200  1
  H  392  1  0.51938000  0.67632600  0.30042100  1
  H  393  1  0.53086800  0.73932100  0.31709400  1
  H  396  1  0.50399600  0.79227800  0.11893100  1
  H  397  1  0.50353300  0.75696100  0.08452400  1
  H  399  1  0.47973700  0.63495500  0.24922500  1
  H  400  1  0.53523000  0.63212000  0.24419600  1
  H  418  1  0.06750000  0.00443400  0.18321500  1
  H  419  1  0.03220200  0.94624500  0.17789400  1
  H  422  1  0.88630400  0.09300200  0.16210200  1
  H  423  1  0.95805600  0.09359000  0.17353500  1
  H  425  1  0.04799400  0.06811300  0.21096800  1
  H  427  1  0.93427600  0.93615900  0.19817800  1
  H  437  1  0.06760100  0.99998600  0.56516400  1
  H  438  1  0.03246100  0.05830300  0.57054700  1
  H  441  1  0.88621200  0.91186300  0.58698600  1
  H  442  1  0.95789300  0.91110100  0.57520400  1
  H  444  1  0.04785100  0.93632800  0.53749600  1
  H  446  1  0.93453800  0.06846500  0.55029300  1
  H  456  1  0.06759300  0.69325900  0.87656000  1
  H  457  1  0.03236100  0.69862400  0.81833000  1
  H  460  1  0.88634500  0.71480000  0.96495700  1
  H  461  1  0.95805600  0.70315600  0.96561300  1
  H  463  1  0.04804600  0.66563600  0.94022800  1
  H  465  1  0.93440500  0.67848500  0.80821400  1
  H  475  1  0.06762300  0.31151800  0.87189900  1
  H  476  1  0.03266100  0.30627600  0.93025800  1
  H  479  1  0.88600100  0.28962900  0.78419000  1
  H  480  1  0.95772300  0.30121500  0.78324100  1
  H  482  1  0.04759100  0.33913000  0.80829400  1
  H  484  1  0.93499100  0.32661500  0.94066300  1
  H  494  1  0.56694600  0.50987200  0.68725600  1
  H  495  1  0.53747900  0.44913800  0.68211300  1
  H  498  1  0.37793100  0.58417700  0.66468100  1
  H  499  1  0.44932800  0.59032600  0.67627900  1
  H  501  1  0.54031000  0.57162300  0.71522900  1
  H  503  1  0.44131900  0.43229700  0.70304300  1
  H  513  1  0.56692700  0.49463600  0.06117800  1
  H  514  1  0.53748200  0.55534100  0.06632200  1
  H  517  1  0.37797100  0.42034100  0.08411700  1
  H  518  1  0.44936200  0.41417300  0.07249200  1
  H  520  1  0.54021800  0.43287300  0.03336000  1
  H  522  1  0.44154900  0.57219400  0.04553500  1
  H  532  1  0.56686700  0.18898200  0.38204300  1
  H  533  1  0.53744100  0.19422900  0.32131500  1
  H  536  1  0.37792700  0.21226800  0.45627400  1
  H  537  1  0.44926800  0.20042200  0.46246100  1
  H  539  1  0.54019300  0.16126500  0.44383600  1
  H  541  1  0.44141700  0.17363600  0.30444000  1
  H  551  1  0.56702200  0.81571900  0.36644200  1
  H  552  1  0.53785000  0.81054900  0.42727500  1
  H  555  1  0.37778900  0.79232800  0.29281400  1
  H  556  1  0.44910400  0.80416100  0.28639100  1
  H  558  1  0.54007700  0.84344800  0.30476500  1
  H  560  1  0.44204300  0.83135300  0.44432300  1
  H  570  1  0.75137300  0.29925900  0.09548500  1
  H  571  1  0.80041700  0.25240500  0.07700800  1
  H  574  1  0.69000100  0.19542300  0.23711500  1
  H  575  1  0.68433200  0.24892000  0.20158700  1
  H  577  1  0.72254800  0.32127800  0.15872000  1
  H  579  1  0.78960500  0.16570200  0.09753600  1
  H  589  1  0.75156900  0.70525700  0.65316300  1
  H  590  1  0.80053700  0.75223400  0.67155300  1
  H  593  1  0.68964200  0.80892200  0.51155900  1
  H  594  1  0.68422500  0.75541400  0.54708100  1
  H  596  1  0.72244100  0.68305400  0.59022300  1
  H  598  1  0.78954200  0.83898200  0.65086600  1
  H  608  1  0.75123200  0.78107300  0.17119400  1
  H  609  1  0.80027800  0.79951700  0.12431000  1
  H  612  1  0.68976100  0.63942400  0.06739100  1
  H  613  1  0.68411100  0.67497900  0.12088100  1
  H  615  1  0.72240000  0.71785300  0.19322300  1
  H  617  1  0.78947000  0.77890800  0.03760000  1
  H  627  1  0.75120000  0.22333400  0.57738300  1
  H  628  1  0.80025000  0.20489200  0.62424200  1
  H  631  1  0.69007600  0.36520900  0.68101000  1
  H  632  1  0.68433500  0.32960600  0.62757500  1
  H  634  1  0.72238100  0.28651000  0.55524900  1
  H  636  1  0.78953900  0.22558900  0.71093100  1
  H  646  1  0.25806900  0.70184600  0.09889500  1
  H  647  1  0.20896900  0.74820200  0.07924800  1
  H  650  1  0.31851700  0.80882200  0.23852900  1
  H  651  1  0.32445900  0.75457100  0.20420100  1
  H  653  1  0.28775900  0.68119200  0.16236300  1
  H  655  1  0.22027700  0.83533500  0.09784600  1
  H  665  1  0.25833300  0.30292900  0.64950500  1
  H  666  1  0.20923300  0.25663800  0.66928900  1
  H  669  1  0.31842200  0.19568000  0.50997500  1
  H  670  1  0.32451900  0.24997500  0.54423900  1
  H  672  1  0.28774400  0.32336800  0.58575700  1
  H  674  1  0.22044600  0.16954700  0.65088400  1
  H  684  1  0.25845400  0.22716600  0.17513200  1
  H  685  1  0.20940400  0.20720500  0.12886700  1
  H  688  1  0.31849800  0.36641900  0.06750600  1
  H  689  1  0.32456600  0.33233500  0.12191600  1
  H  691  1  0.28785300  0.29097000  0.19545100  1
  H  693  1  0.22061500  0.22539800  0.04174100  1
  H  703  1  0.25836400  0.77765400  0.57362800  1
  H  704  1  0.20925100  0.79746700  0.61991100  1
  H  707  1  0.31839100  0.63810200  0.68089200  1
  H  708  1  0.32449400  0.67234700  0.62659200  1
  H  710  1  0.28787500  0.71399600  0.55314200  1
  H  712  1  0.22044700  0.77899800  0.70703200  1
  C  1  1  0.01278600  0.15905600  0.08301900  1
  C  2  1  0.01400200  0.13123500  0.05505400  1
  C  3  1  0.99828500  0.17911800  0.00566200  1
  C  4  1  0.99782800  0.20777700  0.03277300  1
  C  5  1  0.98771600  0.24439400  0.02089800  1
  C  6  1  0.97596300  0.25282200  0.98378500  1
  C  7  1  0.97697100  0.22351000  0.95762200  1
  C  8  1  0.98884700  0.18746500  0.96820400  1
  C  9  1  0.02268300  0.09394000  0.06474900  1
  C  10  1  0.03085300  0.08396100  0.10175800  1
  C  11  1  0.02982000  0.11086900  0.13032000  1
  C  12  1  0.02051800  0.14808700  0.12035100  1
  C  13  1  0.04471200  0.22034100  0.08486400  1
  C  14  1  0.04382300  0.24829100  0.11261900  1
  C  15  1  0.96494100  0.23910100  0.12103000  1
  C  16  1  0.96491900  0.21075300  0.09366800  1
  C  17  1  0.92675000  0.24874700  0.13886700  1
  C  18  1  0.88870000  0.23062800  0.13013500  1
  C  19  1  0.88713500  0.20237400  0.10286600  1
  C  20  1  0.92588700  0.19330200  0.08510400  1
  C  21  1  0.08417700  0.21181400  0.06817400  1
  C  22  1  0.12254500  0.23015500  0.07739600  1
  C  23  1  0.12010200  0.25800800  0.10502600  1
  C  24  1  0.08160800  0.26672700  0.12241200  1
  C  37  1  0.00508600  0.19955800  0.07361300  1
  C  38  1  0.00414400  0.25900800  0.13179600  1
  C  41  1  0.00703100  0.13983400  0.01527200  1
  C  44  1  0.04117300  0.10217100  0.16767000  1
  C  45  1  0.95808800  0.28830700  0.97525100  1
  C  46  1  0.84970900  0.18116800  0.09477200  1
  C  47  1  0.16046100  0.22201200  0.05687000  1
  C  52  1  0.01267900  0.84552400  0.66555000  1
  C  53  1  0.01393400  0.87337800  0.69348200  1
  C  54  1  0.99820300  0.82556600  0.74293100  1
  C  55  1  0.99772500  0.79686900  0.71585900  1
  C  56  1  0.98763700  0.76026400  0.72779500  1
  C  57  1  0.97586200  0.75191100  0.76491700  1
  C  58  1  0.97695500  0.78123700  0.79106000  1
  C  59  1  0.98875900  0.81727700  0.78040100  1
  C  60  1  0.02262800  0.91065800  0.68374200  1
  C  61  1  0.03077100  0.92059400  0.64672000  1
  C  62  1  0.02969200  0.89365800  0.61818700  1
  C  63  1  0.02038500  0.85645300  0.62820300  1
  C  64  1  0.04460500  0.78423400  0.66377900  1
  C  65  1  0.04371200  0.75625500  0.63605300  1
  C  66  1  0.96483100  0.76544200  0.62762900  1
  C  67  1  0.96480500  0.79381100  0.65496900  1
  C  68  1  0.92664600  0.75579500  0.60977700  1
  C  69  1  0.88859900  0.77393400  0.61847600  1
  C  70  1  0.88702200  0.80218800  0.64574300  1
  C  71  1  0.92577000  0.81127000  0.66351000  1
  C  72  1  0.08407500  0.79277600  0.68045700  1
  C  73  1  0.12243100  0.77440100  0.67126500  1
  C  74  1  0.11999400  0.74653900  0.64364500  1
  C  75  1  0.08149400  0.73780200  0.62627900  1
  C  88  1  0.00497900  0.80503200  0.67500700  1
  C  89  1  0.00403300  0.74552300  0.61688400  1
  C  92  1  0.00697400  0.86483000  0.73327300  1
  C  95  1  0.04099100  0.90231700  0.58081400  1
  C  96  1  0.95811300  0.71639700  0.77352200  1
  C  97  1  0.84961500  0.82345700  0.65373900  1
  C  98  1  0.16035400  0.78258400  0.69176400  1
  C  103  1  0.01266800  0.79361000  0.03107500  1
  C  104  1  0.01389400  0.82155400  0.00323300  1
  C  105  1  0.99804600  0.87096500  0.05105200  1
  C  106  1  0.99758600  0.84388200  0.07973700  1
  C  107  1  0.98744200  0.85578800  0.11633700  1
  C  108  1  0.97565100  0.89290100  0.12470900  1
  C  109  1  0.97671000  0.91905600  0.09539200  1
  C  110  1  0.98851000  0.90841600  0.05934600  1
  C  111  1  0.02264100  0.81183800  0.96595600  1
  C  112  1  0.03080300  0.77482400  0.95600100  1
  C  113  1  0.02981100  0.74629100  0.98293900  1
  C  114  1  0.02044700  0.75627400  0.02014200  1
  C  115  1  0.04452800  0.79184900  0.09239000  1
  C  116  1  0.04364600  0.76410900  0.12035600  1
  C  117  1  0.96478300  0.75561700  0.11111100  1
  C  118  1  0.96475200  0.78296000  0.08274400  1
  C  119  1  0.92660200  0.73775500  0.12074800  1
  C  120  1  0.88854900  0.74645500  0.10261800  1
  C  121  1  0.88698400  0.77368600  0.07432800  1
  C  122  1  0.92572300  0.79147400  0.06526200  1
  C  123  1  0.08397800  0.80858800  0.08390200  1
  C  124  1  0.12232000  0.79945600  0.10233100  1
  C  125  1  0.11989200  0.77182200  0.13017900  1
  C  126  1  0.08142000  0.75437100  0.13884000  1
  C  139  1  0.00490900  0.80304300  0.07156300  1
  C  140  1  0.00398100  0.74489400  0.13104700  1
  C  143  1  0.00685200  0.86133300  0.01178600  1
  C  146  1  0.04114200  0.70893000  0.97427200  1
  C  147  1  0.95792100  0.90148800  0.16023400  1
  C  148  1  0.84956100  0.78172400  0.05309200  1
  C  149  1  0.16019400  0.82007100  0.09428100  1
  C  154  1  0.01270400  0.21100400  0.71749400  1
  C  155  1  0.01403400  0.18306500  0.74533700  1
  C  156  1  0.99833900  0.13360400  0.69752000  1
  C  157  1  0.99777200  0.16068900  0.66883700  1
  C  158  1  0.98761900  0.14876700  0.63224300  1
  C  159  1  0.97585600  0.11163600  0.62389000  1
  C  160  1  0.97700200  0.08549000  0.65320800  1
  C  161  1  0.98892200  0.09613000  0.68922600  1
  C  162  1  0.02273800  0.19281000  0.78261500  1
  C  163  1  0.03080900  0.22984600  0.79255700  1
  C  164  1  0.02966400  0.25838200  0.76562600  1
  C  165  1  0.02034500  0.24836100  0.72842300  1
  C  166  1  0.04460900  0.21279000  0.65620000  1
  C  167  1  0.04369400  0.24049700  0.62820400  1
  C  168  1  0.96481800  0.24890300  0.63741200  1
  C  169  1  0.96481500  0.22157000  0.66578900  1
  C  170  1  0.92662000  0.26672600  0.62775900  1
  C  171  1  0.88858100  0.25800400  0.64589100  1
  C  172  1  0.88703100  0.23076200  0.67417300  1
  C  173  1  0.92578600  0.21301100  0.68325300  1
  C  174  1  0.08408800  0.19613000  0.66474200  1
  C  175  1  0.12243600  0.20532200  0.64635200  1
  C  176  1  0.11996600  0.23290200  0.61845300  1
  C  177  1  0.08146100  0.25026300  0.60972400  1
  C  190  1  0.00499500  0.20154500  0.67700500  1
  C  191  1  0.00400500  0.25965100  0.61747700  1
  C  194  1  0.00715400  0.14326200  0.73678100  1
  C  197  1  0.04084800  0.29578400  0.77429100  1
  C  198  1  0.95782300  0.10308900  0.58846800  1
  C  199  1  0.84960200  0.22266000  0.69537100  1
  C  200  1  0.16035400  0.18480700  0.65450800  1
  C  205  1  0.50761700  0.66156000  0.58586800  1
  C  206  1  0.51001100  0.63375000  0.55797200  1
  C  207  1  0.50206500  0.68241400  0.50783700  1
  C  208  1  0.50291200  0.71111600  0.53487900  1
  C  209  1  0.49620700  0.74824100  0.52273900  1
  C  210  1  0.48470600  0.75713100  0.48567200  1
  C  211  1  0.48481300  0.72782200  0.45945700  1
  C  212  1  0.49454500  0.69128700  0.47015800  1
  C  213  1  0.51667500  0.59626400  0.56815600  1
  C  214  1  0.52269600  0.58625600  0.60550400  1
  C  215  1  0.52076200  0.61322500  0.63401200  1
  C  216  1  0.51198800  0.65041700  0.62355800  1
  C  217  1  0.54534500  0.71996200  0.59065200  1
  C  218  1  0.54442600  0.74726500  0.61905700  1
  C  219  1  0.46423600  0.74596300  0.61937200  1
  C  220  1  0.46420800  0.71689800  0.59275600  1
  C  221  1  0.42541500  0.76106800  0.63149700  1
  C  222  1  0.38685900  0.74929600  0.61610400  1
  C  223  1  0.38555500  0.72113600  0.58875300  1
  C  224  1  0.42463100  0.70436600  0.57902700  1
  C  225  1  0.58534100  0.70648400  0.57892300  1
  C  226  1  0.62401400  0.71726300  0.59578200  1
  C  227  1  0.62181600  0.74524200  0.62326900  1
  C  228  1  0.58281200  0.76032000  0.63427200  1
  C  241  1  0.50505400  0.70246100  0.57607700  1
  C  242  1  0.50408700  0.76192200  0.63417300  1
  C  245  1  0.50691200  0.64267600  0.51785100  1
  C  248  1  0.53153300  0.60504200  0.67169900  1
  C  249  1  0.46751100  0.79309300  0.47768100  1
  C  250  1  0.34820800  0.71258800  0.56768700  1
  C  251  1  0.66190600  0.69669000  0.58795900  1
  C  256  1  0.50768700  0.34304700  0.16282800  1
  C  257  1  0.51009300  0.37087600  0.19070600  1
  C  258  1  0.50206500  0.32225500  0.24086800  1
  C  259  1  0.50292800  0.29353500  0.21384600  1
  C  260  1  0.49616700  0.25642600  0.22600900  1
  C  261  1  0.48460200  0.24756100  0.26306700  1
  C  262  1  0.48467800  0.27690400  0.28924700  1
  C  263  1  0.49453500  0.31341800  0.27855200  1
  C  264  1  0.51678800  0.40835200  0.18050200  1
  C  265  1  0.52293500  0.41830700  0.14315800  1
  C  266  1  0.52089800  0.39133800  0.11465800  1
  C  267  1  0.51208000  0.35416000  0.12513100  1
  C  268  1  0.54535500  0.28461000  0.15808400  1
  C  269  1  0.54441600  0.25732800  0.12965900  1
  C  270  1  0.46422700  0.25869100  0.12933100  1
  C  271  1  0.46422400  0.28774000  0.15596100  1
  C  272  1  0.42539300  0.24362900  0.11718000  1
  C  273  1  0.38685900  0.25537700  0.13262600  1
  C  274  1  0.38556400  0.28356900  0.15994200  1
  C  275  1  0.42465600  0.30029400  0.16969200  1
  C  276  1  0.58536300  0.29805700  0.16981600  1
  C  277  1  0.62403000  0.28725800  0.15296200  1
  C  278  1  0.62180600  0.25928300  0.12547100  1
  C  279  1  0.58278700  0.24423400  0.11445600  1
  C  292  1  0.50507900  0.30215500  0.17264100  1
  C  293  1  0.50406800  0.24272600  0.11451100  1
  C  296  1  0.50695300  0.36198400  0.23083100  1
  C  299  1  0.53164000  0.39949000  0.07695600  1
  C  300  1  0.46733500  0.21163300  0.27107000  1
  C  301  1  0.34823000  0.29216700  0.18100400  1
  C  302  1  0.66194400  0.30782000  0.16075200  1
  C  307  1  0.50758900  0.29075000  0.53361000  1
  C  308  1  0.51005500  0.31862100  0.50577800  1
  C  309  1  0.50197400  0.36879800  0.55438000  1
  C  310  1  0.50280800  0.34178100  0.58311100  1
  C  311  1  0.49603400  0.35395100  0.62021900  1
  C  312  1  0.48442000  0.39100700  0.62905000  1
  C  313  1  0.48445400  0.41716900  0.59969600  1
  C  314  1  0.49438400  0.40647700  0.56320300  1
  C  315  1  0.51679100  0.30840200  0.46831100  1
  C  316  1  0.52285300  0.27104600  0.45836200  1
  C  317  1  0.52075900  0.24255300  0.48533400  1
  C  318  1  0.51195400  0.25304700  0.52250900  1
  C  319  1  0.54525100  0.28601800  0.59204900  1
  C  320  1  0.54432200  0.25758700  0.61932100  1
  C  321  1  0.46413800  0.25727200  0.61798700  1
  C  322  1  0.46412600  0.28388600  0.58892500  1
  C  323  1  0.42531400  0.24515500  0.63308300  1
  C  324  1  0.38677700  0.26058400  0.62132300  1
  C  325  1  0.38545700  0.28785900  0.59308800  1
  C  326  1  0.42455500  0.29762800  0.57638900  1
  C  327  1  0.58525600  0.29778100  0.57861400  1
  C  328  1  0.62392900  0.28092600  0.58940800  1
  C  329  1  0.62170200  0.25337900  0.61732600  1
  C  330  1  0.58269600  0.24235900  0.63238000  1
  C  343  1  0.50497500  0.30057200  0.57450000  1
  C  344  1  0.50398000  0.24245500  0.63395300  1
  C  347  1  0.50693100  0.35875100  0.51466200  1
  C  350  1  0.53148200  0.20484100  0.47721000  1
  C  351  1  0.46699500  0.39895600  0.66492500  1
  C  352  1  0.34813200  0.30894700  0.58454000  1
  C  353  1  0.66181800  0.28876400  0.56883300  1
  C  358  1  0.50747600  0.71397100  0.21495200  1
  C  359  1  0.50991600  0.68610900  0.24279600  1
  C  360  1  0.50188900  0.63591800  0.19420900  1
  C  361  1  0.50272300  0.66292100  0.16547000  1
  C  362  1  0.49598100  0.65073900  0.12836100  1
  C  363  1  0.48444500  0.61366700  0.11952600  1
  C  364  1  0.48449500  0.58750800  0.14888500  1
  C  365  1  0.49430500  0.59823900  0.18539500  1
  C  366  1  0.51658300  0.69633700  0.28026900  1
  C  367  1  0.52263900  0.73369500  0.29021600  1
  C  368  1  0.52058900  0.76218400  0.26323300  1
  C  369  1  0.51182800  0.75167500  0.22605500  1
  C  370  1  0.54519400  0.71866200  0.15653800  1
  C  371  1  0.54428700  0.74702600  0.12919400  1
  C  372  1  0.46409800  0.74739300  0.13051000  1
  C  373  1  0.46405700  0.72081600  0.15960800  1
  C  374  1  0.42528600  0.75955400  0.11541400  1
  C  375  1  0.38673000  0.74414300  0.12715900  1
  C  376  1  0.38541000  0.71684000  0.15536300  1
  C  377  1  0.42447400  0.70712100  0.17215500  1
  C  378  1  0.58518700  0.70692300  0.17002100  1
  C  379  1  0.62388500  0.72370100  0.15918100  1
  C  380  1  0.62167700  0.75118800  0.13120000  1
  C  381  1  0.58268000  0.76220300  0.11611600  1
  C  394  1  0.50489300  0.70413000  0.17406500  1
  C  395  1  0.50395800  0.76215000  0.11452400  1
  C  398  1  0.50682000  0.64597600  0.23392500  1
  C  401  1  0.53124300  0.79990700  0.27137200  1
  C  402  1  0.46733200  0.60560100  0.08354800  1
  C  403  1  0.34806300  0.69580500  0.16395500  1
  C  404  1  0.66178000  0.71595500  0.17979200  1
  C  409  1  0.01351100  0.03831100  0.17575300  1
  C  410  1  0.96923600  0.03753900  0.16936900  1
  C  411  1  0.94838500  0.00247200  0.16512600  1
  C  412  1  0.97140600  0.96861800  0.16830600  1
  C  413  1  0.01537200  0.97014500  0.17345500  1
  C  414  1  0.03595700  0.00442400  0.17720300  1
  C  415  1  0.90432400  0.00334600  0.15855200  1
  C  417  1  0.90334100  0.06884500  0.16274500  1
  C  428  1  0.01350500  0.96626100  0.57268400  1
  C  429  1  0.96926800  0.96712400  0.57929200  1
  C  430  1  0.94853900  0.00224500  0.58357300  1
  C  431  1  0.97166400  0.03603200  0.58023200  1
  C  432  1  0.01559400  0.03441700  0.57496000  1
  C  433  1  0.03606400  0.00008900  0.57119600  1
  C  434  1  0.90451300  0.00148300  0.59034400  1
  C  436  1  0.90331900  0.93598100  0.58624300  1
  C  447  1  0.01357200  0.70081600  0.91037200  1
  C  448  1  0.96931800  0.70730700  0.90957400  1
  C  449  1  0.94852400  0.71159800  0.87448500  1
  C  450  1  0.97157000  0.70835100  0.84064900  1
  C  451  1  0.01552100  0.70311200  0.84221600  1
  C  452  1  0.03607100  0.69935300  0.87651400  1
  C  453  1  0.90448100  0.71827300  0.87531600  1
  C  455  1  0.90341400  0.71411000  0.94081500  1
  C  466  1  0.01347800  0.30379400  0.83827300  1
  C  467  1  0.96923000  0.29728300  0.83925500  1
  C  468  1  0.94859000  0.29310700  0.87442700  1
  C  469  1  0.97179400  0.29644000  0.90816600  1
  C  470  1  0.01572800  0.30169300  0.90644100  1
  C  471  1  0.03610800  0.30539700  0.87206000  1
  C  472  1  0.90454400  0.28645200  0.87377700  1
  C  474  1  0.90317700  0.29039700  0.80826700  1
  C  485  1  0.50981200  0.53938100  0.67950600  1
  C  486  1  0.46584900  0.53527200  0.67280200  1
  C  487  1  0.44852400  0.49873900  0.66872500  1
  C  488  1  0.47479200  0.46683400  0.67230100  1
  C  489  1  0.51841000  0.47166700  0.67754400  1
  C  490  1  0.53555800  0.50739300  0.68112000  1
  C  491  1  0.40457600  0.49619400  0.66201000  1
  C  493  1  0.39723200  0.56141200  0.66562700  1
  C  504  1  0.50983700  0.46511500  0.06918000  1
  C  505  1  0.46588600  0.46923300  0.07589700  1
  C  506  1  0.44857500  0.50576800  0.07996700  1
  C  507  1  0.47482400  0.53768100  0.07639000  1
  C  508  1  0.51845100  0.53283200  0.07110200  1
  C  509  1  0.53557600  0.49710100  0.06746500  1
  C  510  1  0.40463300  0.50832700  0.08667800  1
  C  512  1  0.39727300  0.44310600  0.08313200  1
  C  523  1  0.50977800  0.19701200  0.41154800  1
  C  524  1  0.46585200  0.20386600  0.40742100  1
  C  525  1  0.44856900  0.20801200  0.37088000  1
  C  526  1  0.47481500  0.20438100  0.33897000  1
  C  527  1  0.51841000  0.19893100  0.34384000  1
  C  528  1  0.53552600  0.19530500  0.37957100  1
  C  529  1  0.40465500  0.21487100  0.36830800  1
  C  531  1  0.39724500  0.21126400  0.43352000  1
  C  542  1  0.50981500  0.80767000  0.33712300  1
  C  543  1  0.46590500  0.80080000  0.34138500  1
  C  544  1  0.44876100  0.79669300  0.37798000  1
  C  545  1  0.47516100  0.80035800  0.40977500  1
  C  546  1  0.51874700  0.80571600  0.40482400  1
  C  547  1  0.53568700  0.80942000  0.36902900  1
  C  548  1  0.40485400  0.78987900  0.38070300  1
  C  550  1  0.39719500  0.79336600  0.31550700  1
  C  561  1  0.72478700  0.26969300  0.14078500  1
  C  562  1  0.72897600  0.23659100  0.16224300  1
  C  563  1  0.75953000  0.20906900  0.15182700  1
  C  564  1  0.78685300  0.21491900  0.12083300  1
  C  565  1  0.78252900  0.24810600  0.10032700  1
  C  566  1  0.75272400  0.27510400  0.11057700  1
  C  567  1  0.76212500  0.17690000  0.17464800  1
  C  569  1  0.70834500  0.19931000  0.21404000  1
  C  580  1  0.72489800  0.73473000  0.60784900  1
  C  581  1  0.72884700  0.76787400  0.58640800  1
  C  582  1  0.75934100  0.79547500  0.59677900  1
  C  583  1  0.78669900  0.78967900  0.62776900  1
  C  584  1  0.78256700  0.75648300  0.64827500  1
  C  585  1  0.75282500  0.72941300  0.63807200  1
  C  586  1  0.76179700  0.82763900  0.57393600  1
  C  588  1  0.70801100  0.80509900  0.53463100  1
  C  599  1  0.72467700  0.73575400  0.14162300  1
  C  600  1  0.72878100  0.71429100  0.10852600  1
  C  601  1  0.75934100  0.72469200  0.08100300  1
  C  602  1  0.78668900  0.75567600  0.08684700  1
  C  603  1  0.78238100  0.77620100  0.12002700  1
  C  604  1  0.75257600  0.76597900  0.14704000  1
  C  605  1  0.76190100  0.70187100  0.04883300  1
  C  607  1  0.70809900  0.66250600  0.07126100  1
  C  618  1  0.72469000  0.26871500  0.60687800  1
  C  619  1  0.72892200  0.29022200  0.63994600  1
  C  620  1  0.75947600  0.27982100  0.66747600  1
  C  621  1  0.78675200  0.24878700  0.66166700  1
  C  622  1  0.78239400  0.22823500  0.62851200  1
  C  623  1  0.75258600  0.23847000  0.60150900  1
  C  624  1  0.76211900  0.30268900  0.69960600  1
  C  626  1  0.70838600  0.34210400  0.67715400  1
  C  637  1  0.28430800  0.73245700  0.14364800  1
  C  638  1  0.28002300  0.76600400  0.16438600  1
  C  639  1  0.24945000  0.79323200  0.15326500  1
  C  640  1  0.22233300  0.78667400  0.12225300  1
  C  641  1  0.22670300  0.75301000  0.10255800  1
  C  642  1  0.25651400  0.72628900  0.11349800  1
  C  643  1  0.24669200  0.82587700  0.17538500  1
  C  645  1  0.30033200  0.80442000  0.21545200  1
  C  656  1  0.28446600  0.27219400  0.60478000  1
  C  657  1  0.28007300  0.23865600  0.58407000  1
  C  658  1  0.24947500  0.21149000  0.59526600  1
  C  659  1  0.22238200  0.21810500  0.62627400  1
  C  660  1  0.22687300  0.25179500  0.64593200  1
  C  661  1  0.25670600  0.27847500  0.63493100  1
  C  662  1  0.24667000  0.17879700  0.57323000  1
  C  664  1  0.30027000  0.20014300  0.53305700  1
  C  675  1  0.28451400  0.27185900  0.14432800  1
  C  676  1  0.28014800  0.29244500  0.11070300  1
  C  677  1  0.24957200  0.28115700  0.08355300  1
  C  678  1  0.22250300  0.25014700  0.09024200  1
  C  679  1  0.22703700  0.23055700  0.12396400  1
  C  680  1  0.25682600  0.24166900  0.15063500  1
  C  681  1  0.24676100  0.30310400  0.05080100  1
  C  683  1  0.30035500  0.34334200  0.07203200  1
  C  694  1  0.28445600  0.73290200  0.60433400  1
  C  695  1  0.28008300  0.71221600  0.63790300  1
  C  696  1  0.24949700  0.72342000  0.66507800  1
  C  697  1  0.22244400  0.75444000  0.65843000  1
  C  698  1  0.22688300  0.77410100  0.62474700  1
  C  699  1  0.25673400  0.76308800  0.59808700  1
  C  700  1  0.24667200  0.70138700  0.69777000  1
  C  702  1  0.30025500  0.66119600  0.67642800  1
  N  416  1  0.88343800  0.03610800  0.15731700  1
  N  421  1  0.94545000  0.06939700  0.16905000  1
  N  424  1  0.03518400  0.06957400  0.18627500  1
  N  426  1  0.95146200  0.93566100  0.17561200  1
  N  435  1  0.88354200  0.96876800  0.59171800  1
  N  440  1  0.94538700  0.93532400  0.57974500  1
  N  443  1  0.03505200  0.93491500  0.56219500  1
  N  445  1  0.95172000  0.06897100  0.57285600  1
  N  454  1  0.88356700  0.71958300  0.90805800  1
  N  459  1  0.94549700  0.70769100  0.94140900  1
  N  462  1  0.03521200  0.69031800  0.94166900  1
  N  464  1  0.95163800  0.70101900  0.80769200  1
  N  473  1  0.88347200  0.28505200  0.84111400  1
  N  478  1  0.94526400  0.29679100  0.80750500  1
  N  481  1  0.03491400  0.31437800  0.80690300  1
  N  483  1  0.95204100  0.30397800  0.94115000  1
  N  492  1  0.38059500  0.52724500  0.66042400  1
  N  497  1  0.43909600  0.56522100  0.67206900  1
  N  500  1  0.52809700  0.57214100  0.69025400  1
  N  502  1  0.45804800  0.43272500  0.68020300  1
  N  511  1  0.38064500  0.47728200  0.08830800  1
  N  516  1  0.43913300  0.43928600  0.07667200  1
  N  519  1  0.52809700  0.43236600  0.05836800  1
  N  521  1  0.45813600  0.57180400  0.06846200  1
  N  530  1  0.38065500  0.21652700  0.39934200  1
  N  535  1  0.43907700  0.20468300  0.43735300  1
  N  538  1  0.52801200  0.18625200  0.44432800  1
  N  540  1  0.45810800  0.19649800  0.30484100  1
  N  549  1  0.38073300  0.78816800  0.34974300  1
  N  554  1  0.43901100  0.79994000  0.31153800  1
  N  557  1  0.52791700  0.81845100  0.30429200  1
  N  559  1  0.45860200  0.80841500  0.44392200  1
  N  568  1  0.73686200  0.17309200  0.20468900  1
  N  573  1  0.70485900  0.23067700  0.19332500  1
  N  576  1  0.70343800  0.30065500  0.15304800  1
  N  578  1  0.80842200  0.18601500  0.10476700  1
  N  587  1  0.73647100  0.83137800  0.54392800  1
  N  592  1  0.70467000  0.77372200  0.55534800  1
  N  595  1  0.70341300  0.70379100  0.59567800  1
  N  597  1  0.80835300  0.81866300  0.64362900  1
  N  606  1  0.73663200  0.67183000  0.04504500  1
  N  611  1  0.70463500  0.68322600  0.10262500  1
  N  614  1  0.70330600  0.72348400  0.17258000  1
  N  616  1  0.80828100  0.77171300  0.05793400  1
  N  625  1  0.73690300  0.33276700  0.70337600  1
  N  630  1  0.70485600  0.32134200  0.64582200  1
  N  633  1  0.70329700  0.28090600  0.57590700  1
  N  635  1  0.80834000  0.23276000  0.69058400  1
  N  644  1  0.27179400  0.83037100  0.20543800  1
  N  649  1  0.30398600  0.77262600  0.19542600  1
  N  652  1  0.30637000  0.70205200  0.15630400  1
  N  654  1  0.20114500  0.81535500  0.10537500  1
  N  663  1  0.27171200  0.17423500  0.54314500  1
  N  668  1  0.30400300  0.23196500  0.55303100  1
  N  671  1  0.30641400  0.30260300  0.59199500  1
  N  673  1  0.20128300  0.18950300  0.64335500  1
  N  682  1  0.27181000  0.33316700  0.04614500  1
  N  687  1  0.30406700  0.32347600  0.10392300  1
  N  690  1  0.30649400  0.28478500  0.17465200  1
  N  692  1  0.20145100  0.23294500  0.06168800  1
  N  701  1  0.27170000  0.67129300  0.70233400  1
  N  706  1  0.30399500  0.68116400  0.64460400  1
  N  709  1  0.30649400  0.72011200  0.57398000  1
  N  711  1  0.20131800  0.77153000  0.68702700  1
  O  48  1  0.93877300  0.30642600  0.00360600  1
  O  49  1  0.06187600  0.12895100  0.18692200  1
  O  50  1  0.85615600  0.14851900  0.07666900  1
  O  51  1  0.15488000  0.20259800  0.02485600  1
  O  99  1  0.93821900  0.69858200  0.74528300  1
  O  100  1  0.06159600  0.87549000  0.56155000  1
  O  101  1  0.85608600  0.85614400  0.67176000  1
  O  102  1  0.15471600  0.80176600  0.72391100  1
  O  150  1  0.93804600  0.87324100  0.17805000  1
  O  151  1  0.06188400  0.68971700  0.00105600  1
  O  152  1  0.85602000  0.79977600  0.02041800  1
  O  153  1  0.15455000  0.85216200  0.07500700  1
  O  201  1  0.93832000  0.13141000  0.57045700  1
  O  202  1  0.06131600  0.31512600  0.74743600  1
  O  203  1  0.85610200  0.20471900  0.72810300  1
  O  204  1  0.15473800  0.15271400  0.67378700  1
  O  252  1  0.45059400  0.81196300  0.50675100  1
  O  253  1  0.54978300  0.63283200  0.69147900  1
  O  254  1  0.35519900  0.69754400  0.53360100  1
  O  255  1  0.65574300  0.66205000  0.57392200  1
  O  303  1  0.45007700  0.19300000  0.24200000  1
  O  304  1  0.54976400  0.37166700  0.05713600  1
  O  305  1  0.35517400  0.30744700  0.21499200  1
  O  306  1  0.65587500  0.34232100  0.17515500  1
  O  354  1  0.44986600  0.36988600  0.68364700  1
  O  355  1  0.54968500  0.18507300  0.50503100  1
  O  356  1  0.35507000  0.34295000  0.56929000  1
  O  357  1  0.65569600  0.30292900  0.53424300  1
  O  405  1  0.45014900  0.63464400  0.06481600  1
  O  406  1  0.54942100  0.81969800  0.24355400  1
  O  407  1  0.35508300  0.66159900  0.17872000  1
  O  408  1  0.65571500  0.70145300  0.21425100  1
  O  420  1  0.88101600  0.97257700  0.15177100  1
  O  439  1  0.88133700  0.03231600  0.59718800  1
  O  458  1  0.88124300  0.72514500  0.84452300  1
  O  477  1  0.88143800  0.27974900  0.90468600  1
  O  496  1  0.38440900  0.46369900  0.65541800  1
  O  515  1  0.38448400  0.54083100  0.09326900  1
  O  534  1  0.38454700  0.22152100  0.33579600  1
  O  553  1  0.38489000  0.78325700  0.41329000  1
  O  572  1  0.79079000  0.14950800  0.16964500  1
  O  591  1  0.79039300  0.85510300  0.57886100  1
  O  610  1  0.79061600  0.70680400  0.02147000  1
  O  629  1  0.79079300  0.29770300  0.72699400  1
  O  648  1  0.21798000  0.85309200  0.16969500  1
  O  667  1  0.21788800  0.15165300  0.57897700  1
  O  686  1  0.21803300  0.29722500  0.02364000  1
  O  705  1  0.21788700  0.70714600  0.72490900  1
