# generated using pymatgen
data_ZnNiH8C15N7O
_symmetry_space_group_name_H-M   'P 1'
_cell_length_a   7.37858000
_cell_length_b   12.56706000
_cell_length_c   13.44514000
_cell_angle_alpha   90.51201000
_cell_angle_beta   91.98982000
_cell_angle_gamma   90.61970000
_symmetry_Int_Tables_number   1
_chemical_formula_structural   ZnNiH8C15N7O
_chemical_formula_sum   'Zn2 Ni2 H16 C30 N14 O2'
_cell_volume   1245.84954399
_cell_formula_units_Z   2
loop_
 _symmetry_equiv_pos_site_id
 _symmetry_equiv_pos_as_xyz
  1  'x, y, z'
loop_
 _atom_site_type_symbol
 _atom_site_label
 _atom_site_symmetry_multiplicity
 _atom_site_fract_x
 _atom_site_fract_y
 _atom_site_fract_z
 _atom_site_occupancy
  Zn  Zn0  1  0.49443000  0.74929000  0.91280000  1
  Zn  Zn1  1  0.51502000  0.25108000  0.09213000  1
  Ni  Ni2  1  0.00369000  0.99897000  0.00322000  1
  Ni  Ni3  1  0.98440000  0.48037000  0.97023000  1
  H  H4  1  0.52587000  0.59215000  0.08427000  1
  H  H5  1  0.56971000  0.58974000  0.27025000  1
  H  H6  1  0.44260000  0.54387000  0.57134000  1
  H  H7  1  0.38695000  0.57593000  0.75219000  1
  H  H8  1  0.48291000  0.07615000  0.92920000  1
  H  H9  1  0.39054000  0.06566000  0.74838000  1
  H  H10  1  0.45275000  0.11512000  0.45628000  1
  H  H11  1  0.48553000  0.10415000  0.27164000  1
  H  H12  1  0.56985000  0.40194000  0.91417000  1
  H  H13  1  0.51196000  0.40155000  0.72973000  1
  H  H14  1  0.48122000  0.45933000  0.42867000  1
  H  H15  1  0.51263000  0.43007000  0.24471000  1
  H  H16  1  0.55186000  0.92173000  0.08018000  1
  H  H17  1  0.61366000  0.93199000  0.26420000  1
  H  H18  1  0.56389000  0.88220000  0.54983000  1
  H  H19  1  0.50728000  0.89634000  0.73160000  1
  C  C20  1  0.82417000  0.91791000  0.93867000  1
  C  C21  1  0.18415000  0.92312000  0.94527000  1
  C  C22  1  0.54172000  0.66560000  0.12734000  1
  C  C23  1  0.56594000  0.66452000  0.23059000  1
  C  C24  1  0.45726000  0.62325000  0.60379000  1
  C  C25  1  0.42696000  0.64039000  0.70375000  1
  C  C26  1  0.17376000  0.38915000  0.01479000  1
  C  C27  1  0.82263000  0.43803000  0.07140000  1
  C  C28  1  0.48486000  0.14654000  0.88282000  1
  C  C29  1  0.43700000  0.14050000  0.78201000  1
  C  C30  1  0.46674000  0.18692000  0.41277000  1
  C  C31  1  0.48500000  0.18034000  0.31081000  1
  C  C32  1  0.18996000  0.07581000  0.06483000  1
  C  C33  1  0.83158000  0.08053000  0.06390000  1
  C  C34  1  0.53737000  0.32838000  0.87385000  1
  C  C35  1  0.50156000  0.32819000  0.77141000  1
  C  C36  1  0.48080000  0.37949000  0.39677000  1
  C  C37  1  0.49854000  0.36404000  0.29553000  1
  C  C38  1  0.79402000  0.55946000  0.90642000  1
  C  C39  1  0.15366000  0.59650000  0.97187000  1
  C  C40  1  0.55855000  0.84998000  0.12476000  1
  C  C41  1  0.59003000  0.85551000  0.22730000  1
  C  C42  1  0.52402000  0.81250000  0.59118000  1
  C  C43  1  0.49284000  0.82065000  0.69193000  1
  C  C44  1  0.59351000  0.76103000  0.28195000  1
  C  C45  1  0.63892000  0.76651000  0.39129000  1
  C  C46  1  0.51406000  0.71003000  0.54423000  1
  C  C47  1  0.44369000  0.23299000  0.72481000  1
  C  C48  1  0.37773000  0.22675000  0.61856000  1
  C  C49  1  0.46028000  0.28952000  0.45909000  1
  N  N50  1  0.30849000  0.87858000  0.91306000  1
  N  N51  1  0.70960000  0.86400000  0.90118000  1
  N  N52  1  0.70523000  0.38494000  0.10256000  1
  N  N53  1  0.29747000  0.35343000  0.06016000  1
  N  N54  1  0.72299000  0.13477000  0.10030000  1
  N  N55  1  0.31651000  0.12315000  0.09788000  1
  N  N56  1  0.27355000  0.64738000  0.94100000  1
  N  N57  1  0.67421000  0.61939000  0.89346000  1
  N  N58  1  0.53735000  0.75663000  0.07535000  1
  N  N59  1  0.55583000  0.68930000  0.44834000  1
  N  N60  1  0.44967000  0.73650000  0.74840000  1
  N  N61  1  0.52862000  0.23949000  0.92874000  1
  N  N62  1  0.43653000  0.30760000  0.55753000  1
  N  N63  1  0.49937000  0.26678000  0.25266000  1
  O  O64  1  0.75407000  0.83101000  0.42491000  1
  O  O65  1  0.26437000  0.15839000  0.59018000  1
