# generated using pymatgen
data_CoH18C18SN3O4
_symmetry_space_group_name_H-M   'P 1'
_cell_length_a   13.71665000
_cell_length_b   14.99501000
_cell_length_c   15.00738000
_cell_angle_alpha   84.61565000
_cell_angle_beta   74.69110000
_cell_angle_gamma   74.66782000
_symmetry_Int_Tables_number   1
_chemical_formula_structural   CoH18C18SN3O4
_chemical_formula_sum   'Co4 H72 C72 S4 N12 O16'
_cell_volume   2870.28948897
_cell_formula_units_Z   4
loop_
 _symmetry_equiv_pos_site_id
 _symmetry_equiv_pos_as_xyz
  1  'x, y, z'
loop_
 _atom_site_type_symbol
 _atom_site_label
 _atom_site_symmetry_multiplicity
 _atom_site_fract_x
 _atom_site_fract_y
 _atom_site_fract_z
 _atom_site_occupancy
  Co  Co1  1  0.50023000  0.00000000  0.50001000  1.0
  Co  Co2  1  0.99925000  0.50024000  0.00031000  1.0
  Co  Co3  1  0.24985000  0.19882000  0.80123000  1.0
  Co  Co4  1  0.75014000  0.80109000  0.19894000  1.0
  H  H1  1  0.16121000  0.39980000  0.79999000  1.0
  H  H2  1  0.22318000  0.54371000  0.76115000  1.0
  H  H3  1  0.70517000  0.00999000  0.36307000  1.0
  H  H4  1  0.50703000  0.70113000  0.71788000  1.0
  H  H5  1  0.63577000  0.96492000  0.64864000  1.0
  H  H6  1  0.46892000  0.83849000  0.41567000  1.0
  H  H7  1  0.52990000  0.85723000  0.66836000  1.0
  H  H8  1  0.52543000  0.52729000  0.58197000  1.0
  H  H9  1  0.39300000  0.57223000  0.58550000  1.0
  H  H10  1  0.89133000  0.99173000  0.35484000  1.0
  H  H11  1  0.53734000  0.37385000  0.72972000  1.0
  H  H12  1  0.44435000  0.67892000  0.45460000  1.0
  H  H13  1  0.46134000  0.23515000  0.76488000  1.0
  H  H14  1  0.49418000  0.54907000  0.74870000  1.0
  H  H15  1  0.36568000  0.61569000  0.75536000  1.0
  H  H16  1  0.82090000  0.94489000  0.65073000  1.0
  H  H17  1  0.00697000  0.90976000  0.55832000  1.0
  H  H18  1  0.03604000  0.91707000  0.43618000  1.0
  H  H19  1  0.33861000  0.20014000  0.60063000  1.0
  H  H20  1  0.27671000  0.23910000  0.45675000  1.0
  H  H21  1  0.79430000  0.63740000  0.99088000  1.0
  H  H22  1  0.99290000  0.28169000  0.29918000  1.0
  H  H23  1  0.86412000  0.35143000  0.03565000  1.0
  H  H24  1  0.03129000  0.58409000  0.16174000  1.0
  H  H25  1  0.97028000  0.33112000  0.14306000  1.0
  H  H26  1  0.97433000  0.41807000  0.47265000  1.0
  H  H27  1  0.10683000  0.41459000  0.42786000  1.0
  H  H28  1  0.60840000  0.64555000  0.00848000  1.0
  H  H29  1  0.96257000  0.27037000  0.62596000  1.0
  H  H30  1  0.05576000  0.54510000  0.32126000  1.0
  H  H31  1  0.03839000  0.23521000  0.76474000  1.0
  H  H32  1  0.00588000  0.25105000  0.45114000  1.0
  H  H33  1  0.13443000  0.24444000  0.38464000  1.0
  H  H34  1  0.67911000  0.34925000  0.05514000  1.0
  H  H35  1  0.49306000  0.44169000  0.09000000  1.0
  H  H36  1  0.46379000  0.56400000  0.08279000  1.0
  H  H37  1  0.83877000  0.60011000  0.20083000  1.0
  H  H38  1  0.77658000  0.45627000  0.23914000  1.0
  H  H39  1  0.29513000  0.99010000  0.63701000  1.0
  H  H40  1  0.49279000  0.29903000  0.28225000  1.0
  H  H41  1  0.36452000  0.03528000  0.35153000  1.0
  H  H42  1  0.53108000  0.16176000  0.58444000  1.0
  H  H43  1  0.47015000  0.14285000  0.33181000  1.0
  H  H44  1  0.47469000  0.47291000  0.41791000  1.0
  H  H45  1  0.60710000  0.42788000  0.41438000  1.0
  H  H46  1  0.10906000  0.00818000  0.64518000  1.0
  H  H47  1  0.46264000  0.62616000  0.27034000  1.0
  H  H48  1  0.55559000  0.32133000  0.54544000  1.0
  H  H49  1  0.53861000  0.76494000  0.23548000  1.0
  H  H50  1  0.50591000  0.45082000  0.25114000  1.0
  H  H51  1  0.63447000  0.38436000  0.24461000  1.0
  H  H52  1  0.17948000  0.05518000  0.34931000  1.0
  H  H53  1  0.99339000  0.09010000  0.44167000  1.0
  H  H54  1  0.96426000  0.08283000  0.56377000  1.0
  H  H55  1  0.66115000  0.79973000  0.40058000  1.0
  H  H56  1  0.72314000  0.76119000  0.54443000  1.0
  H  H57  1  0.20473000  0.36323000  0.00992000  1.0
  H  H58  1  0.00638000  0.71851000  0.70196000  1.0
  H  H59  1  0.13530000  0.64908000  0.96478000  1.0
  H  H60  1  0.96895000  0.41592000  0.83932000  1.0
  H  H61  1  0.02813000  0.66954000  0.85830000  1.0
  H  H62  1  0.02586000  0.58200000  0.52816000  1.0
  H  H63  1  0.89343000  0.58535000  0.57291000  1.0
  H  H64  1  0.39090000  0.35493000  0.99165000  1.0
  H  H65  1  0.03715000  0.72995000  0.37502000  1.0
  H  H66  1  0.94537000  0.45431000  0.67953000  1.0
  H  H67  1  0.96120000  0.76483000  0.23635000  1.0
  H  H68  1  0.99431000  0.74896000  0.54958000  1.0
  H  H69  1  0.86584000  0.75559000  0.61645000  1.0
  H  H70  1  0.32043000  0.65116000  0.94480000  1.0
  H  H71  1  0.50650000  0.55863000  0.90991000  1.0
  H  H72  1  0.53570000  0.43636000  0.91713000  1.0
  C  C1  1  0.24393000  0.39724000  0.78062000  1.0
  C  C2  1  0.27956000  0.47706000  0.75979000  1.0
  C  C3  1  0.47301000  0.67503000  0.59052000  1.0
  C  C4  1  0.73298000  0.99520000  0.42587000  1.0
  C  C5  1  0.38648000  0.47125000  0.74128000  1.0
  C  C6  1  0.49847000  0.72722000  0.64952000  1.0
  C  C7  1  0.69490000  0.96931000  0.58446000  1.0
  C  C8  1  0.47620000  0.80485000  0.48195000  1.0
  C  C9  1  0.51153000  0.81582000  0.62204000  1.0
  C  C10  1  0.45526000  0.57955000  0.61567000  1.0
  C  C11  1  0.83786000  0.98518000  0.42176000  1.0
  C  C12  1  0.87352000  0.96511000  0.50235000  1.0
  C  C13  1  0.45343000  0.38272000  0.74273000  1.0
  C  C14  1  0.46297000  0.71607000  0.50433000  1.0
  C  C15  1  0.41280000  0.30533000  0.76274000  1.0
  C  C16  1  0.42624000  0.55723000  0.72025000  1.0
  C  C17  1  0.79889000  0.95887000  0.58517000  1.0
  C  C18  1  0.98691000  0.95299000  0.49930000  1.0
  C  C19  1  0.25590000  0.21958000  0.60305000  1.0
  C  C20  1  0.22033000  0.24038000  0.52327000  1.0
  C  C21  1  0.02696000  0.40922000  0.32511000  1.0
  C  C22  1  0.76666000  0.57446000  0.00539000  1.0
  C  C23  1  0.11345000  0.25878000  0.52891000  1.0
  C  C24  1  0.00158000  0.35006000  0.27303000  1.0
  C  C25  1  0.80493000  0.41567000  0.03119000  1.0
  C  C26  1  0.02394000  0.51776000  0.19534000  1.0
  C  C27  1  0.98860000  0.37751000  0.18446000  1.0
  C  C28  1  0.04462000  0.38429000  0.42056000  1.0
  C  C29  1  0.66187000  0.57854000  0.01512000  1.0
  C  C30  1  0.62633000  0.49783000  0.03503000  1.0
  C  C31  1  0.04645000  0.25736000  0.61728000  1.0
  C  C32  1  0.03711000  0.49542000  0.28406000  1.0
  C  C33  1  0.08699000  0.23740000  0.69468000  1.0
  C  C34  1  0.07376000  0.27963000  0.44295000  1.0
  C  C35  1  0.70100000  0.41492000  0.04134000  1.0
  C  C36  1  0.51300000  0.50084000  0.04692000  1.0
  C  C37  1  0.75601000  0.60278000  0.22000000  1.0
  C  C38  1  0.72033000  0.52299000  0.24056000  1.0
  C  C39  1  0.52687000  0.32514000  0.40956000  1.0
  C  C40  1  0.26733000  0.00487000  0.57421000  1.0
  C  C41  1  0.61344000  0.52881000  0.25878000  1.0
  C  C42  1  0.50140000  0.27295000  0.35059000  1.0
  C  C43  1  0.30540000  0.03087000  0.41566000  1.0
  C  C44  1  0.52384000  0.19535000  0.51815000  1.0
  C  C45  1  0.48851000  0.18431000  0.37808000  1.0
  C  C46  1  0.54477000  0.42054000  0.38428000  1.0
  C  C47  1  0.16249000  0.01484000  0.57827000  1.0
  C  C48  1  0.12684000  0.03490000  0.49769000  1.0
  C  C49  1  0.54651000  0.61736000  0.25746000  1.0
  C  C50  1  0.53697000  0.28414000  0.49575000  1.0
  C  C51  1  0.58717000  0.69476000  0.23766000  1.0
  C  C52  1  0.57378000  0.44277000  0.27967000  1.0
  C  C53  1  0.20145000  0.04122000  0.41488000  1.0
  C  C54  1  0.01350000  0.04692000  0.50069000  1.0
  C  C55  1  0.74388000  0.78040000  0.39801000  1.0
  C  C56  1  0.77949000  0.75973000  0.47783000  1.0
  C  C57  1  0.97319000  0.59064000  0.67577000  1.0
  C  C58  1  0.23253000  0.42610000  0.99520000  1.0
  C  C59  1  0.88639000  0.74130000  0.47218000  1.0
  C  C60  1  0.99796000  0.65006000  0.72801000  1.0
  C  C61  1  0.19444000  0.58485000  0.96927000  1.0
  C  C62  1  0.97607000  0.48227000  0.80567000  1.0
  C  C63  1  0.01048000  0.62288000  0.81674000  1.0
  C  C64  1  0.95558000  0.61566000  0.58032000  1.0
  C  C65  1  0.33742000  0.42194000  0.98509000  1.0
  C  C66  1  0.37308000  0.50259000  0.96500000  1.0
  C  C67  1  0.95327000  0.74277000  0.38375000  1.0
  C  C68  1  0.96339000  0.50434000  0.71678000  1.0
  C  C69  1  0.91262000  0.76264000  0.30639000  1.0
  C  C70  1  0.92635000  0.72039000  0.55803000  1.0
  C  C71  1  0.29844000  0.58554000  0.95880000  1.0
  C  C72  1  0.48645000  0.49951000  0.95300000  1.0
  S  S1  1  0.42002000  0.02080000  0.73575000  1.0
  S  S2  1  0.07978000  0.26429000  0.97934000  1.0
  S  S3  1  0.58043000  0.97919000  0.26428000  1.0
  S  S4  1  0.91882000  0.73587000  0.02167000  1.0
  N  N1  1  0.50032000  0.85529000  0.53959000  1.0
  N  N2  1  0.66187000  0.98586000  0.50582000  1.0
  N  N3  1  0.30898000  0.31221000  0.78199000  1.0
  N  N4  1  0.99977000  0.46004000  0.14501000  1.0
  N  N5  1  0.83779000  0.49445000  0.01487000  1.0
  N  N6  1  0.19077000  0.21818000  0.68795000  1.0
  N  N7  1  0.49976000  0.14487000  0.46052000  1.0
  N  N8  1  0.33841000  0.01435000  0.49431000  1.0
  N  N9  1  0.69100000  0.68783000  0.21854000  1.0
  N  N10  1  0.99949000  0.54030000  0.85618000  1.0
  N  N11  1  0.16143000  0.50614000  0.98582000  1.0
  N  N12  1  0.80885000  0.78174000  0.31301000  1.0
  O  O1  1  0.38420000  0.11492000  0.78578000  1.0
  O  O2  1  0.44260000  0.04942000  0.63243000  1.0
  O  O3  1  0.33456000  0.97371000  0.75917000  1.0
  O  O4  1  0.51711000  0.96813000  0.75983000  1.0
  O  O5  1  0.11551000  0.21418000  0.88533000  1.0
  O  O6  1  0.05726000  0.36774000  0.95077000  1.0
  O  O7  1  0.16541000  0.24086000  0.02625000  1.0
  O  O8  1  0.98279000  0.24010000  0.03197000  1.0
  O  O9  1  0.61631000  0.88513000  0.21417000  1.0
  O  O10  1  0.55769000  0.95072000  0.36764000  1.0
  O  O11  1  0.66599000  0.02613000  0.24091000  1.0
  O  O12  1  0.48335000  0.03172000  0.24017000  1.0
  O  O13  1  0.88492000  0.78547000  0.11578000  1.0
  O  O14  1  0.94240000  0.63231000  0.04928000  1.0
  O  O15  1  0.83126000  0.75961000  0.97714000  1.0
  O  O16  1  0.01507000  0.76019000  0.96740000  1.0
