# generated using pymatgen
data_CdH7C9(NO)3
_symmetry_space_group_name_H-M   'P 1'
_cell_length_a   4.73769000
_cell_length_b   21.67476000
_cell_length_c   21.70394000
_cell_angle_alpha   90.03129000
_cell_angle_beta   89.74341000
_cell_angle_gamma   90.38944000
_symmetry_Int_Tables_number   1
_chemical_formula_structural   CdH7C9(NO)3
_chemical_formula_sum   'Cd8 H56 C72 N24 O24'
_cell_volume   2228.66643720
_cell_formula_units_Z   8
loop_
 _symmetry_equiv_pos_site_id
 _symmetry_equiv_pos_as_xyz
  1  'x, y, z'
loop_
 _atom_site_type_symbol
 _atom_site_label
 _atom_site_symmetry_multiplicity
 _atom_site_fract_x
 _atom_site_fract_y
 _atom_site_fract_z
 _atom_site_occupancy
  Cd  Cd1  1  0.04549000  0.24193000  0.66862000  1.0
  Cd  Cd2  1  0.03773000  0.25703000  0.83209000  1.0
  Cd  Cd3  1  0.53439000  0.16766000  0.75758000  1.0
  Cd  Cd4  1  0.54585000  0.33080000  0.74318000  1.0
  Cd  Cd5  1  0.95449000  0.75807000  0.33138000  1.0
  Cd  Cd6  1  0.96225000  0.74297000  0.16791000  1.0
  Cd  Cd7  1  0.46559000  0.83234000  0.24242000  1.0
  Cd  Cd8  1  0.45413000  0.66920000  0.25683000  1.0
  H  H1  1  0.51710000  0.22832000  0.64180000  1.0
  H  H2  1  0.85094000  0.06635000  0.51155000  1.0
  H  H3  1  0.97785000  0.00441000  0.42058000  1.0
  H  H4  1  0.72807000  0.11257000  0.39388000  1.0
  H  H5  1  0.60759000  0.17349000  0.48796000  1.0
  H  H6  1  0.17312000  0.92974000  0.36956000  1.0
  H  H7  1  0.88723000  0.96102000  0.25810000  1.0
  H  H8  1  0.50879000  0.27019000  0.86141000  1.0
  H  H9  1  0.86588000  0.43249000  0.98807000  1.0
  H  H10  1  0.98326000  0.49576000  0.07907000  1.0
  H  H11  1  0.73078000  0.39056000  0.10972000  1.0
  H  H12  1  0.62033000  0.32825000  0.01570000  1.0
  H  H13  1  0.18118000  0.57327000  0.12919000  1.0
  H  H14  1  0.89163000  0.54308000  0.24126000  1.0
  H  H15  1  0.00379000  0.14040000  0.77105000  1.0
  H  H16  1  0.36210000  0.01151000  0.93206000  1.0
  H  H17  1  0.47879000  0.92168000  0.99610000  1.0
  H  H18  1  0.23161000  0.89095000  0.89092000  1.0
  H  H19  1  0.12338000  0.98407000  0.82803000  1.0
  H  H20  1  0.67065000  0.86987000  0.07364000  1.0
  H  H21  1  0.38070000  0.75835000  0.04167000  1.0
  H  H22  1  0.01844000  0.35825000  0.72789000  1.0
  H  H23  1  0.36273000  0.48806000  0.56632000  1.0
  H  H24  1  0.49095000  0.57879000  0.50384000  1.0
  H  H25  1  0.23966000  0.60717000  0.61057000  1.0
  H  H26  1  0.11576000  0.51323000  0.67219000  1.0
  H  H27  1  0.68552000  0.62859000  0.42860000  1.0
  H  H28  1  0.40143000  0.74097000  0.45694000  1.0
  H  H29  1  0.48288000  0.77168000  0.35821000  1.0
  H  H30  1  0.14905000  0.93365000  0.48845000  1.0
  H  H31  1  0.02213000  0.99559000  0.57943000  1.0
  H  H32  1  0.27191000  0.88742000  0.60612000  1.0
  H  H33  1  0.39240000  0.82650000  0.51204000  1.0
  H  H34  1  0.82686000  0.07026000  0.63044000  1.0
  H  H35  1  0.11276000  0.03898000  0.74191000  1.0
  H  H36  1  0.49120000  0.72981000  0.13860000  1.0
  H  H37  1  0.13411000  0.56751000  0.01193000  1.0
  H  H38  1  0.01671000  0.50424000  0.92094000  1.0
  H  H39  1  0.26921000  0.60944000  0.89028000  1.0
  H  H40  1  0.37966000  0.67175000  0.98430000  1.0
  H  H41  1  0.81880000  0.42672000  0.87081000  1.0
  H  H42  1  0.10835000  0.45691000  0.75875000  1.0
  H  H43  1  0.99619000  0.85959000  0.22896000  1.0
  H  H44  1  0.63788000  0.98848000  0.06794000  1.0
  H  H45  1  0.52118000  0.07832000  0.00390000  1.0
  H  H46  1  0.76837000  0.10905000  0.10908000  1.0
  H  H47  1  0.87660000  0.01593000  0.17198000  1.0
  H  H48  1  0.32934000  0.13013000  0.92637000  1.0
  H  H49  1  0.61929000  0.24165000  0.95833000  1.0
  H  H50  1  0.98155000  0.64175000  0.27211000  1.0
  H  H51  1  0.63725000  0.51194000  0.43369000  1.0
  H  H52  1  0.50903000  0.42121000  0.49616000  1.0
  H  H53  1  0.76032000  0.39283000  0.38944000  1.0
  H  H54  1  0.88421000  0.48677000  0.32782000  1.0
  H  H55  1  0.31446000  0.37141000  0.57140000  1.0
  H  H56  1  0.59855000  0.25903000  0.54306000  1.0
  C  C1  1  0.16723000  0.15932000  0.56433000  1.0
  C  C2  1  0.22013000  0.12546000  0.50540000  1.0
  C  C3  1  0.04013000  0.07765000  0.48574000  1.0
  C  C4  1  0.11959000  0.04033000  0.43635000  1.0
  C  C5  1  0.37225000  0.05069000  0.40564000  1.0
  C  C6  1  0.54395000  0.10138000  0.42128000  1.0
  C  C7  1  0.46487000  0.13770000  0.47160000  1.0
  C  C8  1  0.34380000  0.95234000  0.34488000  1.0
  C  C9  1  0.71954000  0.96779000  0.29160000  1.0
  C  C10  1  0.20165000  0.33788000  0.93783000  1.0
  C  C11  1  0.23847000  0.37524000  0.99543000  1.0
  C  C12  1  0.05537000  0.42255000  0.01382000  1.0
  C  C13  1  0.12839000  0.46066000  0.06333000  1.0
  C  C14  1  0.37814000  0.45172000  0.09505000  1.0
  C  C15  1  0.55102000  0.40117000  0.08112000  1.0
  C  C16  1  0.47771000  0.36423000  0.03092000  1.0
  C  C17  1  0.35193000  0.55146000  0.15393000  1.0
  C  C18  1  0.72347000  0.53652000  0.20796000  1.0
  C  C19  1  0.69838000  0.06242000  0.83800000  1.0
  C  C20  1  0.73642000  0.00439000  0.87459000  1.0
  C  C21  1  0.55236000  0.98603000  0.92218000  1.0
  C  C22  1  0.62509000  0.93709000  0.96072000  1.0
  C  C23  1  0.87513000  0.90557000  0.95182000  1.0
  C  C24  1  0.05036000  0.91936000  0.90119000  1.0
  C  C25  1  0.97751000  0.96923000  0.86389000  1.0
  C  C26  1  0.84294000  0.84594000  0.05123000  1.0
  C  C27  1  0.21516000  0.79216000  0.03558000  1.0
  C  C28  1  0.68706000  0.43636000  0.66090000  1.0
  C  C29  1  0.73202000  0.49463000  0.62475000  1.0
  C  C30  1  0.55236000  0.51379000  0.57719000  1.0
  C  C31  1  0.63252000  0.56318000  0.53953000  1.0
  C  C32  1  0.88520000  0.59421000  0.54915000  1.0
  C  C33  1  0.05569000  0.57947000  0.59979000  1.0
  C  C34  1  0.97515000  0.52928000  0.63634000  1.0
  C  C35  1  0.85819000  0.65345000  0.45012000  1.0
  C  C36  1  0.23228000  0.70768000  0.46425000  1.0
  C  C37  1  0.83275000  0.84068000  0.43567000  1.0
  C  C38  1  0.77986000  0.87454000  0.49460000  1.0
  C  C39  1  0.95986000  0.92235000  0.51426000  1.0
  C  C40  1  0.88039000  0.95967000  0.56366000  1.0
  C  C41  1  0.62774000  0.94931000  0.59437000  1.0
  C  C42  1  0.45604000  0.89862000  0.57873000  1.0
  C  C43  1  0.53511000  0.86230000  0.52840000  1.0
  C  C44  1  0.65618000  0.04766000  0.65512000  1.0
  C  C45  1  0.28044000  0.03221000  0.70840000  1.0
  C  C46  1  0.79833000  0.66211000  0.06217000  1.0
  C  C47  1  0.76151000  0.62476000  0.00457000  1.0
  C  C48  1  0.94462000  0.57745000  0.98618000  1.0
  C  C49  1  0.87159000  0.53934000  0.93667000  1.0
  C  C50  1  0.62184000  0.54828000  0.90496000  1.0
  C  C51  1  0.44896000  0.59883000  0.91888000  1.0
  C  C52  1  0.52228000  0.63577000  0.96908000  1.0
  C  C53  1  0.64805000  0.44853000  0.84607000  1.0
  C  C54  1  0.27651000  0.46348000  0.79204000  1.0
  C  C55  1  0.30160000  0.93758000  0.16201000  1.0
  C  C56  1  0.26356000  0.99560000  0.12542000  1.0
  C  C57  1  0.44762000  0.01396000  0.07783000  1.0
  C  C58  1  0.37489000  0.06291000  0.03928000  1.0
  C  C59  1  0.12485000  0.09443000  0.04818000  1.0
  C  C60  1  0.94962000  0.08064000  0.09882000  1.0
  C  C61  1  0.02247000  0.03077000  0.13612000  1.0
  C  C62  1  0.15704000  0.15406000  0.94877000  1.0
  C  C63  1  0.78482000  0.20784000  0.96442000  1.0
  C  C64  1  0.31294000  0.56364000  0.33911000  1.0
  C  C65  1  0.26795000  0.50537000  0.37525000  1.0
  C  C66  1  0.44761000  0.48620000  0.42282000  1.0
  C  C67  1  0.36746000  0.43682000  0.46047000  1.0
  C  C68  1  0.11478000  0.40579000  0.45085000  1.0
  C  C69  1  0.94429000  0.42053000  0.40021000  1.0
  C  C70  1  0.02483000  0.47072000  0.36366000  1.0
  C  C71  1  0.14179000  0.34654000  0.54988000  1.0
  C  C72  1  0.76771000  0.29232000  0.53576000  1.0
  N  N1  1  0.45767000  0.00875000  0.35896000  1.0
  N  N2  1  0.69765000  0.01891000  0.32538000  1.0
  N  N3  1  0.50822000  0.92581000  0.30218000  1.0
  N  N4  1  0.46087000  0.49447000  0.14134000  1.0
  N  N5  1  0.69800000  0.48471000  0.17532000  1.0
  N  N6  1  0.51630000  0.57853000  0.19621000  1.0
  N  N7  1  0.95529000  0.85926000  0.99447000  1.0
  N  N8  1  0.19270000  0.82542000  0.98434000  1.0
  N  N9  1  0.00651000  0.80343000  0.07769000  1.0
  N  N10  1  0.97073000  0.64062000  0.50663000  1.0
  N  N11  1  0.20988000  0.67468000  0.51592000  1.0
  N  N12  1  0.02221000  0.69596000  0.42277000  1.0
  N  N13  1  0.54231000  0.99125000  0.64105000  1.0
  N  N14  1  0.30234000  0.98109000  0.67462000  1.0
  N  N15  1  0.49176000  0.07419000  0.69782000  1.0
  N  N16  1  0.53910000  0.50552000  0.85867000  1.0
  N  N17  1  0.30198000  0.51529000  0.82469000  1.0
  N  N18  1  0.48368000  0.42147000  0.80380000  1.0
  N  N19  1  0.04469000  0.14074000  0.00553000  1.0
  N  N20  1  0.80728000  0.17458000  0.01566000  1.0
  N  N21  1  0.99347000  0.19657000  0.92231000  1.0
  N  N22  1  0.02925000  0.35938000  0.49337000  1.0
  N  N23  1  0.79010000  0.32532000  0.48408000  1.0
  N  N24  1  0.97777000  0.30404000  0.57723000  1.0
  O  O1  1  0.95375000  0.14650000  0.59721000  1.0
  O  O2  1  0.34809000  0.20121000  0.57871000  1.0
  O  O3  1  0.57418000  0.24149000  0.68346000  1.0
  O  O4  1  0.98993000  0.34694000  0.90269000  1.0
  O  O5  1  0.39359000  0.29894000  0.92681000  1.0
  O  O6  1  0.56444000  0.25651000  0.81909000  1.0
  O  O7  1  0.48448000  0.09675000  0.84697000  1.0
  O  O8  1  0.89364000  0.07435000  0.79941000  1.0
  O  O9  1  0.06219000  0.18256000  0.75714000  1.0
  O  O10  1  0.47386000  0.40177000  0.65038000  1.0
  O  O11  1  0.87479000  0.42439000  0.70069000  1.0
  O  O12  1  0.07179000  0.31670000  0.74290000  1.0
  O  O13  1  0.04622000  0.85350000  0.40280000  1.0
  O  O14  1  0.65189000  0.79879000  0.42130000  1.0
  O  O15  1  0.42581000  0.75851000  0.31654000  1.0
  O  O16  1  0.01004000  0.65306000  0.09732000  1.0
  O  O17  1  0.60638000  0.70105000  0.07319000  1.0
  O  O18  1  0.43553000  0.74349000  0.18092000  1.0
  O  O19  1  0.51550000  0.90324000  0.15303000  1.0
  O  O20  1  0.10635000  0.92565000  0.20060000  1.0
  O  O21  1  0.93780000  0.81744000  0.24287000  1.0
  O  O22  1  0.52614000  0.59823000  0.34962000  1.0
  O  O23  1  0.12521000  0.57562000  0.29932000  1.0
  O  O24  1  0.92819000  0.68330000  0.25710000  1.0
