# generated using pymatgen
data_H7C14(N2O)2
_symmetry_space_group_name_H-M   'P 1'
_cell_length_a   12.40650000
_cell_length_b   19.37667500
_cell_length_c   19.37670000
_cell_angle_alpha   59.99987196
_cell_angle_beta   89.99900000
_cell_angle_gamma   89.99800000
_symmetry_Int_Tables_number   1
_chemical_formula_structural   H7C14(N2O)2
_chemical_formula_sum   'H42 C84 N24 O12'
_cell_volume   4034.02347673
_cell_formula_units_Z   6
loop_
 _symmetry_equiv_pos_site_id
 _symmetry_equiv_pos_as_xyz
  1  'x, y, z'
loop_
 _atom_site_type_symbol
 _atom_site_label
 _atom_site_symmetry_multiplicity
 _atom_site_fract_x
 _atom_site_fract_y
 _atom_site_fract_z
 _atom_site_occupancy
  C  1  1  0.97862500  0.03890250  0.59565425  1
  C  2  1  0.03483900  0.09717800  0.60477625  1
  C  3  1  0.04678400  0.09305400  0.67897875  1
  C  4  1  0.99415900  0.03091700  0.74738150  1
  C  5  1  0.93939600  0.96867650  0.74124400  1
  C  6  1  0.93614800  0.97139050  0.66554475  1
  C  9  1  0.97853100  0.04723400  0.51804325  1
  C  10  1  0.93612400  0.11478100  0.44815350  1
  C  11  1  0.93936300  0.11751350  0.37244850  1
  C  12  1  0.99414300  0.05528550  0.36630825  1
  C  13  1  0.04691300  0.99320300  0.43466050  1
  C  14  1  0.03481500  0.98898900  0.50889575  1
  C  27  1  0.31190500  0.58189500  0.52215775  1
  C  28  1  0.36817300  0.59104900  0.45476075  1
  C  29  1  0.38000400  0.66525750  0.38467825  1
  C  30  1  0.32737400  0.73365100  0.37843275  1
  C  31  1  0.27268300  0.72748800  0.44684575  1
  C  32  1  0.26946100  0.65177650  0.51981800  1
  C  35  1  0.31207400  0.50427500  0.59143550  1
  C  36  1  0.26957900  0.43439300  0.59380225  1
  C  37  1  0.27279800  0.35868950  0.66678850  1
  C  38  1  0.32752700  0.35253750  0.73518425  1
  C  39  1  0.38000100  0.42097200  0.72896525  1
  C  40  1  0.36808400  0.49518250  0.65889625  1
  C  53  1  0.64526000  0.50843600  0.05270325  1
  C  54  1  0.70154000  0.44104450  0.11094275  1
  C  55  1  0.71361400  0.37102850  0.10671300  1
  C  56  1  0.66081700  0.36475500  0.04464250  1
  C  57  1  0.60604100  0.43312800  0.98242325  1
  C  58  1  0.60285500  0.50611000  0.98514750  1
  C  61  1  0.64543100  0.57770950  0.06105050  1
  C  62  1  0.60281700  0.58010250  0.12852500  1
  C  63  1  0.60600600  0.65310150  0.13121675  1
  C  64  1  0.66074400  0.72147850  0.06896775  1
  C  65  1  0.71353400  0.71518050  0.00691300  1
  C  66  1  0.70161800  0.64511850  0.00275700  1
  C  79  1  0.88274200  0.17884300  0.30544425  1
  C  80  1  0.77314600  0.19752750  0.31040100  1
  C  81  1  0.71936600  0.26018950  0.24612075  1
  C  82  1  0.76840000  0.30711450  0.17094850  1
  C  83  1  0.87605100  0.28746750  0.16414375  1
  C  84  1  0.93112100  0.22680000  0.22954775  1
  C  87  1  0.61466600  0.20395550  0.34623225  1
  C  90  1  0.03552800  0.28584750  0.12895100  1
  C  93  1  0.21614900  0.29169700  0.67245325  1
  C  94  1  0.10657100  0.29670800  0.64875200  1
  C  95  1  0.05275700  0.23246350  0.65031875  1
  C  96  1  0.10168300  0.15723800  0.67867500  1
  C  97  1  0.20930500  0.15037850  0.70518900  1
  C  98  1  0.26443700  0.21575900  0.70045500  1
  C  101  1  0.94808700  0.33259100  0.60651925  1
  C  104  1  0.36868900  0.11504700  0.74223450  1
  C  107  1  0.54933000  0.65879250  0.19251725  1
  C  108  1  0.43970200  0.63521550  0.21112175  1
  C  109  1  0.38585000  0.63688450  0.27373550  1
  C  110  1  0.43489600  0.66499600  0.32077025  1
  C  111  1  0.54263800  0.69125250  0.30129275  1
  C  112  1  0.59765100  0.68675800  0.24047000  1
  C  115  1  0.28104800  0.59339000  0.21721900  1
  C  118  1  0.70203200  0.72823250  0.29960750  1
  C  121  1  0.88273200  0.90737200  0.80823775  1
  C  122  1  0.77312100  0.88872200  0.80326525  1
  C  123  1  0.71930400  0.82608000  0.86754350  1
  C  124  1  0.76834900  0.77909250  0.94270050  1
  C  125  1  0.87601200  0.79869550  0.94951750  1
  C  126  1  0.93106100  0.85943450  0.88415675  1
  C  129  1  0.61453600  0.88248850  0.76749450  1
  C  132  1  0.03553600  0.80018650  0.98468975  1
  C  135  1  0.21608600  0.79448600  0.44120625  1
  C  136  1  0.10648700  0.78953150  0.46483350  1
  C  137  1  0.05270100  0.85380800  0.46322075  1
  C  138  1  0.10173100  0.92898000  0.43497925  1
  C  139  1  0.20937600  0.93579200  0.40852000  1
  C  140  1  0.26445300  0.87038800  0.41325650  1
  C  143  1  0.94800400  0.75369750  0.50707975  1
  C  146  1  0.36884300  0.97099550  0.37168400  1
  C  149  1  0.54936900  0.42745550  0.92111050  1
  C  150  1  0.43981300  0.45120500  0.90238475  1
  C  151  1  0.38600900  0.44964800  0.83970100  1
  C  152  1  0.43491300  0.42126100  0.79285150  1
  C  153  1  0.54251700  0.39470550  0.81253575  1
  C  154  1  0.59765000  0.39944200  0.87318075  1
  C  157  1  0.28135500  0.49349200  0.89599900  1
  C  160  1  0.70190100  0.35765500  0.81425275  1
  H  7  1  0.07201300  0.14288800  0.55592725  1
  H  16  1  0.07210100  0.94332750  0.55771800  1
  H  19  1  0.87898400  0.91271450  0.60873875  1
  H  20  1  0.88006600  0.85770550  0.70583750  1
  H  21  1  0.87986300  0.22844000  0.40792300  1
  H  22  1  0.87877700  0.17335250  0.50501250  1
  H  23  1  0.93860800  0.08085050  0.25619050  1
  H  24  1  0.02149100  0.00539400  0.29568000  1
  H  25  1  0.93856500  0.00536750  0.85748225  1
  H  26  1  0.02132100  0.08091700  0.81786325  1
  H  33  1  0.40548600  0.54224200  0.45790625  1
  H  42  1  0.40530700  0.54401550  0.65574875  1
  H  45  1  0.21205200  0.59490250  0.63523125  1
  H  46  1  0.21319100  0.69198750  0.59325700  1
  H  47  1  0.21349500  0.39411750  0.52038725  1
  H  48  1  0.21236800  0.49120850  0.47832150  1
  H  49  1  0.27193200  0.24243550  0.81972075  1
  H  50  1  0.35458900  0.28207750  0.85568675  1
  H  51  1  0.27173600  0.84375500  0.29392600  1
  H  52  1  0.35447800  0.80416600  0.25794650  1
  H  59  1  0.73883200  0.44419650  0.15660800  1
  H  68  1  0.73886400  0.64195650  0.95708400  1
  H  71  1  0.54563000  0.62156800  0.92655450  1
  H  72  1  0.54673200  0.57956450  0.87146500  1
  H  73  1  0.54657800  0.50673400  0.24217525  1
  H  74  1  0.54567700  0.46461750  0.18719275  1
  H  75  1  0.60545900  0.80609200  0.09465325  1
  H  76  1  0.68823800  0.84195950  0.01916750  1
  H  77  1  0.60540500  0.28011700  0.01904600  1
  H  78  1  0.68824500  0.24425100  0.09450025  1
  H  91  1  0.54574700  0.19086950  0.37923450  1
  H  92  1  0.10437900  0.29990700  0.09575675  1
  H  105  1  0.87913900  0.36557550  0.58671950  1
  H  106  1  0.43772500  0.08201850  0.76076600  1
  H  119  1  0.21255400  0.57250450  0.20473975  1
  H  120  1  0.77110800  0.74666000  0.31416750  1
  H  133  1  0.54590200  0.89514850  0.73425300  1
  H  134  1  0.10443500  0.78600600  0.01783900  1
  H  147  1  0.87908100  0.72070100  0.52698100  1
  H  148  1  0.43768500  0.00419350  0.35253900  1
  H  161  1  0.21241500  0.51331400  0.90916800  1
  H  162  1  0.77093700  0.33912350  0.79975475  1
  N  8  1  0.98823300  0.03720300  0.81465425  1
  N  15  1  0.98818750  0.04893650  0.29907675  1
  N  17  1  0.89303400  0.90954150  0.65944025  1
  N  18  1  0.89308400  0.17663300  0.45428775  1
  N  34  1  0.32140700  0.80093700  0.30488625  1
  N  41  1  0.32156800  0.28527400  0.80874650  1
  N  43  1  0.22640300  0.64562750  0.58780475  1
  N  44  1  0.22652300  0.44050650  0.52582600  1
  N  60  1  0.65469900  0.29115850  0.05105450  1
  N  67  1  0.65469900  0.79505350  0.06261400  1
  N  69  1  0.55983900  0.57410250  0.92329250  1
  N  70  1  0.55967700  0.51215350  0.19036400  1
  N  85  1  0.61972700  0.26291550  0.27013875  1
  N  88  1  0.03208600  0.22787800  0.20559550  1
  N  99  1  0.95309700  0.25649400  0.62365550  1
  N  102  1  0.36539100  0.19176300  0.72333025  1
  N  113  1  0.28620900  0.61016450  0.27642300  1
  N  116  1  0.69866900  0.70945450  0.24170475  1
  N  127  1  0.61967700  0.82335850  0.84351075  1
  N  130  1  0.03208200  0.85821300  0.90806750  1
  N  141  1  0.95306000  0.82979000  0.48995550  1
  N  144  1  0.36540900  0.89434800  0.39036500  1
  N  155  1  0.28635500  0.47634550  0.83704475  1
  N  158  1  0.69860400  0.37656550  0.87205850  1
  O  86  1  0.70635200  0.15923500  0.37458525  1
  O  89  1  0.94084800  0.32603200  0.09904875  1
  O  100  1  0.03980000  0.36090450  0.62289425  1
  O  103  1  0.27408400  0.08527950  0.73165500  1
  O  114  1  0.37299400  0.60923050  0.17286400  1
  O  117  1  0.60740900  0.71772950  0.33991600  1
  O  128  1  0.70638200  0.92698450  0.73904125  1
  O  131  1  0.94083100  0.76005050  0.01459050  1
  O  142  1  0.03969100  0.72535050  0.49070875  1
  O  145  1  0.27416500  0.00089100  0.38197850  1
  O  156  1  0.37305700  0.47709050  0.94070500  1
  O  159  1  0.60729600  0.36823650  0.77390400  1
