# generated using pymatgen
data_H24C45N8
_symmetry_space_group_name_H-M   'P 1'
_cell_length_a   17.29927500
_cell_length_b   17.29925000
_cell_length_c   51.89780000
_cell_angle_alpha   89.99750000
_cell_angle_beta   89.99739999
_cell_angle_gamma   119.99985658
_symmetry_Int_Tables_number   1
_chemical_formula_structural   H24C45N8
_chemical_formula_sum   'H72 C135 N24'
_cell_volume   13450.40567245
_cell_formula_units_Z   3
loop_
 _symmetry_equiv_pos_site_id
 _symmetry_equiv_pos_as_xyz
  1  'x, y, z'
loop_
 _atom_site_type_symbol
 _atom_site_label
 _atom_site_symmetry_multiplicity
 _atom_site_fract_x
 _atom_site_fract_y
 _atom_site_fract_z
 _atom_site_occupancy
  C  1  1  0.93681550  0.14903150  0.98756500  1
  C  2  1  0.86724800  0.16825800  0.98762600  1
  C  3  1  0.78551200  0.08717100  0.98733400  1
  C  4  1  0.80344100  0.01671700  0.98692700  1
  C  5  1  0.73317050  0.92706450  0.98580200  1
  C  6  1  0.64256000  0.90613100  0.98524800  1
  C  7  1  0.62571550  0.97852450  0.98613900  1
  C  8  1  0.69620950  0.06826050  0.98716500  1
  C  9  1  0.88751350  0.25798050  0.98803900  1
  C  10  1  0.97771450  0.32757250  0.98880400  1
  C  11  1  0.04934600  0.30949000  0.98916500  1
  C  12  1  0.02692700  0.21842000  0.98838600  1
  C  13  1  0.93146600  0.01875000  0.00923700  1
  C  14  1  0.97664200  0.97544500  0.00058100  1
  C  15  1  0.97708100  0.97622800  0.97342400  1
  C  16  1  0.93273800  0.02058200  0.96495400  1
  C  17  1  0.01146800  0.94106300  0.95511800  1
  C  18  1  0.00039300  0.95041900  0.92845600  1
  C  19  1  0.95499400  0.99466300  0.91942000  1
  C  20  1  0.92154450  0.02990550  0.93834900  1
  C  21  1  0.91973800  0.02685400  0.03588500  1
  C  22  1  0.95341500  0.99135100  0.05466500  1
  C  23  1  0.99949900  0.94803400  0.04543700  1
  C  24  1  0.01114150  0.93993250  0.01873800  1
  C  37  1  0.90105450  0.05120550  0.98716100  1
  C  38  1  0.94089350  0.00355650  0.89310900  1
  C  39  1  0.93764300  0.99766700  0.08101100  1
  C  40  1  0.13916550  0.37650650  0.99188700  1
  C  41  1  0.57464000  0.81706400  0.98205200  1
  C  46  1  0.15165050  0.01474150  0.32089200  1
  C  47  1  0.24045100  0.08429500  0.32095500  1
  C  48  1  0.24112550  0.16604550  0.32064100  1
  C  49  1  0.15275250  0.14813950  0.32023700  1
  C  50  1  0.13339700  0.21842800  0.31909800  1
  C  51  1  0.20309700  0.30902600  0.31853000  1
  C  52  1  0.29232400  0.32585100  0.31944300  1
  C  53  1  0.31153600  0.25533900  0.32047200  1
  C  54  1  0.30989050  0.06400750  0.32137900  1
  C  55  1  0.28926100  0.97379900  0.32215600  1
  C  56  1  0.19953800  0.90218900  0.32254300  1
  C  57  1  0.13090350  0.92462950  0.32174900  1
  C  58  1  0.02674350  0.02015450  0.34256500  1
  C  59  1  0.93825850  0.97498250  0.33391400  1
  C  60  1  0.93859150  0.97448950  0.30675600  1
  C  61  1  0.02729150  0.01882650  0.29828200  1
  C  62  1  0.86903450  0.94009250  0.28845300  1
  C  63  1  0.88946200  0.95115000  0.26179100  1
  C  64  1  0.97910600  0.99654600  0.25275000  1
  C  65  1  0.04780300  0.02999300  0.27167600  1
  C  66  1  0.04657900  0.03187300  0.36921200  1
  C  67  1  0.97740300  0.99816800  0.38799700  1
  C  68  1  0.88799600  0.95206600  0.37877100  1
  C  69  1  0.86824600  0.94044500  0.35207200  1
  C  82  1  0.08960450  0.05052850  0.32048700  1
  C  83  1  0.00209150  0.01064750  0.22643900  1
  C  84  1  0.99949200  0.01390200  0.41434300  1
  C  85  1  0.17672200  0.81235500  0.32525000  1
  C  86  1  0.18196800  0.37697100  0.31534800  1
  C  91  1  0.80247900  0.79984900  0.65425500  1
  C  92  1  0.78330400  0.71106900  0.65429900  1
  C  93  1  0.86441000  0.71046100  0.65398900  1
  C  94  1  0.93483650  0.79885650  0.65358600  1
  C  95  1  0.02450700  0.81827400  0.65246900  1
  C  96  1  0.04548250  0.74861850  0.65190600  1
  C  97  1  0.97310700  0.65936900  0.65278100  1
  C  98  1  0.88335600  0.64009100  0.65380400  1
  C  99  1  0.69360200  0.64157200  0.65473900  1
  C  100  1  0.62397400  0.66212000  0.65553600  1
  C  101  1  0.64199850  0.75181150  0.65591600  1
  C  102  1  0.73304900  0.82051000  0.65512000  1
  C  103  1  0.93277350  0.92481450  0.67590700  1
  C  104  1  0.97606150  0.01329350  0.66725000  1
  C  105  1  0.97525500  0.01295400  0.64009400  1
  C  106  1  0.93090900  0.92425400  0.63162600  1
  C  107  1  0.01044500  0.08250700  0.62178500  1
  C  108  1  0.00108350  0.06207650  0.59512500  1
  C  109  1  0.95680550  0.97243450  0.58609000  1
  C  110  1  0.92155550  0.90374050  0.60502000  1
  C  111  1  0.92468550  0.90498150  0.70255600  1
  C  112  1  0.96017550  0.97415950  0.72133500  1
  C  113  1  0.00349900  0.06356500  0.71210300  1
  C  114  1  0.01160100  0.08331000  0.68540500  1
  C  127  1  0.90030150  0.86194750  0.65383500  1
  C  128  1  0.94794350  0.94944550  0.55977900  1
  C  129  1  0.95385850  0.95207050  0.74768100  1
  C  130  1  0.57492800  0.77451400  0.65868500  1
  C  131  1  0.13457900  0.76981800  0.64872300  1
  C  136  1  0.97202950  0.99206850  0.84832300  1
  C  137  1  0.97086600  0.06380800  0.83537400  1
  C  138  1  0.96921100  0.06702600  0.80785200  1
  C  139  1  0.96894950  0.99918750  0.79248200  1
  C  140  1  0.97169050  0.92879850  0.80563300  1
  C  141  1  0.97373150  0.92576050  0.83282500  1
  C  143  1  0.97025850  0.20564950  0.81028300  1
  C  144  1  0.97293500  0.20308500  0.83728500  1
  C  152  1  0.95946900  0.97949900  0.18165500  1
  C  153  1  0.03238100  0.98066900  0.16870600  1
  C  154  1  0.03725750  0.98232850  0.14118500  1
  C  155  1  0.96967550  0.98258350  0.12581400  1
  C  156  1  0.89653400  0.97982700  0.13896500  1
  C  157  1  0.89145200  0.97778300  0.16615700  1
  C  159  1  0.17484000  0.98129400  0.14361600  1
  C  160  1  0.16959400  0.97861800  0.17061800  1
  C  168  1  0.95946400  0.99206500  0.51498900  1
  C  169  1  0.88773050  0.91916150  0.50204200  1
  C  170  1  0.88452050  0.91428950  0.47451900  1
  C  171  1  0.95235700  0.98187300  0.45914600  1
  C  172  1  0.02274200  0.05500800  0.47229700  1
  C  173  1  0.02577300  0.06008600  0.49948900  1
  C  175  1  0.74590200  0.77670700  0.47695400  1
  C  176  1  0.74846200  0.78194300  0.50395600  1
  C  184  1  0.25308800  0.53349500  0.98696400  1
  C  185  1  0.33669450  0.53637550  0.98739300  1
  C  186  1  0.41892350  0.61956150  0.98855000  1
  C  187  1  0.41998550  0.70224450  0.98874700  1
  C  188  1  0.33642700  0.69830300  0.98840200  1
  C  189  1  0.25533900  0.61629100  0.98729300  1
  C  191  1  0.49949750  0.54023750  0.98920100  1
  C  192  1  0.41913300  0.45884200  0.98738800  1
  C  200  1  0.21984050  0.69845950  0.32032500  1
  C  201  1  0.13913050  0.61483250  0.32074900  1
  C  202  1  0.14012300  0.53262200  0.32189200  1
  C  203  1  0.22176100  0.53158800  0.32207700  1
  C  204  1  0.30136050  0.61516350  0.32173800  1
  C  205  1  0.30040250  0.69623850  0.32064500  1
  C  207  1  0.98022850  0.45199250  0.32254900  1
  C  208  1  0.97915900  0.53234200  0.32075100  1
  C  216  1  0.41806550  0.73161050  0.65361900  1
  C  217  1  0.41524650  0.81236650  0.65403900  1
  C  218  1  0.33209400  0.81147700  0.65518900  1
  C  219  1  0.24937350  0.72988750  0.65538600  1
  C  220  1  0.25325800  0.65023700  0.65503700  1
  C  221  1  0.33524200  0.65109700  0.65393500  1
  C  223  1  0.41152850  0.97137550  0.65582300  1
  C  224  1  0.49289150  0.97233350  0.65401200  1
  H  25  1  0.02426850  0.92071250  0.05817500  1
  H  26  1  0.04391700  0.90779500  0.01268000  1
  H  27  1  0.04367350  0.90820150  0.96103700  1
  H  28  1  0.02524250  0.92352550  0.91559900  1
  H  29  1  0.88813300  0.06222200  0.93296000  1
  H  30  1  0.88584600  0.05853600  0.04141700  1
  H  31  1  0.74884050  0.87734550  0.98500400  1
  H  32  1  0.56155050  0.96656150  0.98532900  1
  H  33  1  0.68227900  0.11912800  0.98731600  1
  H  34  1  0.07595150  0.20172350  0.98878100  1
  H  35  1  0.83730550  0.27287150  0.98817800  1
  H  36  1  0.99061250  0.39203550  0.98971600  1
  H  42  1  0.89426750  0.01733050  0.08548900  1
  H  43  1  0.89853900  0.02466700  0.88873100  1
  H  44  1  0.18032200  0.35867900  0.99966600  1
  H  45  1  0.59028850  0.77697150  0.97252500  1
  H  70  1  0.83590350  0.92723950  0.39151100  1
  H  71  1  0.80333200  0.90760400  0.34601800  1
  H  72  1  0.80397350  0.90792750  0.29437600  1
  H  73  1  0.83771500  0.92632900  0.24893500  1
  H  74  1  0.11352800  0.06341900  0.26628500  1
  H  75  1  0.11215050  0.06575950  0.37474400  1
  H  76  1  0.06801100  0.20278000  0.31830000  1
  H  77  1  0.34453800  0.39001200  0.31865500  1
  H  78  1  0.37632800  0.26924900  0.32066300  1
  H  79  1  0.06517650  0.87561650  0.32214400  1
  H  80  1  0.37499250  0.11420450  0.32152200  1
  H  81  1  0.34081500  0.96089400  0.32308500  1
  H  87  1  0.06253450  0.05726050  0.41882100  1
  H  88  1  0.06555500  0.05301200  0.22205700  1
  H  89  1  0.11770350  0.77117250  0.33300400  1
  H  90  1  0.12625800  0.36135800  0.30581200  1
  H  115  1  0.03080100  0.11565800  0.72484200  1
  H  116  1  0.04369550  0.14822350  0.67934700  1
  H  117  1  0.04330850  0.14757050  0.62770500  1
  H  118  1  0.02799400  0.11381900  0.58226700  1
  H  119  1  0.88923550  0.83801250  0.59963200  1
  H  120  1  0.89300700  0.83940800  0.70809000  1
  H  121  1  0.07420600  0.88367200  0.65167100  1
  H  122  1  0.98509300  0.60718400  0.65197900  1
  H  123  1  0.83250650  0.57528750  0.65396800  1
  H  124  1  0.74969450  0.88621650  0.65553400  1
  H  125  1  0.67875200  0.57648700  0.65486200  1
  H  126  1  0.55952650  0.61052750  0.65646300  1
  H  132  1  0.93421150  0.88903250  0.75215900  1
  H  133  1  0.92682250  0.88597850  0.55540300  1
  H  134  1  0.59259900  0.83325500  0.66661200  1
  H  135  1  0.17471550  0.82566650  0.63924700  1
  H  146  1  0.97003100  0.25752500  0.80096600  1
  H  147  1  0.97462700  0.25298100  0.84821900  1
  H  148  1  0.97665950  0.87393450  0.84136500  1
  H  149  1  0.97411600  0.87948100  0.79546300  1
  H  162  1  0.22694600  0.98153000  0.13430000  1
  H  163  1  0.21779850  0.97692850  0.18155300  1
  H  164  1  0.83669550  0.97484950  0.17469700  1
  H  165  1  0.84478750  0.97739450  0.12879300  1
  H  178  1  0.69403350  0.72460350  0.46763800  1
  H  179  1  0.69856700  0.73374100  0.51489200  1
  H  180  1  0.07759200  0.11484300  0.50802900  1
  H  181  1  0.07205800  0.10676000  0.46212500  1
  H  194  1  0.55945200  0.54222900  0.98996200  1
  H  195  1  0.41860500  0.39957600  0.98687300  1
  H  196  1  0.19682600  0.61762300  0.98694700  1
  H  197  1  0.33387650  0.75617350  0.98871400  1
  H  210  1  0.92227700  0.39202400  0.32330800  1
  H  211  1  0.92040650  0.53284450  0.32024300  1
  H  212  1  0.36023250  0.75476250  0.32030200  1
  H  213  1  0.36179200  0.61773800  0.32204600  1
  H  226  1  0.40959200  0.02936600  0.65657700  1
  H  227  1  0.55218450  0.03104550  0.65349000  1
  H  228  1  0.33387300  0.59123600  0.65358600  1
  H  229  1  0.19536650  0.58983650  0.65534600  1
  N  142  1  0.96883500  0.13807000  0.79666600  1
  N  145  1  0.97333150  0.13278650  0.84869400  1
  N  150  1  0.97782850  0.98574950  0.87411800  1
  N  151  1  0.97051650  0.00706150  0.76653100  1
  N  158  1  0.10867950  0.98270950  0.12999700  1
  N  161  1  0.09889400  0.97821100  0.18202700  1
  N  166  1  0.94734750  0.97369650  0.20745000  1
  N  167  1  0.97598050  0.98101150  0.09986100  1
  N  174  1  0.81348100  0.84286900  0.46333300  1
  N  177  1  0.81875450  0.85264350  0.51536300  1
  N  182  1  0.96576900  0.00418700  0.54078600  1
  N  183  1  0.94448550  0.97558350  0.43319500  1
  N  190  1  0.49612450  0.61681450  0.98964600  1
  N  193  1  0.34155650  0.46028250  0.98663200  1
  N  198  1  0.17141450  0.45950150  0.98582400  1
  N  199  1  0.49336800  0.78424800  0.98998400  1
  N  206  1  0.06019200  0.45539600  0.32298600  1
  N  209  1  0.05816100  0.60993800  0.31999800  1
  N  214  1  0.22749350  0.78012350  0.31920000  1
  N  215  1  0.23040150  0.45821350  0.32330200  1
  N  222  1  0.33491150  0.89146150  0.65627600  1
  N  225  1  0.49138700  0.89328500  0.65326800  1
  N  230  1  0.49205250  0.72392450  0.65247300  1
  N  231  1  0.16737900  0.72130000  0.65661100  1
