# generated using pymatgen
data_CuH9C14NO5
_symmetry_space_group_name_H-M   'P 1'
_cell_length_a   15.88941000
_cell_length_b   15.89194000
_cell_length_c   15.89178000
_cell_angle_alpha   72.64627000
_cell_angle_beta   72.60809000
_cell_angle_gamma   72.60779000
_symmetry_Int_Tables_number   1
_chemical_formula_structural   CuH9C14NO5
_chemical_formula_sum   'Cu6 H54 C84 N6 O30'
_cell_volume   3556.88068700
_cell_formula_units_Z   6
loop_
 _symmetry_equiv_pos_site_id
 _symmetry_equiv_pos_as_xyz
  1  'x, y, z'
loop_
 _atom_site_type_symbol
 _atom_site_label
 _atom_site_symmetry_multiplicity
 _atom_site_fract_x
 _atom_site_fract_y
 _atom_site_fract_z
 _atom_site_occupancy
  Cu  Cu1  1  0.48358000  0.05309000  0.05383000  1.0
  Cu  Cu2  1  0.05383000  0.48364000  0.05306000  1.0
  Cu  Cu3  1  0.51642000  0.94691000  0.94617000  1.0
  Cu  Cu4  1  0.05309000  0.05381000  0.48363000  1.0
  Cu  Cu5  1  0.94692000  0.94619000  0.51637000  1.0
  Cu  Cu6  1  0.94617000  0.51637000  0.94694000  1.0
  H  H1  1  0.89771000  0.64976000  0.77028000  1.0
  H  H2  1  0.40894000  0.80568000  0.66300000  1.0
  H  H3  1  0.64981000  0.77024000  0.89769000  1.0
  H  H4  1  0.75673000  0.11698000  0.34240000  1.0
  H  H5  1  0.88696000  0.23631000  0.65314000  1.0
  H  H6  1  0.02359000  0.74921000  0.74165000  1.0
  H  H7  1  0.23635000  0.65319000  0.88693000  1.0
  H  H8  1  0.76366000  0.34682000  0.11306000  1.0
  H  H9  1  0.27979000  0.64967000  0.10449000  1.0
  H  H10  1  0.19430000  0.33698000  0.59117000  1.0
  H  H11  1  0.97641000  0.25080000  0.25834000  1.0
  H  H12  1  0.10229000  0.35025000  0.22972000  1.0
  H  H13  1  0.11304000  0.76369000  0.34686000  1.0
  H  H14  1  0.34252000  0.75667000  0.11686000  1.0
  H  H15  1  0.35018000  0.89546000  0.72033000  1.0
  H  H16  1  0.34694000  0.11296000  0.76360000  1.0
  H  H17  1  0.80570000  0.66303000  0.40882000  1.0
  H  H18  1  0.82572000  0.65154000  0.64887000  1.0
  H  H19  1  0.06589000  0.18540000  0.58049000  1.0
  H  H20  1  0.65307000  0.88705000  0.23640000  1.0
  H  H21  1  0.72021000  0.35034000  0.89551000  1.0
  H  H22  1  0.11696000  0.34245000  0.75674000  1.0
  H  H23  1  0.25080000  0.25836000  0.97636000  1.0
  H  H24  1  0.34840000  0.35123000  0.17427000  1.0
  H  H25  1  0.25577000  0.47041000  0.32578000  1.0
  H  H26  1  0.77023000  0.89774000  0.64983000  1.0
  H  H27  1  0.33708000  0.59102000  0.19424000  1.0
  H  H28  1  0.89549000  0.72029000  0.35012000  1.0
  H  H29  1  0.66292000  0.40899000  0.80576000  1.0
  H  H30  1  0.18542000  0.58039000  0.06593000  1.0
  H  H31  1  0.47036000  0.32586000  0.25576000  1.0
  H  H32  1  0.74423000  0.52959000  0.67421000  1.0
  H  H33  1  0.41956000  0.93412000  0.81459000  1.0
  H  H34  1  0.74921000  0.74165000  0.02363000  1.0
  H  H35  1  0.22977000  0.10227000  0.35017000  1.0
  H  H36  1  0.24327000  0.88303000  0.65759000  1.0
  H  H37  1  0.64983000  0.10454000  0.27967000  1.0
  H  H38  1  0.25836000  0.97637000  0.25079000  1.0
  H  H39  1  0.74165000  0.02363000  0.74920000  1.0
  H  H40  1  0.35020000  0.22977000  0.10231000  1.0
  H  H41  1  0.88305000  0.65756000  0.24326000  1.0
  H  H42  1  0.65748000  0.24334000  0.88314000  1.0
  H  H43  1  0.65160000  0.64877000  0.82572000  1.0
  H  H44  1  0.52964000  0.67414000  0.74423000  1.0
  H  H45  1  0.10452000  0.27972000  0.64988000  1.0
  H  H46  1  0.32584000  0.25575000  0.47033000  1.0
  H  H47  1  0.93411000  0.81460000  0.41951000  1.0
  H  H48  1  0.35120000  0.17427000  0.34833000  1.0
  H  H49  1  0.17428000  0.34847000  0.35113000  1.0
  H  H50  1  0.67416000  0.74425000  0.52966000  1.0
  H  H51  1  0.81458000  0.41962000  0.93406000  1.0
  H  H52  1  0.58044000  0.06589000  0.18541000  1.0
  H  H53  1  0.64881000  0.82574000  0.65167000  1.0
  H  H54  1  0.59107000  0.19432000  0.33700000  1.0
  C  C1  1  0.82086000  0.59922000  0.71129000  1.0
  C  C2  1  0.17915000  0.40078000  0.28871000  1.0
  C  C3  1  0.07802000  0.62280000  0.88703000  1.0
  C  C4  1  0.12468000  0.69381000  0.82193000  1.0
  C  C5  1  0.69376000  0.82199000  0.12474000  1.0
  C  C6  1  0.46825000  0.27416000  0.22477000  1.0
  C  C7  1  0.16735000  0.79371000  0.29969000  1.0
  C  C8  1  0.27088000  0.61305000  0.17610000  1.0
  C  C9  1  0.77088000  0.46555000  0.80735000  1.0
  C  C10  1  0.87035000  0.17816000  0.30701000  1.0
  C  C11  1  0.17808000  0.87529000  0.30621000  1.0
  C  C12  1  0.27413000  0.22476000  0.46824000  1.0
  C  C13  1  0.37952000  0.91509000  0.11206000  1.0
  C  C14  1  0.91511000  0.11213000  0.37949000  1.0
  C  C15  1  0.17817000  0.30702000  0.87032000  1.0
  C  C16  1  0.08489000  0.88787000  0.62051000  1.0
  C  C17  1  0.30625000  0.17802000  0.87526000  1.0
  C  C18  1  0.77309000  0.25020000  0.76727000  1.0
  C  C19  1  0.11297000  0.92197000  0.37725000  1.0
  C  C20  1  0.77861000  0.86065000  0.59912000  1.0
  C  C21  1  0.62276000  0.88709000  0.07805000  1.0
  C  C22  1  0.40089000  0.22140000  0.13939000  1.0
  C  C23  1  0.24893000  0.91320000  0.24609000  1.0
  C  C24  1  0.86063000  0.59908000  0.77863000  1.0
  C  C25  1  0.40073000  0.28878000  0.17915000  1.0
  C  C26  1  0.74984000  0.23277000  0.22686000  1.0
  C  C27  1  0.77523000  0.53172000  0.72589000  1.0
  C  C28  1  0.88704000  0.07804000  0.62275000  1.0
  C  C29  1  0.29977000  0.16726000  0.79366000  1.0
  C  C30  1  0.19266000  0.22910000  0.53448000  1.0
  C  C31  1  0.37724000  0.11292000  0.92195000  1.0
  C  C32  1  0.12965000  0.82184000  0.69299000  1.0
  C  C33  1  0.83265000  0.20629000  0.70031000  1.0
  C  C34  1  0.28875000  0.17914000  0.40070000  1.0
  C  C35  1  0.52968000  0.12955000  0.18649000  1.0
  C  C36  1  0.78814000  0.17085000  0.29643000  1.0
  C  C37  1  0.18649000  0.52965000  0.12957000  1.0
  C  C38  1  0.24614000  0.24889000  0.91319000  1.0
  C  C39  1  0.17086000  0.29644000  0.78812000  1.0
  C  C40  1  0.08676000  0.75389000  0.75110000  1.0
  C  C41  1  0.82184000  0.69298000  0.12968000  1.0
  C  C42  1  0.13938000  0.40092000  0.22136000  1.0
  C  C43  1  0.62048000  0.08492000  0.88794000  1.0
  C  C44  1  0.71125000  0.82086000  0.59930000  1.0
  C  C45  1  0.29652000  0.78809000  0.17077000  1.0
  C  C46  1  0.46554000  0.80733000  0.77090000  1.0
  C  C47  1  0.59927000  0.71123000  0.82085000  1.0
  C  C48  1  0.75108000  0.08681000  0.75390000  1.0
  C  C49  1  0.82914000  0.70356000  0.21188000  1.0
  C  C50  1  0.92198000  0.37721000  0.11297000  1.0
  C  C51  1  0.70349000  0.21192000  0.82923000  1.0
  C  C52  1  0.72912000  0.38696000  0.82390000  1.0
  C  C53  1  0.21186000  0.82915000  0.70357000  1.0
  C  C54  1  0.22139000  0.13935000  0.40088000  1.0
  C  C55  1  0.76718000  0.77318000  0.25020000  1.0
  C  C56  1  0.81351000  0.47035000  0.87043000  1.0
  C  C57  1  0.69294000  0.12971000  0.82189000  1.0
  C  C58  1  0.38690000  0.82386000  0.72919000  1.0
  C  C59  1  0.22477000  0.46829000  0.27410000  1.0
  C  C60  1  0.87044000  0.81353000  0.47029000  1.0
  C  C61  1  0.87532000  0.30619000  0.17806000  1.0
  C  C62  1  0.11212000  0.37951000  0.91513000  1.0
  C  C63  1  0.30706000  0.87030000  0.17810000  1.0
  C  C64  1  0.91324000  0.24611000  0.24889000  1.0
  C  C65  1  0.20628000  0.70032000  0.83267000  1.0
  C  C66  1  0.53447000  0.19267000  0.22909000  1.0
  C  C67  1  0.17614000  0.27081000  0.61314000  1.0
  C  C68  1  0.23282000  0.22683000  0.74980000  1.0
  C  C69  1  0.75387000  0.75112000  0.08681000  1.0
  C  C70  1  0.59912000  0.77861000  0.86061000  1.0
  C  C71  1  0.61311000  0.17615000  0.27081000  1.0
  C  C72  1  0.82386000  0.72920000  0.38685000  1.0
  C  C73  1  0.47033000  0.87045000  0.81350000  1.0
  C  C74  1  0.25017000  0.76724000  0.77314000  1.0
  C  C75  1  0.80734000  0.77091000  0.46551000  1.0
  C  C76  1  0.82192000  0.12471000  0.69379000  1.0
  C  C77  1  0.12956000  0.18647000  0.52971000  1.0
  C  C78  1  0.22912000  0.53445000  0.19265000  1.0
  C  C79  1  0.79372000  0.29968000  0.16733000  1.0
  C  C80  1  0.22691000  0.74981000  0.23273000  1.0
  C  C81  1  0.70024000  0.83274000  0.20634000  1.0
  C  C82  1  0.53175000  0.72585000  0.77523000  1.0
  C  C83  1  0.72587000  0.77524000  0.53176000  1.0
  C  C84  1  0.88789000  0.62050000  0.08486000  1.0
  N  N1  1  0.85721000  0.53560000  0.85693000  1.0
  N  N2  1  0.85693000  0.85724000  0.53557000  1.0
  N  N3  1  0.14308000  0.14277000  0.46443000  1.0
  N  N4  1  0.14279000  0.46440000  0.14307000  1.0
  N  N5  1  0.53562000  0.85694000  0.85718000  1.0
  N  N6  1  0.46439000  0.14306000  0.14282000  1.0
  O  O1  1  0.60747000  0.01897000  0.86698000  1.0
  O  O2  1  0.39041000  0.13411000  0.98765000  1.0
  O  O3  1  0.98106000  0.13305000  0.39254000  1.0
  O  O4  1  0.13307000  0.39257000  0.98105000  1.0
  O  O5  1  0.42115000  0.88513000  0.04096000  1.0
  O  O6  1  0.10756000  0.58114000  0.95851000  1.0
  O  O7  1  0.88511000  0.04110000  0.42110000  1.0
  O  O8  1  0.41899000  0.04141000  0.89240000  1.0
  O  O9  1  0.57886000  0.11488000  0.95904000  1.0
  O  O10  1  0.23424000  0.20800000  0.67010000  1.0
  O  O11  1  0.89244000  0.41887000  0.04149000  1.0
  O  O12  1  0.13416000  0.98762000  0.39051000  1.0
  O  O13  1  0.01236000  0.60952000  0.86585000  1.0
  O  O14  1  0.20807000  0.67013000  0.23414000  1.0
  O  O15  1  0.95855000  0.10756000  0.58105000  1.0
  O  O16  1  0.01894000  0.86696000  0.60745000  1.0
  O  O17  1  0.11489000  0.95891000  0.57890000  1.0
  O  O18  1  0.95900000  0.57890000  0.11478000  1.0
  O  O19  1  0.32987000  0.76582000  0.79196000  1.0
  O  O20  1  0.60959000  0.86590000  0.01234000  1.0
  O  O21  1  0.98764000  0.39049000  0.13414000  1.0
  O  O22  1  0.04101000  0.42111000  0.88522000  1.0
  O  O23  1  0.39253000  0.98103000  0.13302000  1.0
  O  O24  1  0.86693000  0.60743000  0.01895000  1.0
  O  O25  1  0.86584000  0.01238000  0.60949000  1.0
  O  O26  1  0.67013000  0.23418000  0.20803000  1.0
  O  O27  1  0.79194000  0.32987000  0.76586000  1.0
  O  O28  1  0.58102000  0.95859000  0.10760000  1.0
  O  O29  1  0.76577000  0.79200000  0.32990000  1.0
  O  O30  1  0.04146000  0.89245000  0.41894000  1.0
