# generated using pymatgen
data_H24C39(N2O)4
_symmetry_space_group_name_H-M   'P 1'
_cell_length_a   26.89320000
_cell_length_b   26.89320000
_cell_length_c   33.19780000
_cell_angle_alpha   90.00000000
_cell_angle_beta   90.00000000
_cell_angle_gamma   120.00000000
_symmetry_Int_Tables_number   1
_chemical_formula_structural   H24C39(N2O)4
_chemical_formula_sum   'H144 C234 N48 O24'
_cell_volume   20793.37084541
_cell_formula_units_Z   6
loop_
 _symmetry_equiv_pos_site_id
 _symmetry_equiv_pos_as_xyz
  1  'x, y, z'
loop_
 _atom_site_type_symbol
 _atom_site_label
 _atom_site_symmetry_multiplicity
 _atom_site_fract_x
 _atom_site_fract_y
 _atom_site_fract_z
 _atom_site_occupancy
  C  1  1  0.55172050  0.51753050  0.02382000  1
  C  2  1  0.59248800  0.57450600  0.01509400  1
  C  3  1  0.56947250  0.59475450  0.98627900  1
  C  4  1  0.51480150  0.55010750  0.97578500  1
  C  5  1  0.48087450  0.55887350  0.94759300  1
  C  6  1  0.50176700  0.61400200  0.93071700  1
  C  7  1  0.55742000  0.65890100  0.94146200  1
  C  8  1  0.59161250  0.64951150  0.96907200  1
  C  9  1  0.64603650  0.60141650  0.03457400  1
  C  10  1  0.65824400  0.56968800  0.06265100  1
  C  11  1  0.61743450  0.51154850  0.07155600  1
  C  12  1  0.56338250  0.48589450  0.05220200  1
  C  13  1  0.44682000  0.47858000  0.02386300  1
  C  14  1  0.40605250  0.42159150  0.01517500  1
  C  15  1  0.42906000  0.40131400  0.98637900  1
  C  16  1  0.48365950  0.44599550  0.97577400  1
  C  17  1  0.40688750  0.34654550  0.96918600  1
  C  18  1  0.44103200  0.33714300  0.94154200  1
  C  19  1  0.49667200  0.38203200  0.93076000  1
  C  20  1  0.51757250  0.43718250  0.94759800  1
  C  21  1  0.43517650  0.51024550  0.05222900  1
  C  22  1  0.38113000  0.48462000  0.07158900  1
  C  23  1  0.34031800  0.42647000  0.06272400  1
  C  24  1  0.35252500  0.39469700  0.03468600  1
  C  37  1  0.49925100  0.49805000  0.99956800  1
  C  38  1  0.53021450  0.37235050  0.90246200  1
  C  39  1  0.36936200  0.51636300  0.10035900  1
  C  40  1  0.46814150  0.62359650  0.90244000  1
  C  41  1  0.62921000  0.47987200  0.10038000  1
  C  46  1  0.96639800  0.44589600  0.35716500  1
  C  47  1  0.98260150  0.40511050  0.34848100  1
  C  48  1  0.02596650  0.42814150  0.31974100  1
  C  49  1  0.03600600  0.48280400  0.30920700  1
  C  50  1  0.07870900  0.51668300  0.28100300  1
  C  51  1  0.11289050  0.49572550  0.26413200  1
  C  52  1  0.10207450  0.44005450  0.27488800  1
  C  53  1  0.05850800  0.40592100  0.30252600  1
  C  54  1  0.95587950  0.35154250  0.36793400  1
  C  55  1  0.91183750  0.33931750  0.39592100  1
  C  56  1  0.89451800  0.38014300  0.40478300  1
  C  57  1  0.92298800  0.43420800  0.38545300  1
  C  58  1  0.03236000  0.55079800  0.35722800  1
  C  59  1  0.01615850  0.59156450  0.34848400  1
  C  60  1  0.97295000  0.56856200  0.31963200  1
  C  61  1  0.96305000  0.51396400  0.30905600  1
  C  62  1  0.94037300  0.59072900  0.30239600  1
  C  63  1  0.89681650  0.55654050  0.27477100  1
  C  64  1  0.88608300  0.50089900  0.26401100  1
  C  65  1  0.92037200  0.48004100  0.28085000  1
  C  66  1  0.07557600  0.56242900  0.38567300  1
  C  67  1  0.10391450  0.61646050  0.40506000  1
  C  68  1  0.08659800  0.65727200  0.39613400  1
  C  69  1  0.04272400  0.64508400  0.36800600  1
  C  82  1  0.99945600  0.49836600  0.33292200  1
  C  83  1  0.84281900  0.46731700  0.23575300  1
  C  84  1  0.14733200  0.62822600  0.43391100  1
  C  85  1  0.15611050  0.52923850  0.23581900  1
  C  86  1  0.85097550  0.36835150  0.43353100  1
  C  91  1  0.47967600  0.03103200  0.69040700  1
  C  92  1  0.42271100  0.01478500  0.68161100  1
  C  93  1  0.40256950  0.97155550  0.65277500  1
  C  94  1  0.44727700  0.96160100  0.64233500  1
  C  95  1  0.43861800  0.91894400  0.61413700  1
  C  96  1  0.38349500  0.88459000  0.59728300  1
  C  97  1  0.33853250  0.89527250  0.60797400  1
  C  98  1  0.34783400  0.93886400  0.63555100  1
  C  99  1  0.39570200  0.04133800  0.70107600  1
  C  100  1  0.42732550  0.08523350  0.72920500  1
  C  101  1  0.48544700  0.10259100  0.73818300  1
  C  102  1  0.51120400  0.07428200  0.71884300  1
  C  103  1  0.51872500  0.96515300  0.69047900  1
  C  104  1  0.57573450  0.98140850  0.68182200  1
  C  105  1  0.59603250  0.02471050  0.65303700  1
  C  106  1  0.55137500  0.03466900  0.64245200  1
  C  107  1  0.65080200  0.05729600  0.63584300  1
  C  108  1  0.66020400  0.10082300  0.60817900  1
  C  109  1  0.61531400  0.11156200  0.59737700  1
  C  110  1  0.56016300  0.07732900  0.61422400  1
  C  111  1  0.48705300  0.92184100  0.71884200  1
  C  112  1  0.51269450  0.89345550  0.73822900  1
  C  113  1  0.57085500  0.91081400  0.72938900  1
  C  114  1  0.60263150  0.95478750  0.70134600  1
  C  127  1  0.49926500  0.99811900  0.66617700  1
  C  128  1  0.62496200  0.15476000  0.56906800  1
  C  129  1  0.48097000  0.84996200  0.76701500  1
  C  130  1  0.37387800  0.84125500  0.56911000  1
  C  131  1  0.51702250  0.14599450  0.76705900  1
  C  136  1  0.54652800  0.28858200  0.79959400  1
  C  137  1  0.52913200  0.22949200  0.80352000  1
  C  138  1  0.51995200  0.20710800  0.84309100  1
  C  140  1  0.53953400  0.29632900  0.87096600  1
  C  143  1  0.55921400  0.32005000  0.76096000  1
  C  151  1  0.74247550  0.45061550  0.13293000  1
  C  152  1  0.70057650  0.46774850  0.13685500  1
  C  153  1  0.68732450  0.47682850  0.17643600  1
  C  155  1  0.75726800  0.45765800  0.20431400  1
  C  158  1  0.76138200  0.43805800  0.09429800  1
  C  166  1  0.70850950  0.25506550  0.46611500  1
  C  167  1  0.76756800  0.29692400  0.46999500  1
  C  168  1  0.79001950  0.31008350  0.50955200  1
  C  170  1  0.70096800  0.24014000  0.53746600  1
  C  173  1  0.67693850  0.23632050  0.42751600  1
  C  181  1  0.45162550  0.70738950  0.79953900  1
  C  182  1  0.46878700  0.76643200  0.80345100  1
  C  183  1  0.47810900  0.78882300  0.84303200  1
  C  185  1  0.45888850  0.69970250  0.87088100  1
  C  188  1  0.43888550  0.67591650  0.76090500  1
  C  196  1  0.25625600  0.54582900  0.13290900  1
  C  197  1  0.29802400  0.52852800  0.13681900  1
  C  198  1  0.31134750  0.51945750  0.17638500  1
  C  200  1  0.24155850  0.53885450  0.20429300  1
  C  203  1  0.23741000  0.55845700  0.09428000  1
  C  211  1  0.29003400  0.74116400  0.46635300  1
  C  212  1  0.23094750  0.69948750  0.47034400  1
  C  213  1  0.20869000  0.68614000  0.50994300  1
  C  215  1  0.29803850  0.75575850  0.53774900  1
  C  218  1  0.32138800  0.76000200  0.42768200  1
  C  901  1  0.55172050  0.51753050  0.57198300  1
  C  902  1  0.59248800  0.57450600  0.56325700  1
  C  903  1  0.56947250  0.59475450  0.53444200  1
  C  904  1  0.51480150  0.55010750  0.52394800  1
  C  905  1  0.48087450  0.55887350  0.49575600  1
  C  906  1  0.50176700  0.61400200  0.47888000  1
  C  907  1  0.55742000  0.65890100  0.48962500  1
  C  908  1  0.59161250  0.64951150  0.51723500  1
  C  909  1  0.64603650  0.60141650  0.58273700  1
  C  910  1  0.65824400  0.56968800  0.61081400  1
  C  911  1  0.61743450  0.51154850  0.61971900  1
  C  912  1  0.56338250  0.48589450  0.60036500  1
  C  913  1  0.44682000  0.47858000  0.57202600  1
  C  914  1  0.40605250  0.42159150  0.56333800  1
  C  915  1  0.42906000  0.40131400  0.53454200  1
  C  916  1  0.48365950  0.44599550  0.52393700  1
  C  917  1  0.40688750  0.34654550  0.51734900  1
  C  918  1  0.44103200  0.33714300  0.48970500  1
  C  919  1  0.49667200  0.38203200  0.47892300  1
  C  920  1  0.51757250  0.43718250  0.49576100  1
  C  921  1  0.43517650  0.51024550  0.60039200  1
  C  922  1  0.38113000  0.48462000  0.61975200  1
  C  923  1  0.34031800  0.42647000  0.61088700  1
  C  924  1  0.35252500  0.39469700  0.58284900  1
  C  937  1  0.49925100  0.49805000  0.54773100  1
  C  938  1  0.53021450  0.37235050  0.45062500  1
  C  939  1  0.36936200  0.51636300  0.64852200  1
  C  940  1  0.46814150  0.62359650  0.45060300  1
  C  941  1  0.62921000  0.47987200  0.64854300  1
  C  946  1  0.96639800  0.44589600  0.90532780  1
  C  947  1  0.98260150  0.40511050  0.89664400  1
  C  948  1  0.02596650  0.42814150  0.86790400  1
  C  949  1  0.03600600  0.48280400  0.85737000  1
  C  950  1  0.07870900  0.51668300  0.82916600  1
  C  951  1  0.11289050  0.49572550  0.81229500  1
  C  952  1  0.10207450  0.44005450  0.82305100  1
  C  953  1  0.05850800  0.40592100  0.85068900  1
  C  954  1  0.95587950  0.35154250  0.91609680  1
  C  955  1  0.91183750  0.33931750  0.94408380  1
  C  956  1  0.89451800  0.38014300  0.95294580  1
  C  957  1  0.92298800  0.43420800  0.93361580  1
  C  958  1  0.03236000  0.55079800  0.90539080  1
  C  959  1  0.01615850  0.59156450  0.89664700  1
  C  960  1  0.97295000  0.56856200  0.86779500  1
  C  961  1  0.96305000  0.51396400  0.85721900  1
  C  962  1  0.94037300  0.59072900  0.85055900  1
  C  963  1  0.89681650  0.55654050  0.82293400  1
  C  964  1  0.88608300  0.50089900  0.81217400  1
  C  965  1  0.92037200  0.48004100  0.82901300  1
  C  966  1  0.07557600  0.56242900  0.93383580  1
  C  967  1  0.10391450  0.61646050  0.95322280  1
  C  968  1  0.08659800  0.65727200  0.94429680  1
  C  969  1  0.04272400  0.64508400  0.91616880  1
  C  982  1  0.99945600  0.49836600  0.88108500  1
  C  983  1  0.84281900  0.46731700  0.78391600  1
  C  984  1  0.14733200  0.62822600  0.98207380  1
  C  985  1  0.15611050  0.52923850  0.78398200  1
  C  986  1  0.85097550  0.36835150  0.98169380  1
  C  991  1  0.47967600  0.03103200  0.23857000  1
  C  992  1  0.42271100  0.01478500  0.22977400  1
  C  993  1  0.40256950  0.97155550  0.20093800  1
  C  994  1  0.44727700  0.96160100  0.19049800  1
  C  995  1  0.43861800  0.91894400  0.16230000  1
  C  996  1  0.38349500  0.88459000  0.14544600  1
  C  997  1  0.33853250  0.89527250  0.15613700  1
  C  998  1  0.34783400  0.93886400  0.18371400  1
  C  999  1  0.39570200  0.04133800  0.24923900  1
  C  1000  1  0.42732550  0.08523350  0.27736800  1
  C  1001  1  0.48544700  0.10259100  0.28634600  1
  C  1002  1  0.51120400  0.07428200  0.26700600  1
  C  1003  1  0.51872500  0.96515300  0.23864200  1
  C  1004  1  0.57573450  0.98140850  0.22998500  1
  C  1005  1  0.59603250  0.02471050  0.20120000  1
  C  1006  1  0.55137500  0.03466900  0.19061500  1
  C  1007  1  0.65080200  0.05729600  0.18400600  1
  C  1008  1  0.66020400  0.10082300  0.15634200  1
  C  1009  1  0.61531400  0.11156200  0.14554000  1
  C  1010  1  0.56016300  0.07732900  0.16238700  1
  C  1011  1  0.48705300  0.92184100  0.26700500  1
  C  1012  1  0.51269450  0.89345550  0.28639200  1
  C  1013  1  0.57085500  0.91081400  0.27755200  1
  C  1014  1  0.60263150  0.95478750  0.24950900  1
  C  1027  1  0.49926500  0.99811900  0.21434000  1
  C  1028  1  0.62496200  0.15476000  0.11723100  1
  C  1029  1  0.48097000  0.84996200  0.31517800  1
  C  1030  1  0.37387800  0.84125500  0.11727300  1
  C  1031  1  0.51702250  0.14599450  0.31522200  1
  C  1036  1  0.54652800  0.28858200  0.34775700  1
  C  1037  1  0.52913200  0.22949200  0.35168300  1
  C  1038  1  0.51995200  0.20710800  0.39125400  1
  C  1040  1  0.53953400  0.29632900  0.41912900  1
  C  1043  1  0.55921400  0.32005000  0.30912300  1
  C  1051  1  0.74247550  0.45061550  0.68109300  1
  C  1052  1  0.70057650  0.46774850  0.68501800  1
  C  1053  1  0.68732450  0.47682850  0.72459900  1
  C  1055  1  0.75726800  0.45765800  0.75247700  1
  C  1058  1  0.76138200  0.43805800  0.64246100  1
  C  1066  1  0.70850950  0.25506550  0.01427800  1
  C  1067  1  0.76756800  0.29692400  0.01815800  1
  C  1068  1  0.79001950  0.31008350  0.05771500  1
  C  1070  1  0.70096800  0.24014000  0.08562900  1
  C  1073  1  0.67693850  0.23632050  0.97567880  1
  C  1081  1  0.45162550  0.70738950  0.34770200  1
  C  1082  1  0.46878700  0.76643200  0.35161400  1
  C  1083  1  0.47810900  0.78882300  0.39119500  1
  C  1085  1  0.45888850  0.69970250  0.41904400  1
  C  1088  1  0.43888550  0.67591650  0.30906800  1
  C  1096  1  0.25625600  0.54582900  0.68107200  1
  C  1097  1  0.29802400  0.52852800  0.68498200  1
  C  1098  1  0.31134750  0.51945750  0.72454800  1
  C  1100  1  0.24155850  0.53885450  0.75245600  1
  C  1103  1  0.23741000  0.55845700  0.64244300  1
  C  1111  1  0.29003400  0.74116400  0.01451600  1
  C  1112  1  0.23094750  0.69948750  0.01850700  1
  C  1113  1  0.20869000  0.68614000  0.05810600  1
  C  1115  1  0.29803850  0.75575850  0.08591200  1
  C  1118  1  0.32138800  0.76000200  0.97584480  1
  H  25  1  0.30159600  0.40615900  0.07723700  1
  H  26  1  0.32278750  0.35289950  0.02865200  1
  H  27  1  0.36710350  0.31379750  0.97694100  1
  H  28  1  0.42448300  0.29723300  0.92894800  1
  H  29  1  0.55777650  0.47013450  0.94077300  1
  H  30  1  0.46556600  0.55208800  0.05767800  1
  H  31  1  0.44065450  0.52591750  0.94079900  1
  H  32  1  0.57395300  0.69879800  0.92884800  1
  H  33  1  0.63140500  0.68226800  0.97680200  1
  H  34  1  0.53297400  0.44408200  0.05771100  1
  H  35  1  0.67577600  0.64320400  0.02851000  1
  H  36  1  0.69698150  0.59001350  0.07714300  1
  H  70  1  0.10495850  0.69598850  0.41065000  1
  H  71  1  0.03067000  0.67481600  0.36193600  1
  H  72  1  0.94736100  0.63048900  0.31015900  1
  H  73  1  0.87344500  0.57307000  0.26216500  1
  H  74  1  0.91307400  0.43980200  0.27409900  1
  H  75  1  0.08701350  0.53204150  0.39116700  1
  H  76  1  0.08598650  0.55689650  0.27418400  1
  H  77  1  0.12536800  0.42345500  0.26225800  1
  H  78  1  0.05137000  0.36608300  0.31021900  1
  H  79  1  0.91159600  0.46463200  0.39093500  1
  H  80  1  0.96793500  0.32180000  0.36190900  1
  H  81  1  0.89339500  0.30058000  0.41041200  1
  H  115  1  0.59117050  0.89241750  0.74391100  1
  H  116  1  0.64444200  0.96687400  0.69533800  1
  H  117  1  0.68353450  0.05022950  0.64358200  1
  H  118  1  0.70011050  0.12416450  0.59557500  1
  H  119  1  0.52720300  0.08455700  0.60737400  1
  H  120  1  0.44521500  0.91039300  0.72429200  1
  H  121  1  0.47158550  0.91166350  0.60744700  1
  H  122  1  0.29863850  0.87181450  0.59537400  1
  H  123  1  0.31503200  0.94584200  0.64325000  1
  H  124  1  0.55301100  0.08571100  0.72440400  1
  H  125  1  0.35391900  0.02925500  0.69496800  1
  H  126  1  0.40692800  0.10358200  0.74368400  1
  H  142  1  0.50435600  0.16439400  0.84823200  1
  H  144  1  0.55909800  0.29450200  0.73543100  1
  H  145  1  0.60166700  0.35836700  0.76250700  1
  H  146  1  0.52739150  0.33315950  0.75551500  1
  H  148  1  0.48744750  0.19876350  0.75150500  1
  H  150  1  0.51959400  0.30042000  0.92831200  1
  H  157  1  0.66008950  0.49228550  0.18159000  1
  H  159  1  0.73584450  0.43796850  0.06877200  1
  H  160  1  0.75752150  0.39572150  0.09586400  1
  H  161  1  0.80624850  0.47006850  0.08883400  1
  H  163  1  0.71154800  0.50943800  0.08484000  1
  H  165  1  0.78150400  0.47807600  0.26152600  1
  H  172  1  0.83274200  0.33725000  0.51462400  1
  H  174  1  0.70237400  0.26185400  0.40198400  1
  H  175  1  0.63855400  0.24033000  0.42917900  1
  H  176  1  0.66392650  0.19142750  0.42198900  1
  H  178  1  0.79824050  0.28598250  0.41797000  1
  H  180  1  0.69704400  0.21616000  0.59476500  1
  H  187  1  0.49370400  0.83154600  0.84814000  1
  H  189  1  0.43882550  0.70141250  0.73539900  1
  H  190  1  0.39649450  0.63751850  0.76250900  1
  H  191  1  0.47078650  0.66293150  0.75537800  1
  H  193  1  0.51059150  0.79720850  0.75149600  1
  H  195  1  0.47876450  0.69562050  0.92820400  1
  H  202  1  0.33826450  0.50361750  0.18150000  1
  H  204  1  0.26284200  0.55836900  0.06874200  1
  H  205  1  0.24147450  0.60087850  0.09582200  1
  H  206  1  0.19248600  0.52658000  0.08885200  1
  H  208  1  0.28698250  0.48670750  0.08485800  1
  H  210  1  0.21736100  0.51842300  0.26157700  1
  H  217  1  0.16593800  0.65927400  0.51511800  1
  H  219  1  0.29575850  0.73462050  0.40216200  1
  H  220  1  0.35970000  0.75584500  0.42912200  1
  H  221  1  0.33450350  0.80495050  0.42229900  1
  H  223  1  0.20011700  0.71059500  0.41842200  1
  H  225  1  0.30194800  0.77989600  0.59502100  1
  H  925  1  0.30159600  0.40615900  0.62540000  1
  H  926  1  0.32278750  0.35289950  0.57681500  1
  H  927  1  0.36710350  0.31379750  0.52510400  1
  H  928  1  0.42448300  0.29723300  0.47711100  1
  H  929  1  0.55777650  0.47013450  0.48893600  1
  H  930  1  0.46556600  0.55208800  0.60584100  1
  H  931  1  0.44065450  0.52591750  0.48896200  1
  H  932  1  0.57395300  0.69879800  0.47701100  1
  H  933  1  0.63140500  0.68226800  0.52496500  1
  H  934  1  0.53297400  0.44408200  0.60587400  1
  H  935  1  0.67577600  0.64320400  0.57667300  1
  H  936  1  0.69698150  0.59001350  0.62530600  1
  H  970  1  0.10495850  0.69598850  0.95881280  1
  H  971  1  0.03067000  0.67481600  0.91009880  1
  H  972  1  0.94736100  0.63048900  0.85832200  1
  H  973  1  0.87344500  0.57307000  0.81032800  1
  H  974  1  0.91307400  0.43980200  0.82226200  1
  H  975  1  0.08701350  0.53204150  0.93932980  1
  H  976  1  0.08598650  0.55689650  0.82234700  1
  H  977  1  0.12536800  0.42345500  0.81042100  1
  H  978  1  0.05137000  0.36608300  0.85838200  1
  H  979  1  0.91159600  0.46463200  0.93909780  1
  H  980  1  0.96793500  0.32180000  0.91007180  1
  H  981  1  0.89339500  0.30058000  0.95857480  1
  H  1015  1  0.59117050  0.89241750  0.29207400  1
  H  1016  1  0.64444200  0.96687400  0.24350100  1
  H  1017  1  0.68353450  0.05022950  0.19174500  1
  H  1018  1  0.70011050  0.12416450  0.14373800  1
  H  1019  1  0.52720300  0.08455700  0.15553700  1
  H  1020  1  0.44521500  0.91039300  0.27245500  1
  H  1021  1  0.47158550  0.91166350  0.15561000  1
  H  1022  1  0.29863850  0.87181450  0.14353700  1
  H  1023  1  0.31503200  0.94584200  0.19141300  1
  H  1024  1  0.55301100  0.08571100  0.27256700  1
  H  1025  1  0.35391900  0.02925500  0.24313100  1
  H  1026  1  0.40692800  0.10358200  0.29184700  1
  H  1042  1  0.50435600  0.16439400  0.39639500  1
  H  1044  1  0.55909800  0.29450200  0.28359400  1
  H  1045  1  0.60166700  0.35836700  0.31067000  1
  H  1046  1  0.52739150  0.33315950  0.30367800  1
  H  1048  1  0.48744750  0.19876350  0.29966800  1
  H  1050  1  0.51959400  0.30042000  0.47647500  1
  H  1057  1  0.66008950  0.49228550  0.72975300  1
  H  1059  1  0.73584450  0.43796850  0.61693500  1
  H  1060  1  0.75752150  0.39572150  0.64402700  1
  H  1061  1  0.80624850  0.47006850  0.63699700  1
  H  1063  1  0.71154800  0.50943800  0.63300300  1
  H  1065  1  0.78150400  0.47807600  0.80968900  1
  H  1072  1  0.83274200  0.33725000  0.06278700  1
  H  1074  1  0.70237400  0.26185400  0.95014680  1
  H  1075  1  0.63855400  0.24033000  0.97734180  1
  H  1076  1  0.66392650  0.19142750  0.97015180  1
  H  1078  1  0.79824050  0.28598250  0.96613280  1
  H  1080  1  0.69704400  0.21616000  0.14292800  1
  H  1087  1  0.49370400  0.83154600  0.39630300  1
  H  1089  1  0.43882550  0.70141250  0.28356200  1
  H  1090  1  0.39649450  0.63751850  0.31067200  1
  H  1091  1  0.47078650  0.66293150  0.30354100  1
  H  1093  1  0.51059150  0.79720850  0.29965900  1
  H  1095  1  0.47876450  0.69562050  0.47636700  1
  H  1102  1  0.33826450  0.50361750  0.72966300  1
  H  1104  1  0.26284200  0.55836900  0.61690500  1
  H  1105  1  0.24147450  0.60087850  0.64398500  1
  H  1106  1  0.19248600  0.52658000  0.63701500  1
  H  1108  1  0.28698250  0.48670750  0.63302100  1
  H  1110  1  0.21736100  0.51842300  0.80974000  1
  H  1117  1  0.16593800  0.65927400  0.06328100  1
  H  1119  1  0.29575850  0.73462050  0.95032480  1
  H  1120  1  0.35970000  0.75584500  0.97728480  1
  H  1121  1  0.33450350  0.80495050  0.97046180  1
  H  1123  1  0.20011700  0.71059500  0.96658480  1
  H  1125  1  0.30194800  0.77989600  0.14318400  1
  N  139  1  0.52433600  0.24029000  0.87495000  1
  N  141  1  0.55013600  0.31895400  0.83323200  1
  N  147  1  0.51085200  0.19292400  0.77127500  1
  N  149  1  0.53306350  0.32324950  0.90366500  1
  N  154  1  0.71625400  0.47263200  0.20828200  1
  N  156  1  0.76935400  0.44718400  0.16656200  1
  N  162  1  0.68228950  0.48598350  0.10458500  1
  N  164  1  0.79088200  0.46447400  0.23694600  1
  N  169  1  0.75696800  0.28110200  0.54141200  1
  N  171  1  0.67825650  0.22815750  0.49975900  1
  N  177  1  0.80396350  0.31528550  0.43765200  1
  N  179  1  0.67413650  0.20663050  0.57014000  1
  N  184  1  0.47397100  0.75570800  0.87487000  1
  N  186  1  0.44820900  0.67706400  0.83315600  1
  N  192  1  0.48710150  0.80300850  0.77121500  1
  N  194  1  0.46547800  0.67278900  0.90354200  1
  N  199  1  0.28240600  0.52364900  0.20822700  1
  N  201  1  0.22947800  0.54938100  0.16655600  1
  N  207  1  0.31628000  0.51024900  0.10455200  1
  N  209  1  0.20803150  0.53202150  0.23697900  1
  N  214  1  0.24197000  0.71498400  0.54175300  1
  N  216  1  0.32050800  0.76784200  0.49997300  1
  N  222  1  0.19428000  0.68130900  0.43815200  1
  N  224  1  0.32492200  0.78920400  0.57045600  1
  N  1039  1  0.52433600  0.24029000  0.42311300  1
  N  1041  1  0.55013600  0.31895400  0.38139500  1
  N  1047  1  0.51085200  0.19292400  0.31943800  1
  N  1049  1  0.53306350  0.32324950  0.45182800  1
  N  1054  1  0.71625400  0.47263200  0.75644500  1
  N  1056  1  0.76935400  0.44718400  0.71472500  1
  N  1062  1  0.68228950  0.48598350  0.65274800  1
  N  1064  1  0.79088200  0.46447400  0.78510900  1
  N  1069  1  0.75696800  0.28110200  0.08957500  1
  N  1071  1  0.67825650  0.22815750  0.04792200  1
  N  1077  1  0.80396350  0.31528550  0.98581480  1
  N  1079  1  0.67413650  0.20663050  0.11830300  1
  N  1084  1  0.47397100  0.75570800  0.42303300  1
  N  1086  1  0.44820900  0.67706400  0.38131900  1
  N  1092  1  0.48710150  0.80300850  0.31937800  1
  N  1094  1  0.46547800  0.67278900  0.45170500  1
  N  1099  1  0.28240600  0.52364900  0.75639000  1
  N  1101  1  0.22947800  0.54938100  0.71471900  1
  N  1107  1  0.31628000  0.51024900  0.65271500  1
  N  1109  1  0.20803150  0.53202150  0.78514200  1
  N  1114  1  0.24197000  0.71498400  0.08991600  1
  N  1116  1  0.32050800  0.76784200  0.04813600  1
  N  1122  1  0.19428000  0.68130900  0.98631480  1
  N  1124  1  0.32492200  0.78920400  0.11861900  1
  O  42  1  0.41340650  0.55570250  0.12306500  1
  O  43  1  0.55168200  0.40952000  0.87117300  1
  O  44  1  0.44750600  0.58680900  0.87089700  1
  O  45  1  0.58516250  0.44054050  0.12308900  1
  O  87  1  0.14260650  0.58415650  0.45659600  1
  O  88  1  0.85830600  0.44545800  0.20458500  1
  O  89  1  0.14050700  0.55094600  0.20462800  1
  O  90  1  0.85564500  0.41236900  0.45625000  1
  O  132  1  0.44163400  0.85466300  0.78972600  1
  O  133  1  0.58799600  0.13876000  0.53763800  1
  O  134  1  0.41114200  0.85680200  0.53788800  1
  O  135  1  0.55633200  0.14128600  0.78979800  1
  O  942  1  0.41340650  0.55570250  0.67122800  1
  O  943  1  0.55168200  0.40952000  0.41933600  1
  O  944  1  0.44750600  0.58680900  0.41906000  1
  O  945  1  0.58516250  0.44054050  0.67125200  1
  O  987  1  0.14260650  0.58415650  0.00475900  1
  O  988  1  0.85830600  0.44545800  0.75274800  1
  O  989  1  0.14050700  0.55094600  0.75279100  1
  O  990  1  0.85564500  0.41236900  0.00441300  1
  O  1032  1  0.44163400  0.85466300  0.33788900  1
  O  1033  1  0.58799600  0.13876000  0.08580100  1
  O  1034  1  0.41114200  0.85680200  0.08605100  1
  O  1035  1  0.55633200  0.14128600  0.33796100  1
