# generated using pymatgen
data_H14C22N2O
_symmetry_space_group_name_H-M   'P 1'
_cell_length_a   9.97533333
_cell_length_b   45.66350000
_cell_length_c   45.66350000
_cell_angle_alpha   120.00000000
_cell_angle_beta   90.00000000
_cell_angle_gamma   90.00000000
_symmetry_Int_Tables_number   1
_chemical_formula_structural   H14C22N2O
_chemical_formula_sum   'H84 C132 N12 O6'
_cell_volume   18013.43101704
_cell_formula_units_Z   6
loop_
 _symmetry_equiv_pos_site_id
 _symmetry_equiv_pos_as_xyz
  1  'x, y, z'
loop_
 _atom_site_type_symbol
 _atom_site_label
 _atom_site_symmetry_multiplicity
 _atom_site_fract_x
 _atom_site_fract_y
 _atom_site_fract_z
 _atom_site_occupancy
  C  1  1  0.99321500  0.98807000  0.01977300  1
  C  2  1  0.98727500  0.98930800  0.96735300  1
  C  13  1  0.99093900  0.97014100  0.98395300  1
  C  16  1  0.99275400  0.02389200  0.03888900  1
  C  17  1  0.98795600  0.02508300  0.98529300  1
  C  18  1  0.98983000  0.04187400  0.02105200  1
  C  19  1  0.99772000  0.93388100  0.96505000  1
  C  20  1  0.92600900  0.91355400  0.97509100  1
  C  21  1  0.93575300  0.87800000  0.95679000  1
  C  22  1  0.01865500  0.86131000  0.92785600  1
  C  23  1  0.08748400  0.88151200  0.91726900  1
  C  24  1  0.07828300  0.91699800  0.93563800  1
  C  25  1  0.00088200  0.04145700  0.07509600  1
  C  26  1  0.08957500  0.03057500  0.09197300  1
  C  27  1  0.09953100  0.04808700  0.12747100  1
  C  28  1  0.02228600  0.07743500  0.14759900  1
  C  29  1  0.93126100  0.08793000  0.13088400  1
  C  30  1  0.92148800  0.07042600  0.09532600  1
  C  31  1  0.99365500  0.04358500  0.96764400  1
  C  32  1  0.91013500  0.07193700  0.97668000  1
  C  33  1  0.91784300  0.09022900  0.95937700  1
  C  34  1  0.01149800  0.08121500  0.93296600  1
  C  35  1  0.09371700  0.05264800  0.92359900  1
  C  36  1  0.08497100  0.03418900  0.94063100  1
  C  50  1  0.98400700  0.55691400  0.80569700  1
  C  51  1  0.97961100  0.59254800  0.82202100  1
  C  52  1  0.98064700  0.60957000  0.80318700  1
  C  53  1  0.98317400  0.58995000  0.76734500  1
  C  54  1  0.98656300  0.55420600  0.75031500  1
  C  55  1  0.98548900  0.53827000  0.77003600  1
  C  56  1  0.98700000  0.64565100  0.82004500  1
  C  57  1  0.90111700  0.66610300  0.84745600  1
  C  58  1  0.91085600  0.70165100  0.86455800  1
  C  59  1  0.00890800  0.71808700  0.85543200  1
  C  60  1  0.09384600  0.69753900  0.82778500  1
  C  61  1  0.08286900  0.66207000  0.81038000  1
  C  62  1  0.99084500  0.53906400  0.82371900  1
  C  63  1  0.88146400  0.53882700  0.84323200  1
  C  64  1  0.87612600  0.51506100  0.85434400  1
  C  65  1  0.97975200  0.49094000  0.84645200  1
  C  66  1  0.09333000  0.49316200  0.82898100  1
  C  67  1  0.09841800  0.51658400  0.81760300  1
  C  68  1  0.99185600  0.53390300  0.71432000  1
  C  69  1  0.08189700  0.50630600  0.69887500  1
  C  70  1  0.07413700  0.48275900  0.66416100  1
  C  71  1  0.97678800  0.48596800  0.64336900  1
  C  72  1  0.89314700  0.51491800  0.65836000  1
  C  73  1  0.90022900  0.53848000  0.69328800  1
  C  89  1  0.98571000  0.25767000  0.45208200  1
  C  90  1  0.98097400  0.23860600  0.41643300  1
  C  91  1  0.98511900  0.20276700  0.39917100  1
  C  92  1  0.99080800  0.18624100  0.41847400  1
  C  93  1  0.99384600  0.20470800  0.45423400  1
  C  94  1  0.98995100  0.24037600  0.47044700  1
  C  95  1  0.99152100  0.18390000  0.36311500  1
  C  96  1  0.89945400  0.18958700  0.34289500  1
  C  97  1  0.90888600  0.17148200  0.30733000  1
  C  98  1  0.01301200  0.14776000  0.29073000  1
  C  99  1  0.10456200  0.14202600  0.31105900  1
  C  100  1  0.09361600  0.15960100  0.34654200  1
  C  101  1  0.99055800  0.29357600  0.47023300  1
  C  102  1  0.87980800  0.31308200  0.47073600  1
  C  103  1  0.87331400  0.34790100  0.49468600  1
  C  104  1  0.97723000  0.36434000  0.51866300  1
  C  105  1  0.09191600  0.34487700  0.51620400  1
  C  106  1  0.09823800  0.31013300  0.49259900  1
  C  107  1  0.00075100  0.18881200  0.47434000  1
  C  108  1  0.09025700  0.20117600  0.50206100  1
  C  109  1  0.08284900  0.18999800  0.52561200  1
  C  110  1  0.98610800  0.16584000  0.52233900  1
  C  111  1  0.90329300  0.15163000  0.49322700  1
  C  112  1  0.91008400  0.16298800  0.46965300  1
  C  128  1  0.98681800  0.20371400  0.75105800  1
  C  129  1  0.98186700  0.18739300  0.77037900  1
  C  130  1  0.98242800  0.20622200  0.80625100  1
  C  131  1  0.98474900  0.24206400  0.82243300  1
  C  132  1  0.98876000  0.25910000  0.80373800  1
  C  133  1  0.98826700  0.23937700  0.76808100  1
  C  134  1  0.98788700  0.18946900  0.82561400  1
  C  135  1  0.90334700  0.16173500  0.81831900  1
  C  136  1  0.91155300  0.14496400  0.83711200  1
  C  137  1  0.00645700  0.15478300  0.86348900  1
  C  138  1  0.08997800  0.18276100  0.87091400  1
  C  139  1  0.08080900  0.19975700  0.85241900  1
  C  140  1  0.99378600  0.18573400  0.71516700  1
  C  141  1  0.88402100  0.16651400  0.69535200  1
  C  142  1  0.87905200  0.15552200  0.66049200  1
  C  143  1  0.98329100  0.16330600  0.64432400  1
  C  144  1  0.09700500  0.18057400  0.66409800  1
  C  145  1  0.10179600  0.19181100  0.69888500  1
  C  146  1  0.99405600  0.29510400  0.81950200  1
  C  147  1  0.08365600  0.31061800  0.80733200  1
  C  148  1  0.07645800  0.34540000  0.81879600  1
  C  149  1  0.98000200  0.36619100  0.84310000  1
  C  150  1  0.89666300  0.35110000  0.85700800  1
  C  151  1  0.90332900  0.31611900  0.84538200  1
  C  167  1  0.02115800  0.75408000  0.87351600  1
  C  168  1  0.14521800  0.77101600  0.87911700  1
  C  169  1  0.15136800  0.80680000  0.89727100  1
  C  170  1  0.02969200  0.82526400  0.90965000  1
  C  174  1  0.27557400  0.82278100  0.90457000  1
  C  175  1  0.34617900  0.82690900  0.93415500  1
  C  180  1  0.02489600  0.13026400  0.25475700  1
  C  181  1  0.14968000  0.12251400  0.23786600  1
  C  182  1  0.15569900  0.10500000  0.20208100  1
  C  183  1  0.03315600  0.09552600  0.18363400  1
  C  187  1  0.27861700  0.10018800  0.18598300  1
  C  188  1  0.38380600  0.08106600  0.19077900  1
  C  193  1  0.01728100  0.13686200  0.88163000  1
  C  194  1  0.13935400  0.13280600  0.89495700  1
  C  195  1  0.14397500  0.11429400  0.91222100  1
  C  196  1  0.02253400  0.10039800  0.91626600  1
  C  200  1  0.26299900  0.11206700  0.92676400  1
  C  201  1  0.37781100  0.09510000  0.90540200  1
  C  206  1  0.96418800  0.39793900  0.54683400  1
  C  207  1  0.84054800  0.41238300  0.56264600  1
  C  208  1  0.83697800  0.44298600  0.59414900  1
  C  209  1  0.96065800  0.45894300  0.60933400  1
  C  213  1  0.71511800  0.45463600  0.61077000  1
  C  214  1  0.66359500  0.43943500  0.62978800  1
  C  219  1  0.97137500  0.15777600  0.61065900  1
  C  220  1  0.84818200  0.15880100  0.59585500  1
  C  221  1  0.84539000  0.15943600  0.56511300  1
  C  222  1  0.96945500  0.15891800  0.54942500  1
  C  226  1  0.72379000  0.16401900  0.55312800  1
  C  227  1  0.66824400  0.19778900  0.56795300  1
  C  232  1  0.96710600  0.46285300  0.85200500  1
  C  233  1  0.84352100  0.44709100  0.85079600  1
  C  234  1  0.84010100  0.41558200  0.84986700  1
  C  235  1  0.96388200  0.40030300  0.85036900  1
  C  239  1  0.71827600  0.39906300  0.84506100  1
  C  240  1  0.66546200  0.37991400  0.81095900  1
  H  3  1  0.99728400  0.97471600  0.03226700  1
  H  4  1  0.98229200  0.97693700  0.94150100  1
  H  37  1  0.16325700  0.03886400  0.13847600  1
  H  38  1  0.15017000  0.01002100  0.07853700  1
  H  39  1  0.87284700  0.10890900  0.14447100  1
  H  40  1  0.85423600  0.07892100  0.08433500  1
  H  41  1  0.84165500  0.07934000  0.99578800  1
  H  42  1  0.85668700  0.11076000  0.96683000  1
  H  43  1  0.14848700  0.01413700  0.93349800  1
  H  44  1  0.16052000  0.04485600  0.90410400  1
  H  45  1  0.13355500  0.93040900  0.92746500  1
  H  46  1  0.14469100  0.87059700  0.89580900  1
  H  47  1  0.88332800  0.86439100  0.96523100  1
  H  48  1  0.86441600  0.92445000  0.99576500  1
  H  49  1  0.99590600  0.06772100  0.03430800  1
  H  74  1  0.79236400  0.51469400  0.86705300  1
  H  75  1  0.80019900  0.55406200  0.84718800  1
  H  76  1  0.16960900  0.47594100  0.82184400  1
  H  77  1  0.17789800  0.51564300  0.80295100  1
  H  78  1  0.15042600  0.50213900  0.71309000  1
  H  79  1  0.13591100  0.46210300  0.65469200  1
  H  80  1  0.83226100  0.55785300  0.70352600  1
  H  81  1  0.82291400  0.51856500  0.64418400  1
  H  82  1  0.14839200  0.64829000  0.79103000  1
  H  83  1  0.16423600  0.70815800  0.81965300  1
  H  84  1  0.84766000  0.71540100  0.88446900  1
  H  85  1  0.82967100  0.65525900  0.85509500  1
  H  86  1  0.98237700  0.60616200  0.84790100  1
  H  87  1  0.98468900  0.51236900  0.75817000  1
  H  88  1  0.98473300  0.60184300  0.75337500  1
  H  113  1  0.78882400  0.36080700  0.49518100  1
  H  114  1  0.79858000  0.30164800  0.45554800  1
  H  115  1  0.16849700  0.35508700  0.53331700  1
  H  116  1  0.17869000  0.29659800  0.49337700  1
  H  117  1  0.15785000  0.21978300  0.50636000  1
  H  118  1  0.14374900  0.20144200  0.54641700  1
  H  119  1  0.84251300  0.15368300  0.45018800  1
  H  120  1  0.83367600  0.13365200  0.48949100  1
  H  121  1  0.16333300  0.15503400  0.36022700  1
  H  122  1  0.17976800  0.12460600  0.30022800  1
  H  123  1  0.84095400  0.17660500  0.29369100  1
  H  124  1  0.82372000  0.20682600  0.35393400  1
  H  125  1  0.98159100  0.25105300  0.40298400  1
  H  126  1  0.98903800  0.25421900  0.49635800  1
  H  127  1  0.99474400  0.16037900  0.40633300  1
  H  152  1  0.79528100  0.14288300  0.64736000  1
  H  153  1  0.80260900  0.16250700  0.70655100  1
  H  154  1  0.17357800  0.18774500  0.65412400  1
  H  155  1  0.18134900  0.20638100  0.71264800  1
  H  156  1  0.15187900  0.29644700  0.78884200  1
  H  157  1  0.13795500  0.35494000  0.80762600  1
  H  158  1  0.83570600  0.30585300  0.85456700  1
  H  159  1  0.82716100  0.36527400  0.87506100  1
  H  160  1  0.14526700  0.21938600  0.85833700  1
  H  161  1  0.15796000  0.19148100  0.89023400  1
  H  162  1  0.84945500  0.12478900  0.83063300  1
  H  163  1  0.83380100  0.15364400  0.79936000  1
  H  164  1  0.98475400  0.16151900  0.75810900  1
  H  165  1  0.98773100  0.25124800  0.75405100  1
  H  166  1  0.98564000  0.25605800  0.84829600  1
  H  173  1  0.23216300  0.75731800  0.87102500  1
  H  176  1  0.28003500  0.83748700  0.95615800  1
  H  177  1  0.43029100  0.84426700  0.94001000  1
  H  178  1  0.38466700  0.80262900  0.92970300  1
  H  186  1  0.23631800  0.13076000  0.25166300  1
  H  189  1  0.43419600  0.09649700  0.21498100  1
  H  190  1  0.45773800  0.07288400  0.17055300  1
  H  191  1  0.34291600  0.05854000  0.19007000  1
  H  199  1  0.22587200  0.14284300  0.89164700  1
  H  202  1  0.34735200  0.07177000  0.88281100  1
  H  203  1  0.44966800  0.08849700  0.91919900  1
  H  204  1  0.42747900  0.11145700  0.89766600  1
  H  212  1  0.75327800  0.39933100  0.55279200  1
  H  215  1  0.62738200  0.41385200  0.61271000  1
  H  216  1  0.58074800  0.45453900  0.64587500  1
  H  217  1  0.74118200  0.43835400  0.64609700  1
  H  225  1  0.76039000  0.16168200  0.60862300  1
  H  228  1  0.62932300  0.20594000  0.59323300  1
  H  229  1  0.58666200  0.19820200  0.55222800  1
  H  230  1  0.74444500  0.21576100  0.56969100  1
  H  238  1  0.75612000  0.45704900  0.84780900  1
  H  241  1  0.62831900  0.39691600  0.80244900  1
  H  242  1  0.58312300  0.36379000  0.81018200  1
  H  243  1  0.74272100  0.36362200  0.79343100  1
  N  171  1  0.91507200  0.80694700  0.90368800  1
  N  172  1  0.91091200  0.77388200  0.88695400  1
  N  184  1  0.91750800  0.10461200  0.20191400  1
  N  185  1  0.91342300  0.12080200  0.23498300  1
  N  197  1  0.90922300  0.10555500  0.90289300  1
  N  198  1  0.90694200  0.12240900  0.88666100  1
  N  210  1  0.07444300  0.44376700  0.59192300  1
  N  211  1  0.07616200  0.41556500  0.56302900  1
  N  223  1  0.08288900  0.15722400  0.56504800  1
  N  224  1  0.08386200  0.15668200  0.59333600  1
  N  236  1  0.07768000  0.41762800  0.85239800  1
  N  237  1  0.07925900  0.44655600  0.85315600  1
  O  179  1  0.34492600  0.81664100  0.88003000  1
  O  192  1  0.31544800  0.12412200  0.18297200  1
  O  205  1  0.28914400  0.13667400  0.95428200  1
  O  218  1  0.63202400  0.46211500  0.59588100  1
  O  231  1  0.64276000  0.14108400  0.54506200  1
  O  244  1  0.63441800  0.41389700  0.86725800  1
