# generated using pymatgen
data_H7C11N2O3
_symmetry_space_group_name_H-M   'P 1'
_cell_length_a   15.70180000
_cell_length_b   29.57670000
_cell_length_c   29.57670000
_cell_angle_alpha   90.00000000
_cell_angle_beta   90.00000000
_cell_angle_gamma   90.00000000
_symmetry_Int_Tables_number   1
_chemical_formula_structural   H7C11N2O3
_chemical_formula_sum   'H112 C176 N32 O48'
_cell_volume   13735.63917750
_cell_formula_units_Z   16
loop_
 _symmetry_equiv_pos_site_id
 _symmetry_equiv_pos_as_xyz
  1  'x, y, z'
loop_
 _atom_site_type_symbol
 _atom_site_label
 _atom_site_symmetry_multiplicity
 _atom_site_fract_x
 _atom_site_fract_y
 _atom_site_fract_z
 _atom_site_occupancy
  C  1  1  0.13359700  0.17836100  0.10650500  1
  C  2  1  0.17635400  0.20186700  0.07158800  1
  C  3  1  0.17951500  0.24952300  0.07090000  1
  C  4  1  0.14039800  0.27419800  0.10629400  1
  C  5  1  0.09740400  0.25148000  0.14190100  1
  C  6  1  0.09254300  0.20355200  0.14114600  1
  C  9  1  0.12982600  0.13012200  0.10531500  1
  C  10  1  0.08590100  0.10732500  0.07006400  1
  C  11  1  0.08261600  0.05950400  0.06919300  1
  C  12  1  0.12013300  0.03441800  0.10488400  1
  C  13  1  0.16451700  0.05653400  0.14039500  1
  C  14  1  0.16932900  0.10430700  0.13976400  1
  C  23  1  0.63746200  0.63065900  0.10466600  1
  C  24  1  0.67732100  0.60435500  0.13862300  1
  C  25  1  0.67326000  0.55655000  0.13837400  1
  C  26  1  0.62904100  0.53493800  0.10248400  1
  C  27  1  0.59079200  0.56051900  0.06736600  1
  C  28  1  0.59344000  0.60832400  0.06913300  1
  C  31  1  0.63739200  0.67888600  0.10764600  1
  C  32  1  0.59331500  0.70149500  0.14300800  1
  C  33  1  0.58931800  0.74934000  0.14396700  1
  C  34  1  0.62602400  0.77457300  0.10813900  1
  C  35  1  0.67023500  0.75261300  0.07251600  1
  C  36  1  0.67605600  0.70491700  0.07311000  1
  C  45  1  0.63122000  0.13261300  0.60655900  1
  C  46  1  0.59051000  0.10790000  0.57178800  1
  C  47  1  0.59049700  0.06017800  0.57165600  1
  C  48  1  0.63187700  0.03672300  0.60716400  1
  C  49  1  0.67191900  0.06080200  0.64277000  1
  C  50  1  0.67279500  0.10870600  0.64191800  1
  C  53  1  0.63349300  0.18079400  0.60452000  1
  C  54  1  0.67790200  0.20341300  0.56932700  1
  C  55  1  0.68185800  0.25122800  0.56849900  1
  C  56  1  0.64474100  0.27642900  0.60422600  1
  C  57  1  0.59998800  0.25439600  0.63962200  1
  C  58  1  0.59431900  0.20669600  0.63895600  1
  C  67  1  0.13731600  0.68032300  0.60542000  1
  C  68  1  0.09400200  0.70359500  0.64027500  1
  C  69  1  0.09004100  0.75123000  0.64089700  1
  C  70  1  0.12890300  0.77607100  0.60553800  1
  C  71  1  0.17239300  0.75349200  0.57002000  1
  C  72  1  0.17803000  0.70562000  0.57078400  1
  C  75  1  0.13927000  0.63211000  0.60562200  1
  C  76  1  0.18063500  0.60773900  0.64070800  1
  C  77  1  0.18039800  0.55981900  0.64067400  1
  C  78  1  0.14094700  0.53624300  0.60454400  1
  C  79  1  0.09975100  0.56019800  0.56931000  1
  C  80  1  0.09917200  0.60789500  0.57030100  1
  C  89  1  0.38299900  0.90736400  0.38011000  1
  C  90  1  0.33960300  0.87295800  0.40406800  1
  C  91  1  0.33873800  0.87215300  0.45176800  1
  C  92  1  0.37971900  0.90728200  0.47599300  1
  C  93  1  0.42327700  0.94233400  0.45278900  1
  C  94  1  0.42586100  0.94171800  0.40481900  1
  C  97  1  0.38309500  0.90677200  0.33182600  1
  C  98  1  0.42504500  0.87196100  0.30729900  1
  C  99  1  0.42127100  0.87050000  0.25933500  1
  C  100  1  0.37667100  0.90522700  0.23606700  1
  C  101  1  0.33649500  0.94079500  0.26005000  1
  C  102  1  0.33929700  0.94092700  0.30773200  1
  C  111  1  0.87732000  0.90363100  0.83079000  1
  C  112  1  0.83586000  0.93826600  0.80614200  1
  C  113  1  0.83678200  0.93897300  0.75837100  1
  C  114  1  0.87661200  0.90280300  0.73497100  1
  C  115  1  0.91817400  0.86751100  0.75883100  1
  C  116  1  0.91993800  0.86873200  0.80675700  1
  C  119  1  0.87674000  0.90448600  0.87908800  1
  C  120  1  0.91874800  0.93921300  0.90372600  1
  C  121  1  0.91605400  0.94006800  0.95171300  1
  C  122  1  0.87303400  0.90480100  0.97494000  1
  C  123  1  0.83289200  0.86934700  0.95082000  1
  C  124  1  0.83412700  0.86986400  0.90314100  1
  C  133  1  0.89041400  0.40731400  0.33123800  1
  C  134  1  0.93253600  0.37282100  0.30672800  1
  C  135  1  0.93011600  0.37144800  0.25901300  1
  C  136  1  0.88624800  0.40595500  0.23533300  1
  C  137  1  0.84387800  0.44097200  0.25913400  1
  C  138  1  0.84550800  0.44128400  0.30706100  1
  C  141  1  0.89080800  0.40638800  0.37952900  1
  C  142  1  0.84857100  0.37146800  0.40376100  1
  C  143  1  0.85061600  0.37031200  0.45172100  1
  C  144  1  0.89224500  0.40578600  0.47534100  1
  C  145  1  0.93186100  0.44184100  0.45171400  1
  C  146  1  0.93237000  0.44111100  0.40396400  1
  C  155  1  0.38349100  0.40391600  0.87975700  1
  C  156  1  0.42402100  0.43898100  0.90422600  1
  C  157  1  0.42366300  0.43977200  0.95200000  1
  C  158  1  0.38543900  0.40319900  0.97556300  1
  C  159  1  0.34479900  0.36746500  0.95189900  1
  C  160  1  0.34241800  0.36862200  0.90397200  1
  C  163  1  0.38424100  0.40455500  0.83145200  1
  C  164  1  0.34143900  0.43882200  0.80655400  1
  C  165  1  0.34496800  0.43962000  0.75858100  1
  C  166  1  0.38974500  0.40481600  0.73561300  1
  C  167  1  0.43074000  0.36982900  0.75999400  1
  C  168  1  0.42857300  0.37036300  0.80766700  1
  C  177  1  0.94982000  0.02634600  0.03936000  1
  C  178  1  0.03749100  0.03611100  0.03471000  1
  C  179  1  0.08107300  0.01480400  0.99876000  1
  C  181  1  0.95584600  0.97516700  0.97684700  1
  C  185  1  0.83538200  0.07211700  0.06229600  1
  C  189  1  0.45608700  0.78318800  0.17255600  1
  C  190  1  0.54331300  0.77272700  0.17817300  1
  C  191  1  0.58619300  0.79431200  0.21419400  1
  C  193  1  0.46126600  0.83518500  0.23445500  1
  C  197  1  0.34230900  0.73732100  0.14903000  1
  C  201  1  0.81536400  0.28393000  0.53910000  1
  C  202  1  0.72763600  0.27444900  0.53416100  1
  C  203  1  0.68471800  0.29574400  0.49798700  1
  C  205  1  0.81061400  0.33498400  0.47646000  1
  C  209  1  0.92902600  0.23798600  0.56280200  1
  C  213  1  0.31231500  0.52645500  0.67142800  1
  C  214  1  0.22394000  0.53495900  0.67468700  1
  C  215  1  0.17920300  0.51256600  0.70956200  1
  C  217  1  0.30484400  0.47436400  0.73314500  1
  C  221  1  0.42928600  0.57207900  0.65129000  1
  C  225  1  0.56338800  0.34407200  0.72366500  1
  C  226  1  0.47778000  0.33637500  0.73632700  1
  C  227  1  0.43643300  0.29872300  0.71680500  1
  C  229  1  0.56050400  0.27963800  0.67472100  1
  C  233  1  0.64539000  0.40996200  0.70909900  1
  C  237  1  0.20557500  0.84028700  0.48292400  1
  C  238  1  0.29445000  0.83770700  0.47554000  1
  C  239  1  0.33938700  0.80420500  0.49983600  1
  C  241  1  0.21228800  0.77913800  0.53548600  1
  C  245  1  0.12621300  0.90752900  0.48930800  1
  C  249  1  0.71305200  0.46414300  0.21918900  1
  C  250  1  0.79650300  0.47360000  0.23438000  1
  C  251  1  0.83522800  0.51333700  0.21766400  1
  C  253  1  0.71305200  0.53075900  0.17314700  1
  C  257  1  0.65090600  0.39415200  0.19964500  1
  C  261  1  0.45758900  0.02993500  0.53880300  1
  C  262  1  0.54686000  0.03596400  0.53726100  1
  C  263  1  0.59163300  0.01189600  0.50352500  1
  C  265  1  0.46415100  0.97686400  0.47805200  1
  C  269  1  0.35610500  0.08544200  0.55567100  1
  C  273  1  0.95545700  0.78026300  0.67277700  1
  C  274  1  0.04456000  0.77406300  0.67550900  1
  C  275  1  0.08785000  0.79757100  0.71015800  1
  C  277  1  0.95934800  0.83256500  0.73427100  1
  C  281  1  0.85704200  0.72427000  0.65293300  1
  C  285  1  0.31239800  0.27986300  0.03817000  1
  C  286  1  0.22352900  0.27259800  0.03588700  1
  C  287  1  0.17874200  0.29568800  0.00147500  1
  C  289  1  0.30537900  0.33205500  0.97666100  1
  C  293  1  0.41316700  0.22489200  0.05737600  1
  C  297  1  0.06320200  0.33891600  0.22824100  1
  C  298  1  0.97403400  0.33707800  0.23480600  1
  C  299  1  0.92920600  0.30350700  0.21053100  1
  C  301  1  0.05691800  0.27721300  0.17624900  1
  C  305  1  0.13826400  0.40729700  0.22161300  1
  C  309  1  0.70197000  0.84220700  0.98789300  1
  C  310  1  0.78759100  0.83538500  0.97474800  1
  C  311  1  0.83068800  0.79826400  0.99425300  1
  C  313  1  0.70818300  0.77798100  0.03702600  1
  C  317  1  0.61784500  0.90726200  0.00281400  1
  C  321  1  0.45823900  0.52504200  0.04035100  1
  C  322  1  0.54404500  0.53755900  0.03318000  1
  C  323  1  0.58519900  0.51891200  0.99501400  1
  C  325  1  0.46204800  0.47594900  0.97615800  1
  C  329  1  0.34491700  0.56832600  0.06860500  1
  C  333  1  0.80365200  0.02503500  0.67067700  1
  C  334  1  0.71689800  0.03636000  0.67655000  1
  C  335  1  0.67417000  0.01640300  0.71355500  1
  C  337  1  0.79803600  0.97484600  0.73399000  1
  C  341  1  0.91992600  0.06843200  0.64570100  1
  C  345  1  0.20389500  0.96550400  0.22278800  1
  C  346  1  0.28887100  0.97395700  0.23616100  1
  C  347  1  0.32875800  0.01264900  0.21782900  1
  C  349  1  0.20470800  0.03117700  0.17531900  1
  C  353  1  0.12101300  0.90014200  0.20651500  1
  C  357  1  0.96654400  0.52871000  0.53824800  1
  C  358  1  0.05516500  0.53646000  0.53493800  1
  C  359  1  0.09879000  0.51418600  0.49958600  1
  C  361  1  0.97176800  0.47735600  0.47597300  1
  C  365  1  0.86470300  0.58256700  0.55920100  1
  H  7  1  0.20545500  0.18402900  0.04620300  1
  H  16  1  0.20116700  0.12068300  0.16520300  1
  H  19  1  0.99389200  0.17401500  0.16305400  1
  H  20  1  0.99713400  0.14541900  0.04889300  1
  H  21  1  0.09152900  0.33115200  0.09237100  1
  H  22  1  0.06266700  0.97893000  0.11506000  1
  H  29  1  0.70831400  0.62041800  0.16454800  1
  H  38  1  0.70693200  0.68872200  0.04722000  1
  H  41  1  0.50208900  0.64545800  0.04940600  1
  H  42  1  0.50353500  0.66386100  0.16373300  1
  H  43  1  0.57294000  0.47895200  0.11217800  1
  H  44  1  0.56748200  0.82969100  0.09758600  1
  H  51  1  0.56064900  0.12491200  0.54609200  1
  H  60  1  0.56258500  0.19042200  0.66450700  1
  H  63  1  0.76510300  0.14459000  0.66276900  1
  H  64  1  0.76694400  0.16526600  0.54856100  1
  H  65  1  0.68301700  0.98042500  0.59312900  1
  H  66  1  0.70312300  0.33153700  0.61492700  1
  H  73  1  0.06448300  0.68560800  0.66542000  1
  H  82  1  0.06836900  0.62523600  0.54513900  1
  H  85  1  0.27628600  0.67576200  0.54875000  1
  H  86  1  0.27031800  0.64456900  0.66310400  1
  H  87  1  0.17651400  0.83332900  0.61937300  1
  H  88  1  0.19266100  0.48035500  0.58963000  1
  H  95  1  0.30847900  0.84801300  0.38656800  1
  H  104  1  0.30801600  0.96588900  0.32512500  1
  H  107  1  0.52348800  0.96342500  0.37423100  1
  H  108  1  0.52210500  0.85051800  0.33865900  1
  H  109  1  0.32861200  0.91932200  0.53293300  1
  H  110  1  0.32552100  0.89183800  0.17951000  1
  H  117  1  0.80613000  0.96392500  0.82328400  1
  H  126  1  0.80329000  0.84476000  0.88572500  1
  H  129  1  0.01630800  0.84678900  0.83832600  1
  H  130  1  0.01557700  0.96123400  0.87260000  1
  H  131  1  0.82143400  0.89148600  0.67900500  1
  H  132  1  0.82316000  0.91679000  0.03217000  1
  H  139  1  0.96489600  0.34808500  0.32388800  1
  H  148  1  0.96197500  0.46673900  0.38671300  1
  H  151  1  0.74606700  0.46228300  0.33644500  1
  H  152  1  0.75252400  0.34928500  0.37205000  1
  H  153  1  0.92929400  0.42450700  0.17835900  1
  H  154  1  0.94769400  0.39526800  0.53141500  1
  H  161  1  0.45279500  0.46484600  0.88693900  1
  H  170  1  0.46014400  0.34564700  0.82526200  1
  H  173  1  0.24666600  0.34557600  0.87267100  1
  H  174  1  0.24333600  0.46005200  0.83707200  1
  H  175  1  0.44203900  0.39230600  0.03121500  1
  H  176  1  0.44033900  0.41747400  0.67870700  1
  H  184  1  0.14511700  0.01933400  0.99447600  1
  H  186  1  0.85827700  0.10100000  0.04273900  1
  H  187  1  0.80553800  0.08489800  0.09301800  1
  H  188  1  0.78705900  0.05401600  0.04282500  1
  H  196  1  0.64998200  0.78942600  0.21912400  1
  H  198  1  0.36496300  0.70842300  0.16864900  1
  H  199  1  0.31296900  0.72455400  0.11816400  1
  H  200  1  0.29364900  0.75536900  0.16831300  1
  H  208  1  0.62067300  0.29140500  0.49350700  1
  H  210  1  0.90619100  0.20904900  0.54331000  1
  H  211  1  0.95826600  0.22530700  0.59373100  1
  H  212  1  0.97781100  0.25585800  0.54344800  1
  H  220  1  0.11486700  0.51657300  0.71306200  1
  H  222  1  0.40771000  0.59987100  0.67276000  1
  H  223  1  0.45934800  0.58649300  0.62136100  1
  H  224  1  0.47704600  0.55222900  0.66939200  1
  H  232  1  0.37349300  0.29248500  0.72311400  1
  H  234  1  0.59740900  0.42398300  0.68635800  1
  H  235  1  0.67484000  0.43784200  0.72744500  1
  H  236  1  0.69480600  0.39310400  0.68931700  1
  H  244  1  0.40417000  0.80168600  0.49738500  1
  H  246  1  0.17901000  0.92677100  0.50369100  1
  H  247  1  0.08832100  0.93040200  0.46856200  1
  H  248  1  0.08570400  0.89481700  0.51653500  1
  H  256  1  0.89659100  0.52124900  0.22609900  1
  H  258  1  0.70872800  0.38213600  0.18298600  1
  H  259  1  0.61989100  0.36528800  0.21558200  1
  H  260  1  0.60737700  0.40802800  0.17439300  1
  H  268  1  0.65646600  0.01410500  0.50117900  1
  H  270  1  0.39383900  0.11250400  0.54044900  1
  H  271  1  0.32156700  0.09952700  0.58436900  1
  H  272  1  0.30946800  0.07315600  0.53114500  1
  H  280  1  0.15261200  0.79553600  0.71312600  1
  H  282  1  0.89586100  0.69699200  0.66695500  1
  H  283  1  0.82335100  0.71112800  0.62350800  1
  H  284  1  0.80969600  0.73480200  0.67789200  1
  H  292  1  0.11402500  0.29290500  0.99882400  1
  H  294  1  0.37500200  0.19722500  0.04361000  1
  H  295  1  0.44802400  0.21210200  0.08656900  1
  H  296  1  0.45953200  0.23590400  0.03210600  1
  H  304  1  0.86432800  0.30130000  0.21255500  1
  H  306  1  0.08325000  0.42602800  0.20897500  1
  H  307  1  0.17675800  0.43030900  0.24188900  1
  H  308  1  0.17692900  0.39576100  0.19313600  1
  H  316  1  0.89370600  0.79265800  0.98758900  1
  H  318  1  0.66572000  0.92176000  0.02532300  1
  H  319  1  0.58713700  0.93484100  0.98459700  1
  H  320  1  0.56934800  0.88994400  0.02283800  1
  H  328  1  0.64807800  0.52542400  0.98885000  1
  H  330  1  0.36585500  0.59873200  0.05082300  1
  H  331  1  0.31667500  0.57862100  0.10065900  1
  H  332  1  0.29587100  0.55126900  0.04870000  1
  H  340  1  0.61083500  0.02235500  0.71892100  1
  H  342  1  0.90029200  0.09775300  0.66559900  1
  H  343  1  0.94872600  0.08060800  0.61445700  1
  H  344  1  0.96813000  0.04940700  0.66435500  1
  H  352  1  0.39117200  0.01961900  0.22479000  1
  H  354  1  0.16709600  0.88779100  0.18177700  1
  H  355  1  0.09390600  0.87106500  0.22399800  1
  H  356  1  0.06946400  0.91772600  0.18904300  1
  H  364  1  0.16324700  0.51756000  0.49602900  1
  H  366  1  0.90095400  0.61064300  0.54482500  1
  H  367  1  0.83117800  0.59497200  0.58899800  1
  H  368  1  0.81724400  0.57109500  0.53472200  1
  N  180  1  0.03979200  0.98506700  0.97142100  1
  N  182  1  0.91320000  0.99572400  0.01116800  1
  N  192  1  0.54473400  0.82465300  0.24078500  1
  N  194  1  0.41927700  0.81442200  0.20002100  1
  N  204  1  0.72661700  0.32534400  0.47077600  1
  N  206  1  0.85264000  0.31439800  0.51098700  1
  N  216  1  0.22018500  0.48307300  0.73729400  1
  N  218  1  0.34858400  0.49590100  0.69983900  1
  N  228  1  0.47815500  0.27197000  0.68673000  1
  N  230  1  0.60118500  0.31546800  0.69377300  1
  N  240  1  0.29779900  0.77645300  0.52897400  1
  N  242  1  0.16796800  0.81115900  0.51238300  1
  N  252  1  0.79331600  0.54021300  0.18771000  1
  N  254  1  0.67482000  0.49295900  0.18971300  1
  N  264  1  0.54976400  0.98311200  0.47544200  1
  N  266  1  0.42015600  0.99995700  0.51020900  1
  N  276  1  0.04480300  0.82618100  0.73788200  1
  N  278  1  0.91682400  0.80993900  0.70121500  1
  N  288  1  0.22013500  0.32473700  0.97348300  1
  N  290  1  0.34936200  0.30992300  0.00950600  1
  N  300  1  0.97113000  0.27518200  0.18202800  1
  N  302  1  0.10106600  0.30932600  0.19934500  1
  N  312  1  0.79057200  0.77114100  0.02462500  1
  N  314  1  0.66582200  0.81331300  0.01807400  1
  N  324  1  0.54389300  0.48870900  0.96814800  1
  N  326  1  0.42160800  0.49414600  0.01250800  1
  N  336  1  0.71515400  0.98636200  0.74072900  1
  N  338  1  0.83989000  0.99411400  0.69866200  1
  N  348  1  0.28643700  0.03957300  0.18808400  1
  N  350  1  0.16548400  0.99436500  0.19335400  1
  N  360  1  0.05666200  0.48528800  0.47170600  1
  N  362  1  0.92894400  0.49873100  0.50974300  1
  O  8  1  0.14510900  0.32035200  0.10580600  1
  O  15  1  0.11843700  0.98823100  0.10308700  1
  O  17  1  0.05059300  0.18153900  0.17502700  1
  O  18  1  0.04801400  0.13102600  0.03592200  1
  O  30  1  0.62800900  0.48879100  0.09972800  1
  O  37  1  0.62339800  0.82076200  0.10965200  1
  O  39  1  0.55379600  0.63247500  0.03587700  1
  O  40  1  0.55498000  0.67756400  0.17682700  1
  O  52  1  0.63020900  0.99053700  0.60788800  1
  O  59  1  0.64733300  0.32260700  0.60270500  1
  O  61  1  0.71317200  0.13145300  0.67590400  1
  O  62  1  0.71612200  0.17955300  0.53539800  1
  O  74  1  0.12324600  0.82218800  0.60586900  1
  O  81  1  0.13966000  0.49005500  0.60446600  1
  O  83  1  0.21983400  0.68374500  0.53674400  1
  O  84  1  0.21913500  0.63004400  0.67558600  1
  O  96  1  0.38189200  0.90558900  0.52218800  1
  O  103  1  0.37791100  0.90674100  0.18987700  1
  O  105  1  0.46713800  0.97549500  0.38230800  1
  O  106  1  0.46608600  0.83830200  0.33014700  1
  O  118  1  0.87763200  0.90254200  0.68872500  1
  O  125  1  0.87586100  0.90271800  0.02110800  1
  O  127  1  0.96002700  0.83491100  0.82983300  1
  O  128  1  0.95930400  0.97314900  0.88106600  1
  O  140  1  0.88328000  0.40473100  0.18916400  1
  O  147  1  0.89136200  0.40604600  0.52159300  1
  O  149  1  0.80307400  0.47442100  0.32990600  1
  O  150  1  0.80875400  0.33749400  0.38077000  1
  O  162  1  0.38529200  0.40283400  0.02181000  1
  O  169  1  0.38801700  0.40275700  0.68942800  1
  O  171  1  0.30345500  0.33432300  0.88106600  1
  O  172  1  0.29941300  0.47243600  0.82892700  1
  O  183  1  0.90396000  0.04262100  0.07521500  1
  O  195  1  0.41102200  0.76686800  0.13644200  1
  O  207  1  0.86051200  0.26772200  0.57524400  1
  O  219  1  0.35946200  0.54420600  0.63672500  1
  O  231  1  0.60814500  0.37966400  0.74158100  1
  O  243  1  0.15629900  0.87148400  0.46088000  1
  O  255  1  0.66987800  0.42679200  0.23423600  1
  O  267  1  0.40918700  0.04936300  0.57200500  1
  O  279  1  0.90862800  0.76172200  0.63846300  1
  O  291  1  0.36056800  0.26180100  0.07220600  1
  O  303  1  0.11267300  0.37022400  0.24996400  1
  O  315  1  0.65556200  0.87729900  0.97017300  1
  O  327  1  0.41502200  0.53858000  0.07820000  1
  O  339  1  0.84859000  0.04027800  0.63403300  1
  O  351  1  0.16056800  0.92888100  0.23964400  1
  O  363  1  0.91952400  0.54618700  0.57305300  1
