# generated using pymatgen
data_Cr3H9C20N3O19F4
_symmetry_space_group_name_H-M   'P 1'
_cell_length_a   10.93909000
_cell_length_b   10.94417254
_cell_length_c   18.61756000
_cell_angle_alpha   90.20759123
_cell_angle_beta   90.18668000
_cell_angle_gamma   119.63040347
_symmetry_Int_Tables_number   1
_chemical_formula_structural   Cr3H9C20N3O19F4
_chemical_formula_sum   'Cr6 H18 C40 N6 O38 F8'
_cell_volume   1937.37087624
_cell_formula_units_Z   2
loop_
 _symmetry_equiv_pos_site_id
 _symmetry_equiv_pos_as_xyz
  1  'x, y, z'
loop_
 _atom_site_type_symbol
 _atom_site_label
 _atom_site_symmetry_multiplicity
 _atom_site_fract_x
 _atom_site_fract_y
 _atom_site_fract_z
 _atom_site_occupancy
  Cr  Cr0  1  0.79106000  0.39805000  0.50148000  1
  Cr  Cr1  1  0.10680000  0.70798000  0.50163000  1
  Cr  Cr2  1  0.10208000  0.39394000  0.49685000  1
  Cr  Cr3  1  0.87640000  0.93845000  0.00894000  1
  Cr  Cr4  1  0.56321000  0.93703000  0.99475000  1
  Cr  Cr5  1  0.56355000  0.62576000  0.00141000  1
  H  H6  1  0.32464000  0.84689000  0.80910000  1
  H  H7  1  0.17305000  0.69884000  0.84267000  1
  H  H8  1  0.53383000  0.84422000  0.77347000  1
  H  H9  1  0.33569000  0.45578000  0.80546000  1
  H  H10  1  0.08648000  0.41393000  0.72503000  1
  H  H11  1  0.55185000  0.69122000  0.77916000  1
  H  H12  1  0.45795000  0.61063000  0.67081000  1
  H  H13  1  0.94298000  0.03113000  0.80192000  1
  H  H14  1  0.01939000  0.15143000  0.67778000  1
  H  H15  1  0.82070000  0.23211000  0.80639000  1
  H  H16  1  0.64039000  0.50972000  0.81830000  1
  H  H17  1  0.71784000  0.45370000  0.69937000  1
  H  H18  1  0.31179000  0.75138000  0.18956000  1
  H  H19  1  0.19103000  0.68370000  0.28847000  1
  H  H20  1  0.78117000  0.36066000  0.29948000  1
  H  H21  1  0.83937000  0.10996000  0.29828000  1
  H  H22  1  0.94867000  0.92660000  0.21433000  1
  H  H23  1  0.74743000  0.59425000  0.30549000  1
  C  C24  1  0.87931000  0.64802000  0.60678000  1
  C  C25  1  0.21213000  0.58542000  0.60936000  1
  C  C26  1  0.85507000  0.22579000  0.60122000  1
  C  C27  1  0.86876000  0.65157000  0.40289000  1
  C  C28  1  0.19618000  0.58405000  0.38822000  1
  C  C29  1  0.84647000  0.23110000  0.39399000  1
  C  C30  1  0.25822000  0.73088000  0.80276000  1
  C  C31  1  0.19926000  0.69624000  0.72545000  1
  C  C32  1  0.47584000  0.72791000  0.76622000  1
  C  C33  1  0.26131000  0.49772000  0.80190000  1
  C  C34  1  0.34756000  0.65974000  0.81754000  1
  C  C35  1  0.26069000  0.61287000  0.68457000  1
  C  C36  1  0.42569000  0.68822000  0.68808000  1
  C  C37  1  0.20317000  0.46974000  0.72479000  1
  C  C38  1  0.82613000  0.14987000  0.66882000  1
  C  C39  1  0.85154000  0.15789000  0.82598000  1
  C  C40  1  0.90932000  0.10288000  0.78176000  1
  C  C41  1  0.92436000  0.13461000  0.70444000  1
  C  C42  1  0.83166000  0.67137000  0.67555000  1
  C  C43  1  0.85124000  0.66954000  0.83663000  1
  C  C44  1  0.74374000  0.57676000  0.79559000  1
  C  C45  1  0.75985000  0.56071000  0.71904000  1
  C  C46  1  0.20443000  0.59913000  0.31010000  1
  C  C47  1  0.29508000  0.65989000  0.15895000  1
  C  C48  1  0.23210000  0.53038000  0.18768000  1
  C  C49  1  0.21802000  0.50873000  0.26571000  1
  C  C50  1  0.82683000  0.19611000  0.31868000  1
  C  C51  1  0.84379000  0.20697000  0.16244000  1
  C  C52  1  0.76898000  0.25198000  0.19962000  1
  C  C53  1  0.79556000  0.27716000  0.27643000  1
  C  C54  1  0.81340000  0.68429000  0.33918000  1
  C  C55  1  0.74881000  0.74976000  0.19516000  1
  C  C56  1  0.85492000  0.84064000  0.23786000  1
  C  C57  1  0.86396000  0.81700000  0.31513000  1
  C  C58  1  0.80397000  0.09986000  0.89699000  1
  C  C59  1  0.40288000  0.68425000  0.89096000  1
  C  C60  1  0.82401000  0.70764000  0.90684000  1
  C  C61  1  0.78789000  0.11575000  0.10067000  1
  C  C62  1  0.37924000  0.68751000  0.09420000  1
  C  C63  1  0.76924000  0.75377000  0.11715000  1
  N  N64  1  0.23381000  0.39477000  0.29313000  1
  N  N65  1  0.66160000  0.27351000  0.16699000  1
  N  N66  1  0.95367000  0.93570000  0.35951000  1
  N  N67  1  0.61186000  0.65685000  0.22416000  1
  N  N68  1  0.49605000  0.80954000  0.64011000  1
  N  N69  1  0.14976000  0.42283000  0.85483000  1
  O  O70  1  0.76339000  0.25628000  0.58030000  1
  O  O71  1  0.80802000  0.52719000  0.57794000  1
  O  O72  1  0.00035000  0.73899000  0.58427000  1
  O  O73  1  0.22737000  0.69478000  0.57437000  1
  O  O74  1  0.24822000  0.50375000  0.57700000  1
  O  O75  1  0.97575000  0.27723000  0.57162000  1
  O  O76  1  0.75545000  0.25692000  0.41928000  1
  O  O77  1  0.80066000  0.52778000  0.42868000  1
  O  O78  1  0.99241000  0.73963000  0.42325000  1
  O  O79  1  0.22001000  0.69537000  0.42510000  1
  O  O80  1  0.24028000  0.50439000  0.41598000  1
  O  O81  1  0.96838000  0.27782000  0.42235000  1
  O  O82  1  0.99998000  0.49999000  0.49998000  1
  O  O83  1  0.91506000  0.82587000  0.93232000  1
  O  O84  1  0.87303000  0.05396000  0.93144000  1
  O  O85  1  0.68351000  0.07644000  0.91646000  1
  O  O86  1  0.45366000  0.80655000  0.91769000  1
  O  O87  1  0.43094000  0.59386000  0.91530000  1
  O  O88  1  0.70085000  0.63608000  0.93255000  1
  O  O89  1  0.89745000  0.82920000  0.09294000  1
  O  O90  1  0.85669000  0.05704000  0.08033000  1
  O  O91  1  0.66589000  0.07976000  0.07708000  1
  O  O92  1  0.43733000  0.80963000  0.06658000  1
  O  O93  1  0.41332000  0.59718000  0.07592000  1
  O  O94  1  0.68453000  0.63917000  0.08144000  1
  O  O95  1  0.66773000  0.83375000  0.00170000  1
  O  O96  1  0.35722000  0.41476000  0.31135000  1
  O  O97  1  0.12445000  0.27213000  0.30252000  1
  O  O98  1  0.68139000  0.33026000  0.10370000  1
  O  O99  1  0.55547000  0.25856000  0.20506000  1
  O  O100  1  0.91027000  0.95236000  0.42185000  1
  O  O101  1  0.08410000  0.01700000  0.34148000  1
  O  O102  1  0.56115000  0.70038000  0.27507000  1
  O  O103  1  0.53555000  0.53072000  0.19806000  1
  O  O104  1  0.47419000  0.91562000  0.64513000  1
  O  O105  1  0.58130000  0.81109000  0.59108000  1
  O  O106  1  0.15498000  0.33025000  0.89646000  1
  O  O107  1  0.04821000  0.45106000  0.86288000  1
  F  F108  1  0.24288000  0.38110000  0.69144000  1
  F  F109  1  0.70148000  0.11460000  0.70081000  1
  F  F110  1  0.98156000  0.75102000  0.80902000  1
  F  F111  1  0.87774000  0.80555000  0.69834000  1
  F  F112  1  0.21130000  0.41799000  0.14690000  1
  F  F113  1  0.96465000  0.22047000  0.19034000  1
  F  F114  1  0.05459000  0.61302000  0.72799000  1
  F  F115  1  0.22772000  0.81982000  0.69160000  1
