# generated using pymatgen
data_KSmH6C14(SO5)2
_symmetry_space_group_name_H-M   'P 1'
_cell_length_a   8.58903000
_cell_length_b   28.45610000
_cell_length_c   28.45366000
_cell_angle_alpha   119.01989000
_cell_angle_beta   95.75118000
_cell_angle_gamma   95.76643000
_symmetry_Int_Tables_number   1
_chemical_formula_structural   KSmH6C14(SO5)2
_chemical_formula_sum   'K6 Sm6 H36 C84 S12 O60'
_cell_volume   5961.15463261
_cell_formula_units_Z   6
loop_
 _symmetry_equiv_pos_site_id
 _symmetry_equiv_pos_as_xyz
  1  'x, y, z'
loop_
 _atom_site_type_symbol
 _atom_site_label
 _atom_site_symmetry_multiplicity
 _atom_site_fract_x
 _atom_site_fract_y
 _atom_site_fract_z
 _atom_site_occupancy
  K  K1  1  0.65050000  0.91391000  0.32539000  1.0
  K  K2  1  0.32425000  0.67371000  0.58736000  1.0
  K  K3  1  0.73894000  0.41134000  0.08539000  1.0
  K  K4  1  0.82426000  0.58731000  0.67371000  1.0
  K  K5  1  0.23913000  0.08530000  0.41165000  1.0
  K  K6  1  0.15085000  0.32508000  0.91409000  1.0
  Sm  Sm1  1  0.02827000  0.98303000  0.47333000  1.0
  Sm  Sm2  1  0.55914000  0.52561000  0.50906000  1.0
  Sm  Sm3  1  0.04781000  0.48997000  0.01613000  1.0
  Sm  Sm4  1  0.05913000  0.50904000  0.52564000  1.0
  Sm  Sm5  1  0.54830000  0.01636000  0.49080000  1.0
  Sm  Sm6  1  0.52821000  0.47316000  0.98305000  1.0
  H  H1  1  0.92142000  0.82799000  0.24958000  1.0
  H  H2  1  0.27308000  0.74076000  0.27543000  1.0
  H  H3  1  0.41473000  0.82686000  0.35490000  1.0
  H  H4  1  0.84921000  0.76177000  0.17337000  1.0
  H  H5  1  0.70272000  0.67442000  0.09724000  1.0
  H  H6  1  0.10613000  0.67254000  0.23253000  1.0
  H  H7  1  0.67147000  0.75017000  0.57876000  1.0
  H  H8  1  0.99677000  0.72445000  0.46549000  1.0
  H  H9  1  0.06062000  0.64533000  0.47248000  1.0
  H  H10  1  0.67635000  0.82641000  0.58892000  1.0
  H  H11  1  0.60620000  0.90278000  0.57805000  1.0
  H  H12  1  0.86976000  0.76673000  0.43955000  1.0
  H  H13  1  0.09355000  0.42144000  0.17195000  1.0
  H  H14  1  0.53207000  0.53479000  0.25904000  1.0
  H  H15  1  0.58761000  0.52787000  0.17275000  1.0
  H  H16  1  0.08819000  0.41144000  0.23768000  1.0
  H  H17  1  0.03054000  0.42203000  0.32503000  1.0
  H  H18  1  0.43210000  0.56045000  0.32727000  1.0
  H  H19  1  0.17157000  0.57878000  0.75026000  1.0
  H  H20  1  0.49689000  0.46554000  0.72449000  1.0
  H  H21  1  0.56062000  0.47250000  0.64535000  1.0
  H  H22  1  0.17646000  0.58886000  0.82660000  1.0
  H  H23  1  0.10638000  0.57774000  0.90288000  1.0
  H  H24  1  0.37001000  0.43947000  0.76657000  1.0
  H  H25  1  0.59324000  0.17155000  0.42125000  1.0
  H  H26  1  0.03184000  0.25901000  0.53458000  1.0
  H  H27  1  0.08791000  0.17281000  0.52779000  1.0
  H  H28  1  0.58794000  0.23757000  0.41138000  1.0
  H  H29  1  0.53050000  0.32494000  0.42197000  1.0
  H  H30  1  0.93188000  0.32713000  0.56039000  1.0
  H  H31  1  0.42074000  0.24942000  0.82788000  1.0
  H  H32  1  0.77262000  0.27529000  0.74070000  1.0
  H  H33  1  0.91421000  0.35479000  0.82682000  1.0
  H  H34  1  0.34877000  0.17333000  0.76181000  1.0
  H  H35  1  0.20220000  0.09716000  0.67448000  1.0
  H  H36  1  0.60582000  0.23236000  0.67254000  1.0
  C  C1  1  0.24725000  0.87560000  0.34828000  1.0
  C  C2  1  0.10828000  0.87504000  0.31707000  1.0
  C  C3  1  0.02721000  0.82625000  0.27258000  1.0
  C  C4  1  0.08079000  0.77647000  0.25699000  1.0
  C  C5  1  0.22329000  0.77779000  0.28716000  1.0
  C  C6  1  0.30462000  0.82634000  0.33185000  1.0
  C  C7  1  0.33970000  0.92511000  0.39729000  1.0
  C  C8  1  0.99156000  0.72503000  0.20981000  1.0
  C  C9  1  0.87535000  0.72396000  0.17054000  1.0
  C  C10  1  0.79395000  0.67465000  0.12681000  1.0
  C  C11  1  0.82886000  0.62420000  0.11852000  1.0
  C  C12  1  0.94672000  0.62514000  0.15757000  1.0
  C  C13  1  0.02202000  0.67458000  0.20267000  1.0
  C  C14  1  0.74084000  0.57437000  0.06769000  1.0
  C  C15  1  0.89942000  0.65177000  0.52779000  1.0
  C  C16  1  0.79105000  0.68279000  0.55834000  1.0
  C  C17  1  0.75466000  0.72733000  0.55409000  1.0
  C  C18  1  0.82358000  0.74292000  0.51984000  1.0
  C  C19  1  0.93595000  0.71280000  0.49096000  1.0
  C  C20  1  0.97330000  0.66828000  0.49501000  1.0
  C  C21  1  0.94303000  0.60265000  0.52798000  1.0
  C  C22  1  0.78100000  0.78996000  0.51542000  1.0
  C  C23  1  0.70490000  0.82931000  0.55393000  1.0
  C  C24  1  0.66720000  0.87308000  0.54850000  1.0
  C  C25  1  0.71021000  0.88136000  0.50630000  1.0
  C  C26  1  0.78739000  0.84209000  0.46764000  1.0
  C  C27  1  0.81706000  0.79685000  0.47180000  1.0
  C  C28  1  0.67267000  0.93221000  0.50766000  1.0
  C  C29  1  0.37172000  0.47224000  0.12413000  1.0
  C  C30  1  0.23341000  0.44159000  0.12470000  1.0
  C  C31  1  0.20112000  0.44609000  0.17356000  1.0
  C  C32  1  0.30442000  0.48047000  0.22329000  1.0
  C  C33  1  0.44550000  0.50936000  0.22198000  1.0
  C  C34  1  0.47825000  0.50529000  0.17335000  1.0
  C  C35  1  0.41501000  0.47148000  0.07459000  1.0
  C  C36  1  0.26668000  0.48483000  0.27473000  1.0
  C  C37  1  0.15221000  0.44631000  0.27556000  1.0
  C  C38  1  0.12082000  0.45155000  0.32478000  1.0
  C  C39  1  0.20651000  0.49363000  0.37519000  1.0
  C  C40  1  0.32181000  0.53233000  0.37454000  1.0
  C  C41  1  0.34691000  0.52831000  0.32519000  1.0
  C  C42  1  0.16868000  0.49216000  0.42469000  1.0
  C  C43  1  0.39943000  0.52783000  0.65180000  1.0
  C  C44  1  0.29109000  0.55838000  0.68284000  1.0
  C  C45  1  0.25470000  0.55411000  0.72739000  1.0
  C  C46  1  0.32366000  0.51987000  0.74296000  1.0
  C  C47  1  0.43608000  0.49101000  0.71283000  1.0
  C  C48  1  0.47334000  0.49505000  0.66830000  1.0
  C  C49  1  0.44301000  0.52800000  0.60267000  1.0
  C  C50  1  0.28116000  0.51537000  0.78997000  1.0
  C  C51  1  0.20510000  0.55383000  0.82942000  1.0
  C  C52  1  0.16740000  0.54825000  0.87312000  1.0
  C  C53  1  0.21027000  0.50592000  0.88120000  1.0
  C  C54  1  0.28759000  0.46740000  0.84190000  1.0
  C  C55  1  0.31728000  0.47168000  0.79673000  1.0
  C  C56  1  0.17209000  0.50680000  0.93180000  1.0
  C  C57  1  0.87160000  0.12423000  0.47255000  1.0
  C  C58  1  0.73303000  0.12456000  0.44184000  1.0
  C  C59  1  0.70073000  0.17331000  0.44603000  1.0
  C  C60  1  0.80404000  0.22311000  0.48033000  1.0
  C  C61  1  0.94527000  0.22194000  0.50924000  1.0
  C  C62  1  0.97832000  0.17342000  0.50533000  1.0
  C  C63  1  0.91505000  0.07485000  0.47206000  1.0
  C  C64  1  0.76647000  0.27458000  0.48471000  1.0
  C  C65  1  0.65213000  0.27547000  0.44620000  1.0
  C  C66  1  0.62083000  0.32469000  0.45148000  1.0
  C  C67  1  0.70654000  0.37510000  0.49357000  1.0
  C  C68  1  0.82186000  0.37441000  0.53224000  1.0
  C  C69  1  0.84682000  0.32504000  0.52821000  1.0
  C  C70  1  0.66871000  0.42465000  0.49218000  1.0
  C  C71  1  0.74651000  0.34813000  0.87546000  1.0
  C  C72  1  0.60757000  0.31695000  0.87493000  1.0
  C  C73  1  0.52649000  0.27246000  0.82615000  1.0
  C  C74  1  0.58025000  0.25688000  0.77641000  1.0
  C  C75  1  0.72272000  0.28705000  0.77770000  1.0
  C  C76  1  0.80400000  0.33174000  0.82624000  1.0
  C  C77  1  0.83928000  0.39697000  0.92500000  1.0
  C  C78  1  0.49111000  0.20969000  0.72501000  1.0
  C  C79  1  0.37489000  0.17044000  0.72397000  1.0
  C  C80  1  0.29338000  0.12673000  0.67467000  1.0
  C  C81  1  0.32832000  0.11846000  0.62423000  1.0
  C  C82  1  0.44610000  0.15753000  0.62515000  1.0
  C  C83  1  0.52151000  0.20256000  0.67458000  1.0
  C  C84  1  0.24061000  0.06761000  0.57444000  1.0
  S  S1  1  0.03468000  0.93598000  0.32883000  1.0
  S  S2  1  0.01631000  0.56589000  0.15367000  1.0
  S  S3  1  0.70323000  0.67064000  0.60705000  1.0
  S  S4  1  0.85939000  0.84577000  0.41190000  1.0
  S  S5  1  0.09913000  0.39236000  0.06375000  1.0
  S  S6  1  0.44949000  0.58786000  0.43387000  1.0
  S  S7  1  0.20326000  0.60708000  0.67070000  1.0
  S  S8  1  0.35941000  0.41172000  0.84568000  1.0
  S  S9  1  0.59937000  0.06329000  0.39275000  1.0
  S  S10  1  0.94939000  0.43379000  0.58782000  1.0
  S  S11  1  0.53452000  0.32875000  0.93595000  1.0
  S  S12  1  0.51621000  0.15380000  0.56605000  1.0
  O  O1  1  0.27319000  0.96133000  0.43303000  1.0
  O  O2  1  0.49097000  0.93043000  0.40433000  1.0
  O  O3  1  0.95618000  0.95274000  0.37882000  1.0
  O  O4  1  0.91278000  0.91933000  0.28104000  1.0
  O  O5  1  0.17190000  0.97634000  0.33810000  1.0
  O  O6  1  0.59385000  0.57154000  0.05262000  1.0
  O  O7  1  0.81279000  0.53549000  0.03798000  1.0
  O  O8  1  0.87662000  0.52362000  0.13791000  1.0
  O  O9  1  0.11661000  0.55121000  0.10871000  1.0
  O  O10  1  0.11682000  0.58361000  0.20571000  1.0
  O  O11  1  0.84155000  0.56682000  0.52853000  1.0
  O  O12  1  0.08695000  0.59548000  0.52590000  1.0
  O  O13  1  0.57766000  0.61996000  0.57332000  1.0
  O  O14  1  0.62580000  0.71792000  0.63714000  1.0
  O  O15  1  0.82966000  0.66221000  0.63934000  1.0
  O  O16  1  0.54183000  0.94757000  0.52094000  1.0
  O  O17  1  0.77278000  0.96168000  0.49758000  1.0
  O  O18  1  0.73575000  0.86207000  0.38587000  1.0
  O  O19  1  0.00523000  0.89044000  0.44208000  1.0
  O  O20  1  0.90606000  0.79344000  0.37711000  1.0
  O  O21  1  0.31265000  0.47113000  0.03832000  1.0
  O  O22  1  0.56079000  0.47287000  0.06919000  1.0
  O  O23  1  0.00651000  0.42567000  0.04642000  1.0
  O  O24  1  0.99246000  0.36199000  0.08089000  1.0
  O  O25  1  0.19513000  0.36044000  0.02346000  1.0
  O  O26  1  0.02467000  0.47854000  0.42667000  1.0
  O  O27  1  0.27905000  0.50252000  0.46423000  1.0
  O  O28  1  0.35213000  0.61417000  0.47620000  1.0
  O  O29  1  0.56423000  0.55738000  0.44821000  1.0
  O  O30  1  0.53138000  0.62248000  0.41627000  1.0
  O  O31  1  0.34155000  0.52856000  0.56685000  1.0
  O  O32  1  0.58691000  0.52589000  0.59548000  1.0
  O  O33  1  0.07765000  0.57336000  0.62004000  1.0
  O  O34  1  0.12584000  0.63717000  0.71802000  1.0
  O  O35  1  0.32963000  0.63935000  0.66226000  1.0
  O  O36  1  0.03973000  0.51888000  0.94644000  1.0
  O  O37  1  0.27304000  0.49757000  0.96176000  1.0
  O  O38  1  0.23553000  0.38581000  0.86203000  1.0
  O  O39  1  0.50507000  0.44193000  0.89044000  1.0
  O  O40  1  0.40606000  0.37685000  0.79337000  1.0
  O  O41  1  0.81285000  0.03889000  0.47224000  1.0
  O  O42  1  0.06064000  0.06921000  0.47305000  1.0
  O  O43  1  0.50704000  0.04567000  0.42593000  1.0
  O  O44  1  0.49197000  0.07996000  0.36216000  1.0
  O  O45  1  0.69646000  0.02330000  0.36113000  1.0
  O  O46  1  0.52471000  0.42666000  0.47862000  1.0
  O  O47  1  0.77913000  0.46418000  0.50253000  1.0
  O  O48  1  0.85209000  0.47614000  0.61412000  1.0
  O  O49  1  0.06412000  0.44815000  0.55734000  1.0
  O  O50  1  0.03141000  0.41622000  0.62245000  1.0
  O  O51  1  0.77324000  0.43285000  0.96127000  1.0
  O  O52  1  0.99057000  0.40369000  0.93034000  1.0
  O  O53  1  0.45600000  0.37872000  0.95274000  1.0
  O  O54  1  0.41275000  0.28098000  0.91940000  1.0
  O  O55  1  0.67197000  0.33810000  0.97628000  1.0
  O  O56  1  0.09373000  0.05243000  0.57156000  1.0
  O  O57  1  0.31279000  0.03802000  0.53557000  1.0
  O  O58  1  0.37686000  0.13785000  0.52361000  1.0
  O  O59  1  0.61675000  0.10898000  0.55166000  1.0
  O  O60  1  0.61665000  0.20588000  0.58378000  1.0
