# generated using pymatgen
data_EuH11(C7O2)3
_symmetry_space_group_name_H-M   'P 1'
_cell_length_a   13.97903000
_cell_length_b   14.21388000
_cell_length_c   17.95662000
_cell_angle_alpha   99.66324000
_cell_angle_beta   112.59629000
_cell_angle_gamma   90.13170000
_symmetry_Int_Tables_number   1
_chemical_formula_structural   EuH11(C7O2)3
_chemical_formula_sum   'Eu4 H44 C84 O24'
_cell_volume   3238.52797974
_cell_formula_units_Z   4
loop_
 _symmetry_equiv_pos_site_id
 _symmetry_equiv_pos_as_xyz
  1  'x, y, z'
loop_
 _atom_site_type_symbol
 _atom_site_label
 _atom_site_symmetry_multiplicity
 _atom_site_fract_x
 _atom_site_fract_y
 _atom_site_fract_z
 _atom_site_occupancy
  Eu  Eu1  1  0.90241000  0.46386000  0.38945000  1.0
  Eu  Eu2  1  0.51149000  0.03473000  0.61100000  1.0
  Eu  Eu3  1  0.09770000  0.53554000  0.61025000  1.0
  Eu  Eu4  1  0.48880000  0.96564000  0.38884000  1.0
  H  H1  1  0.01855000  0.56052000  0.18704000  1.0
  H  H2  1  0.99657000  0.62022000  0.05979000  1.0
  H  H3  1  0.66308000  0.58295000  0.98214000  1.0
  H  H4  1  0.68768000  0.52848000  0.11225000  1.0
  H  H5  1  0.96454000  0.59321000  0.93401000  1.0
  H  H6  1  0.93706000  0.62753000  0.79891000  1.0
  H  H7  1  0.62686000  0.70650000  0.76768000  1.0
  H  H8  1  0.65717000  0.67708000  0.90490000  1.0
  H  H9  1  0.86386000  0.57897000  0.66728000  1.0
  H  H10  1  0.68480000  0.70293000  0.45812000  1.0
  H  H11  1  0.65052000  0.79389000  0.68577000  1.0
  H  H12  1  0.83203000  0.94033000  0.81287000  1.0
  H  H13  1  0.93736000  0.88046000  0.93970000  1.0
  H  H14  1  0.68301000  0.91603000  0.01979000  1.0
  H  H15  1  0.57684000  0.97042000  0.88971000  1.0
  H  H16  1  0.02954000  0.90782000  0.06419000  1.0
  H  H17  1  0.13847000  0.87519000  0.19967000  1.0
  H  H18  1  0.86178000  0.79556000  0.23461000  1.0
  H  H19  1  0.75366000  0.82376000  0.09748000  1.0
  H  H20  1  0.19745000  0.92297000  0.33182000  1.0
  H  H21  1  0.22625000  0.79875000  0.54106000  1.0
  H  H22  1  0.96461000  0.70876000  0.31398000  1.0
  H  H23  1  0.98093000  0.44003000  0.81344000  1.0
  H  H24  1  0.00333000  0.37976000  0.94052000  1.0
  H  H25  1  0.33673000  0.41680000  0.01763000  1.0
  H  H26  1  0.31166000  0.47081000  0.88723000  1.0
  H  H27  1  0.03541000  0.40667000  0.06596000  1.0
  H  H28  1  0.06288000  0.37248000  0.20109000  1.0
  H  H29  1  0.37314000  0.29366000  0.23248000  1.0
  H  H30  1  0.34286000  0.32300000  0.09525000  1.0
  H  H31  1  0.13597000  0.42089000  0.33281000  1.0
  H  H32  1  0.31606000  0.29771000  0.54218000  1.0
  H  H33  1  0.34966000  0.20644000  0.31427000  1.0
  H  H34  1  0.16823000  0.06037000  0.18723000  1.0
  H  H35  1  0.06258000  0.11970000  0.06019000  1.0
  H  H36  1  0.31670000  0.08408000  0.97985000  1.0
  H  H37  1  0.42283000  0.02907000  0.10964000  1.0
  H  H38  1  0.97041000  0.09211000  0.93572000  1.0
  H  H39  1  0.86151000  0.12448000  0.80011000  1.0
  H  H40  1  0.13828000  0.20449000  0.76534000  1.0
  H  H41  1  0.24636000  0.17636000  0.90257000  1.0
  H  H42  1  0.80283000  0.07680000  0.66830000  1.0
  H  H43  1  0.77305000  0.20197000  0.45962000  1.0
  H  H44  1  0.03543000  0.29165000  0.68634000  1.0
  C  C1  1  0.86590000  0.49316000  0.22802000  1.0
  C  C2  1  0.85407000  0.53801000  0.15575000  1.0
  C  C3  1  0.94124000  0.56590000  0.14148000  1.0
  C  C4  1  0.92836000  0.59868000  0.06976000  1.0
  C  C5  1  0.82798000  0.60464000  0.00985000  1.0
  C  C6  1  0.74127000  0.58052000  0.02725000  1.0
  C  C7  1  0.75400000  0.54846000  0.09911000  1.0
  C  C8  1  0.81298000  0.63131000  0.93076000  1.0
  C  C9  1  0.89115000  0.61998000  0.89880000  1.0
  C  C10  1  0.87508000  0.63840000  0.82157000  1.0
  C  C11  1  0.77914000  0.66949000  0.77204000  1.0
  C  C12  1  0.70175000  0.68344000  0.80456000  1.0
  C  C13  1  0.71846000  0.66528000  0.88192000  1.0
  C  C14  1  0.75829000  0.68312000  0.68791000  1.0
  C  C15  1  0.80672000  0.62864000  0.64084000  1.0
  C  C16  1  0.77889000  0.63486000  0.55840000  1.0
  C  C17  1  0.70564000  0.69793000  0.52212000  1.0
  C  C18  1  0.66089000  0.75587000  0.56905000  1.0
  C  C19  1  0.68627000  0.74746000  0.65083000  1.0
  C  C20  1  0.82327000  0.57234000  0.50630000  1.0
  C  C21  1  0.58624000  0.82718000  0.53252000  1.0
  C  C22  1  0.63708000  0.00500000  0.77238000  1.0
  C  C23  1  0.69889000  0.96137000  0.84497000  1.0
  C  C24  1  0.80029000  0.93453000  0.85871000  1.0
  C  C25  1  0.85936000  0.90178000  0.93022000  1.0
  C  C26  1  0.81906000  0.89524000  0.99053000  1.0
  C  C27  1  0.71546000  0.91896000  0.97404000  1.0
  C  C28  1  0.65610000  0.95080000  0.90238000  1.0
  C  C29  1  0.88283000  0.86891000  0.06956000  1.0
  C  C30  1  0.99244000  0.88097000  0.10044000  1.0
  C  C31  1  0.05417000  0.86360000  0.17766000  1.0
  C  C32  1  0.00839000  0.83245000  0.22798000  1.0
  C  C33  1  0.89896000  0.81815000  0.19665000  1.0
  C  C34  1  0.83767000  0.83549000  0.11939000  1.0
  C  C35  1  0.07143000  0.81868000  0.31183000  1.0
  C  C36  1  0.16680000  0.87293000  0.35838000  1.0
  C  C37  1  0.22065000  0.86621000  0.44063000  1.0
  C  C38  1  0.18314000  0.80313000  0.47704000  1.0
  C  C39  1  0.09140000  0.74548000  0.43040000  1.0
  C  C40  1  0.03570000  0.75444000  0.34885000  1.0
  C  C41  1  0.31689000  0.92817000  0.49310000  1.0
  C  C42  1  0.05207000  0.67359000  0.46636000  1.0
  C  C43  1  0.13456000  0.50689000  0.77194000  1.0
  C  C44  1  0.14540000  0.46196000  0.84416000  1.0
  C  C45  1  0.05836000  0.43445000  0.85875000  1.0
  C  C46  1  0.07146000  0.40143000  0.93046000  1.0
  C  C47  1  0.17190000  0.39529000  0.99019000  1.0
  C  C48  1  0.25846000  0.41931000  0.97264000  1.0
  C  C49  1  0.24543000  0.45113000  0.90062000  1.0
  C  C50  1  0.18700000  0.36862000  0.06933000  1.0
  C  C51  1  0.10883000  0.37999000  0.10126000  1.0
  C  C52  1  0.12488000  0.36160000  0.17848000  1.0
  C  C53  1  0.22079000  0.33049000  0.22801000  1.0
  C  C54  1  0.29820000  0.31662000  0.19554000  1.0
  C  C55  1  0.28151000  0.33472000  0.11817000  1.0
  C  C56  1  0.24168000  0.31683000  0.31215000  1.0
  C  C57  1  0.19320000  0.37124000  0.35915000  1.0
  C  C58  1  0.22132000  0.36515000  0.44165000  1.0
  C  C59  1  0.29481000  0.30239000  0.47807000  1.0
  C  C60  1  0.33942000  0.24443000  0.43112000  1.0
  C  C61  1  0.31381000  0.25267000  0.34924000  1.0
  C  C62  1  0.17727000  0.42770000  0.49379000  1.0
  C  C63  1  0.41421000  0.17286000  0.46755000  1.0
  C  C64  1  0.36284000  0.99486000  0.22709000  1.0
  C  C65  1  0.30116000  0.03858000  0.15476000  1.0
  C  C66  1  0.19984000  0.06584000  0.14126000  1.0
  C  C67  1  0.14061000  0.09841000  0.06970000  1.0
  C  C68  1  0.18084000  0.10497000  0.00934000  1.0
  C  C69  1  0.28439000  0.08112000  0.02566000  1.0
  C  C70  1  0.34370000  0.04896000  0.09714000  1.0
  C  C71  1  0.11709000  0.13122000  0.93036000  1.0
  C  C72  1  0.00748000  0.11899000  0.89947000  1.0
  C  C73  1  0.94582000  0.13625000  0.82224000  1.0
  C  C74  1  0.99176000  0.16747000  0.77209000  1.0
  C  C75  1  0.10116000  0.18186000  0.80334000  1.0
  C  C76  1  0.16236000  0.16462000  0.88060000  1.0
  C  C77  1  0.92874000  0.18136000  0.68837000  1.0
  C  C78  1  0.83337000  0.12719000  0.64193000  1.0
  C  C79  1  0.77926000  0.13448000  0.55989000  1.0
  C  C80  1  0.81661000  0.19751000  0.52350000  1.0
  C  C81  1  0.90856000  0.25467000  0.56996000  1.0
  C  C82  1  0.96444000  0.24578000  0.65144000  1.0
  C  C83  1  0.68259000  0.07356000  0.50712000  1.0
  C  C84  1  0.94734000  0.32559000  0.53313000  1.0
  O  O1  1  0.95225000  0.45879000  0.26600000  1.0
  O  O2  1  0.78958000  0.49063000  0.25028000  1.0
  O  O3  1  0.54745000  0.87516000  0.57923000  1.0
  O  O4  1  0.56751000  0.83662000  0.45898000  1.0
  O  O5  1  0.76982000  0.54768000  0.43023000  1.0
  O  O6  1  0.91519000  0.54435000  0.54019000  1.0
  O  O7  1  0.68464000  0.03875000  0.73309000  1.0
  O  O8  1  0.53893000  0.00661000  0.75182000  1.0
  O  O9  1  0.96794000  0.62468000  0.41915000  1.0
  O  O10  1  0.10557000  0.66545000  0.54054000  1.0
  O  O11  1  0.33770000  0.95293000  0.56899000  1.0
  O  O12  1  0.37701000  0.95467000  0.45974000  1.0
  O  O13  1  0.04990000  0.54434000  0.73525000  1.0
  O  O14  1  0.21030000  0.50547000  0.74875000  1.0
  O  O15  1  0.45256000  0.12525000  0.42064000  1.0
  O  O16  1  0.43296000  0.16334000  0.54119000  1.0
  O  O17  1  0.23096000  0.45252000  0.56983000  1.0
  O  O18  1  0.08522000  0.45561000  0.45989000  1.0
  O  O19  1  0.31579000  0.96087000  0.26651000  1.0
  O  O20  1  0.46118000  0.99342000  0.24796000  1.0
  O  O21  1  0.03127000  0.37537000  0.57983000  1.0
  O  O22  1  0.89419000  0.33290000  0.45888000  1.0
  O  O23  1  0.66109000  0.05150000  0.43078000  1.0
  O  O24  1  0.62317000  0.04497000  0.53992000  1.0
