# generated using pymatgen
data_H29C48(N3O2)2
_symmetry_space_group_name_H-M   'P 1'
_cell_length_a   18.63610000
_cell_length_b   71.72820000
_cell_length_c   71.72820000
_cell_angle_alpha   60.00000000
_cell_angle_beta   89.99640000
_cell_angle_gamma   89.99280000
_symmetry_Int_Tables_number   1
_chemical_formula_structural   H29C48(N3O2)2
_chemical_formula_sum   'H174 C288 N36 O24'
_cell_volume   83035.82890744
_cell_formula_units_Z   6
loop_
 _symmetry_equiv_pos_site_id
 _symmetry_equiv_pos_as_xyz
  1  'x, y, z'
loop_
 _atom_site_type_symbol
 _atom_site_label
 _atom_site_symmetry_multiplicity
 _atom_site_fract_x
 _atom_site_fract_y
 _atom_site_fract_z
 _atom_site_occupancy
  C  1  1  0.01763400  0.01521350  0.47743750  1
  C  2  1  0.01791800  0.03741250  0.46558900  1
  C  3  1  0.02549200  0.04524950  0.47982750  1
  C  5  1  0.02471700  0.00901700  0.49917500  1
  C  6  1  0.02774600  0.98739800  0.51642550  1
  C  7  1  0.03165200  0.98112900  0.53854950  1
  C  9  1  0.03310700  0.98250300  0.56901450  1
  C  10  1  0.03844800  0.96091600  0.57451300  1
  C  11  1  0.03715600  0.96005900  0.55573200  1
  C  12  1  0.03045100  0.99040000  0.58362450  1
  C  13  1  0.02619800  0.01251700  0.57753550  1
  C  15  1  0.02387800  0.04874550  0.55818700  1
  C  16  1  0.01694400  0.04252250  0.57993550  1
  C  17  1  0.01813600  0.02032800  0.59178200  1
  C  18  1  0.02605600  0.07037800  0.54093700  1
  C  19  1  0.02981200  0.07666150  0.51880800  1
  C  21  1  0.03124200  0.07528700  0.48834200  1
  C  22  1  0.03550000  0.09689700  0.48283000  1
  C  23  1  0.03421200  0.09775200  0.50161350  1
  C  24  1  0.02873600  0.06737800  0.47374000  1
  C  25  1  0.02500700  0.08289550  0.45142050  1
  C  26  1  0.95973200  0.09368550  0.44249650  1
  C  27  1  0.95634100  0.10995850  0.42080400  1
  C  28  1  0.01779500  0.11561050  0.40749450  1
  C  29  1  0.08255900  0.10434050  0.41628850  1
  C  30  1  0.08634200  0.08826250  0.43813000  1
  C  31  1  0.01378400  0.13255900  0.38583150  1
  C  32  1  0.02662800  0.12874000  0.36859650  1
  C  33  1  0.01288200  0.14492350  0.34722350  1
  C  34  1  0.98860800  0.16541900  0.34261800  1
  C  35  1  0.97759500  0.16940200  0.35981600  1
  C  36  1  0.99011500  0.15317450  0.38116250  1
  C  37  1  0.02495000  0.08706500  0.54615800  1
  C  38  1  0.95927700  0.09520850  0.54891950  1
  C  39  1  0.95873600  0.11182450  0.55394500  1
  C  40  1  0.02367600  0.12085650  0.55602000  1
  C  41  1  0.08921300  0.11256650  0.55321250  1
  C  42  1  0.08995400  0.09582800  0.54840700  1
  C  43  1  0.02373200  0.13764800  0.56112600  1
  C  44  1  0.98380400  0.13577600  0.57877200  1
  C  45  1  0.98884700  0.15156300  0.58489800  1
  C  46  1  0.03350100  0.16973400  0.57335050  1
  C  47  1  0.07171500  0.17195850  0.55539050  1
  C  48  1  0.06693600  0.15614600  0.54934700  1
  C  49  1  0.02743500  0.97488000  0.60595900  1
  C  50  1  0.08873800  0.97002300  0.61918900  1
  C  51  1  0.08556400  0.95410700  0.64109850  1
  C  52  1  0.02147600  0.94248500  0.65003350  1
  C  53  1  0.96006700  0.94759000  0.63677000  1
  C  54  1  0.96282300  0.96370900  0.61500700  1
  C  55  1  0.01797500  0.92581800  0.67183050  1
  C  56  1  0.99575400  0.90495000  0.67693700  1
  C  57  1  0.98359700  0.88897800  0.69841000  1
  C  58  1  0.99330800  0.89351400  0.71528500  1
  C  59  1  0.01616900  0.91425800  0.71025600  1
  C  60  1  0.02972100  0.93016900  0.68876300  1
  C  61  1  0.02751300  0.97070100  0.51121750  1
  C  62  1  0.09298500  0.96234900  0.50867450  1
  C  63  1  0.96229700  0.96202000  0.50893700  1
  C  64  1  0.96266400  0.94524400  0.50414150  1
  C  65  1  0.02810000  0.93659100  0.50181850  1
  C  66  1  0.09316800  0.94545800  0.50409250  1
  C  67  1  0.02908200  0.91953200  0.49710000  1
  C  68  1  0.07399800  0.90143300  0.50884850  1
  C  69  1  0.07957000  0.88535900  0.50318450  1
  C  70  1  0.04046400  0.88691600  0.48564500  1
  C  71  1  0.99410900  0.90467100  0.47414350  1
  C  72  1  0.98821400  0.92071000  0.47990800  1
  C  119  1  0.35165000  0.47555700  0.59733400  1
  C  120  1  0.35194800  0.46370900  0.58698200  1
  C  121  1  0.35916200  0.47795400  0.56489600  1
  C  123  1  0.35832200  0.49730550  0.58178250  1
  C  124  1  0.36111800  0.51456250  0.58614550  1
  C  125  1  0.36494200  0.53668850  0.57029050  1
  C  127  1  0.36636400  0.56715750  0.53845050  1
  C  128  1  0.37159000  0.57265650  0.55454050  1
  C  129  1  0.37028600  0.55387300  0.57417900  1
  C  130  1  0.36367000  0.58176700  0.51594300  1
  C  131  1  0.35940900  0.57567700  0.49991600  1
  C  133  1  0.35701600  0.55633000  0.48303500  1
  C  134  1  0.35016900  0.57808050  0.46750900  1
  C  135  1  0.35139200  0.58992650  0.47785700  1
  C  136  1  0.35919400  0.53907950  0.47865300  1
  C  137  1  0.36292100  0.51694950  0.49449400  1
  C  139  1  0.36440200  0.48647950  0.52633150  1
  C  140  1  0.36858800  0.48097200  0.51023000  1
  C  141  1  0.36727300  0.49975700  0.49059400  1
  C  142  1  0.36218400  0.47187350  0.54884650  1
  C  143  1  0.35842200  0.44955500  0.55564550  1
  C  144  1  0.29314000  0.44063850  0.55377600  1
  C  145  1  0.28974300  0.41895300  0.55917250  1
  C  146  1  0.35119400  0.40563850  0.56682300  1
  C  147  1  0.41597200  0.41442500  0.56929300  1
  C  148  1  0.41974600  0.43625600  0.56356700  1
  C  149  1  0.34719600  0.38398850  0.57150550  1
  C  150  1  0.35971200  0.36673450  0.59257200  1
  C  151  1  0.34581700  0.34537750  0.59773300  1
  C  152  1  0.32183700  0.34080900  0.58179200  1
  C  153  1  0.31130600  0.35801500  0.56059000  1
  C  154  1  0.32376600  0.37935000  0.55551800  1
  C  155  1  0.35818800  0.54430450  0.45674450  1
  C  156  1  0.29257900  0.54702750  0.44582250  1
  C  157  1  0.29217400  0.55205300  0.42418100  1
  C  158  1  0.35718800  0.55417550  0.41308800  1
  C  159  1  0.42265800  0.55141150  0.42420150  1
  C  160  1  0.42326100  0.54660150  0.44574600  1
  C  161  1  0.35740800  0.55929850  0.39118350  1
  C  162  1  0.31737500  0.57691350  0.37540600  1
  C  163  1  0.32269600  0.58308650  0.35348500  1
  C  164  1  0.36771600  0.57161000  0.34686450  1
  C  165  1  0.40602800  0.55367700  0.36260000  1
  C  166  1  0.40098400  0.54759150  0.38446150  1
  C  167  1  0.36074000  0.60410050  0.50912900  1
  C  168  1  0.42210200  0.61730650  0.50077250  1
  C  169  1  0.41902000  0.63921500  0.49478800  1
  C  170  1  0.35492800  0.64818350  0.49742950  1
  C  171  1  0.29346200  0.63494500  0.50556900  1
  C  172  1  0.29614200  0.61317950  0.51122100  1
  C  173  1  0.35149700  0.66998900  0.49227500  1
  C  174  1  0.32916400  0.67512650  0.50800750  1
  C  175  1  0.31698400  0.69661000  0.50247050  1
  C  176  1  0.32686500  0.71347100  0.48106000  1
  C  177  1  0.34990600  0.70841250  0.46538050  1
  C  178  1  0.36325600  0.68690300  0.47098550  1
  C  179  1  0.36084700  0.50935700  0.60804900  1
  C  180  1  0.42629000  0.50686050  0.61894100  1
  C  181  1  0.29560000  0.50702800  0.61901550  1
  C  182  1  0.29591200  0.50222900  0.64058900  1
  C  183  1  0.36131400  0.49995700  0.65155850  1
  C  184  1  0.42641400  0.50228150  0.64041300  1
  C  185  1  0.36223400  0.49523850  0.67333700  1
  C  186  1  0.40693000  0.50703250  0.67968250  1
  C  187  1  0.41234400  0.50139600  0.70141700  1
  C  188  1  0.37333400  0.48383100  0.71740150  1
  C  189  1  0.32721400  0.47228200  0.71114900  1
  C  190  1  0.32143400  0.47802600  0.68934950  1
  C  237  1  0.68457300  0.59548050  0.01702150  1
  C  238  1  0.68486200  0.58513200  0.03922000  1
  C  239  1  0.69221000  0.56304800  0.04706200  1
  C  241  1  0.69141900  0.57993200  0.01082650  1
  C  242  1  0.69436500  0.58429700  0.98920750  1
  C  243  1  0.69836900  0.56844100  0.98294000  1
  C  245  1  0.69989700  0.53660000  0.98431400  1
  C  246  1  0.70519300  0.55268950  0.96272600  1
  C  247  1  0.70379000  0.57232850  0.96186800  1
  C  248  1  0.69715600  0.51409400  0.99221050  1
  C  249  1  0.69281100  0.49806850  0.01432700  1
  C  251  1  0.69038600  0.48118950  0.05055300  1
  C  252  1  0.68344700  0.46566500  0.04433000  1
  C  253  1  0.68472400  0.47601250  0.02213600  1
  C  254  1  0.69249400  0.47680750  0.07218650  1
  C  255  1  0.69613200  0.49265150  0.07847300  1
  C  257  1  0.69759600  0.52448950  0.07710150  1
  C  258  1  0.70182900  0.50839100  0.09871150  1
  C  259  1  0.70054300  0.48875300  0.09956500  1
  C  260  1  0.69530500  0.54700300  0.06919100  1
  C  261  1  0.69160300  0.55380800  0.08470700  1
  C  262  1  0.62633100  0.55196100  0.09549250  1
  C  263  1  0.62299300  0.55736050  0.11178050  1
  C  264  1  0.68447700  0.56499950  0.11743850  1
  C  265  1  0.74924300  0.56744750  0.10617950  1
  C  266  1  0.75296700  0.56171350  0.09007950  1
  C  267  1  0.68051800  0.56969950  0.13439650  1
  C  268  1  0.69339600  0.59074850  0.13058550  1
  C  269  1  0.67955700  0.59594050  0.14676350  1
  C  270  1  0.65533400  0.58004600  0.16726150  1
  C  271  1  0.64440900  0.55885950  0.17125050  1
  C  272  1  0.65685400  0.55375350  0.15501100  1
  C  273  1  0.69146800  0.45489950  0.08887100  1
  C  274  1  0.62584800  0.44398900  0.09707350  1
  C  275  1  0.62542000  0.42234650  0.11368800  1
  C  276  1  0.69042300  0.41124800  0.12266400  1
  C  277  1  0.75590400  0.42235250  0.11431400  1
  C  278  1  0.75653000  0.44389450  0.09757350  1
  C  279  1  0.69061600  0.38934800  0.13945300  1
  C  280  1  0.65058600  0.37356850  0.13762100  1
  C  281  1  0.65591500  0.35165000  0.15337150  1
  C  282  1  0.70089600  0.34503400  0.17147400  1
  C  283  1  0.73917200  0.36077250  0.17367150  1
  C  284  1  0.73413300  0.38263350  0.15789100  1
  C  285  1  0.69421100  0.50727950  0.97669050  1
  C  286  1  0.75553800  0.49888300  0.97186700  1
  C  287  1  0.75245900  0.49290200  0.95594150  1
  C  288  1  0.68842200  0.49559800  0.94429600  1
  C  289  1  0.62698200  0.50376850  0.94937250  1
  C  290  1  0.62965500  0.50941550  0.96549050  1
  C  291  1  0.68502500  0.49047100  0.92762650  1
  C  292  1  0.66305500  0.50625300  0.90673700  1
  C  293  1  0.65088200  0.50075650  0.89076200  1
  C  294  1  0.66033600  0.47933250  0.89530400  1
  C  295  1  0.68293800  0.46360000  0.91607500  1
  C  296  1  0.69643900  0.46916850  0.93199800  1
  C  297  1  0.69411500  0.60620100  0.97251000  1
  C  298  1  0.75957400  0.61708800  0.96412700  1
  C  299  1  0.62888100  0.61717250  0.96386150  1
  C  300  1  0.62921900  0.63874750  0.94709350  1
  C  301  1  0.69463900  0.64971300  0.93840800  1
  C  302  1  0.75972400  0.63856150  0.94723550  1
  C  303  1  0.69558900  0.67149400  0.92135300  1
  C  304  1  0.74031100  0.67784000  0.90321750  1
  C  305  1  0.74577800  0.69957750  0.88713050  1
  C  306  1  0.70668200  0.71555950  0.88869600  1
  C  307  1  0.66052800  0.70930700  0.90649150  1
  C  308  1  0.65480700  0.68751000  0.92255750  1
  C  355  1  0.72262200  0.28833650  0.20616000  1
  C  356  1  0.69746800  0.27810200  0.22777550  1
  C  357  1  0.73846300  0.26127500  0.24402150  1
  C  358  1  0.80407800  0.25461600  0.23930100  1
  C  359  1  0.82773600  0.26473300  0.21774150  1
  C  360  1  0.78719200  0.28130900  0.20131900  1
  C  363  1  0.84830000  0.23943050  0.25623250  1
  C  364  1  0.82433400  0.21824300  0.27079500  1
  C  365  1  0.86755100  0.20464150  0.28876650  1
  C  366  1  0.93377900  0.21172150  0.29271800  1
  C  367  1  0.95739500  0.23270600  0.27777900  1
  C  368  1  0.91557300  0.24629450  0.25971550  1
  C  379  1  0.97059300  0.19969750  0.31193750  1
  C  380  1  0.68993400  0.30639500  0.19000100  1
  C  383  1  0.05591800  0.20426350  0.59550000  1
  C  384  1  0.03090200  0.22588950  0.58401750  1
  C  385  1  0.07191000  0.24215750  0.58454650  1
  C  386  1  0.13743100  0.23744650  0.59596700  1
  C  387  1  0.16102800  0.21588350  0.60748350  1
  C  388  1  0.12047500  0.19944150  0.60737400  1
  C  391  1  0.18159300  0.25438700  0.59421600  1
  C  392  1  0.15754300  0.26896600  0.60081200  1
  C  393  1  0.20064800  0.28697050  0.59639500  1
  C  394  1  0.26688400  0.29092050  0.58536850  1
  C  395  1  0.29060200  0.27596950  0.57934950  1
  C  396  1  0.24882300  0.25789700  0.58383600  1
  C  407  1  0.30369000  0.31013900  0.57818250  1
  C  408  1  0.02323100  0.18805750  0.59368250  1
  C  411  1  0.38926000  0.59359500  0.29016400  1
  C  412  1  0.36409100  0.58222050  0.27992650  1
  C  413  1  0.40507900  0.58279950  0.26309900  1
  C  414  1  0.47069800  0.59417200  0.25644200  1
  C  415  1  0.49436800  0.60561050  0.26656150  1
  C  416  1  0.45383400  0.60545900  0.28313900  1
  C  419  1  0.51492800  0.59241700  0.24126300  1
  C  420  1  0.49097600  0.59903850  0.22007400  1
  C  421  1  0.53421500  0.59466800  0.20647700  1
  C  422  1  0.60046300  0.58364250  0.21356050  1
  C  423  1  0.62406300  0.57759950  0.23454600  1
  C  424  1  0.58218700  0.58206050  0.24813550  1
  C  435  1  0.63733700  0.57645450  0.20153900  1
  C  436  1  0.35659500  0.59168850  0.30822900  1
  C  439  1  0.72825100  0.77208650  0.85297450  1
  C  440  1  0.70302700  0.78203450  0.83137950  1
  C  441  1  0.74410200  0.79867300  0.81496150  1
  C  442  1  0.80985800  0.80542150  0.81949550  1
  C  443  1  0.83365900  0.79557200  0.84102850  1
  C  444  1  0.79307700  0.77917400  0.85761300  1
  C  447  1  0.85403000  0.82043500  0.80243200  1
  C  448  1  0.83013400  0.84157100  0.78766350  1
  C  449  1  0.87321300  0.85495500  0.76957200  1
  C  450  1  0.93928800  0.84771500  0.76571600  1
  C  451  1  0.96287200  0.82679600  0.78086150  1
  C  452  1  0.92111000  0.81341000  0.79901750  1
  C  463  1  0.97610300  0.85951100  0.74644950  1
  C  464  1  0.69541300  0.75420550  0.86933200  1
  C  467  1  0.06174500  0.85112400  0.46490450  1
  C  468  1  0.03639900  0.82953850  0.47647100  1
  C  469  1  0.07744600  0.81313350  0.47621200  1
  C  470  1  0.14328300  0.81766850  0.46496350  1
  C  471  1  0.16714200  0.83919800  0.45333650  1
  C  472  1  0.12657000  0.85577400  0.45317600  1
  C  475  1  0.18748500  0.80060750  0.46701650  1
  C  476  1  0.16365400  0.78585750  0.46061800  1
  C  477  1  0.20680800  0.76778650  0.46529050  1
  C  478  1  0.27285400  0.76391700  0.47640300  1
  C  479  1  0.29636500  0.77905100  0.48220150  1
  C  480  1  0.25457500  0.79719950  0.47744400  1
  C  491  1  0.30961400  0.74463800  0.48389050  1
  C  492  1  0.02888400  0.86745450  0.46647250  1
  C  495  1  0.39500200  0.46300700  0.77392950  1
  C  496  1  0.36974400  0.47464700  0.78388250  1
  C  497  1  0.41081500  0.47443300  0.80051750  1
  C  498  1  0.47660600  0.46316400  0.80725850  1
  C  499  1  0.50044100  0.45148650  0.79740650  1
  C  500  1  0.45986000  0.45129350  0.78101050  1
  C  503  1  0.52077900  0.46522800  0.82226400  1
  C  504  1  0.49691100  0.45886350  0.84340200  1
  C  505  1  0.53998400  0.46358650  0.85677550  1
  C  506  1  0.60602100  0.47469700  0.84952300  1
  C  507  1  0.62958300  0.48046550  0.82860200  1
  C  508  1  0.58783000  0.47568000  0.81522750  1
  C  519  1  0.64281000  0.48217700  0.86131300  1
  C  520  1  0.36216400  0.46452600  0.75605100  1
  H  73  1  0.96631200  0.90648300  0.46105700  1
  H  74  1  0.95652300  0.93382000  0.47071750  1
  H  75  1  0.11417600  0.87278900  0.51162450  1
  H  76  1  0.10405500  0.89994200  0.52147000  1
  H  77  1  0.14153600  0.93988800  0.50213650  1
  H  78  1  0.14088200  0.96842100  0.51024850  1
  H  79  1  0.91463300  0.93908300  0.50281900  1
  H  80  1  0.91424200  0.96779900  0.51082150  1
  H  81  1  0.01316700  0.00540500  0.47095950  1
  H  82  1  0.01350500  0.04617250  0.44920250  1
  H  83  1  0.03752300  0.02817750  0.51262800  1
  H  84  1  0.03777500  0.02963350  0.54472100  1
  H  85  1  0.03982200  0.94620700  0.55499950  1
  H  86  1  0.04224000  0.94777400  0.58960150  1
  H  87  1  0.13617000  0.97787150  0.61290900  1
  H  88  1  0.13094400  0.95059800  0.65029550  1
  H  89  1  0.91771700  0.96697100  0.60573000  1
  H  90  1  0.91264600  0.93963200  0.64286250  1
  H  91  1  0.01397700  0.01155800  0.60817400  1
  H  92  1  0.01197800  0.05230850  0.58642500  1
  H  93  1  0.03844000  0.11005600  0.46773200  1
  H  94  1  0.03606400  0.11161750  0.50233650  1
  H  95  1  0.91154600  0.08910350  0.54729000  1
  H  96  1  0.91037700  0.11755350  0.55567750  1
  H  97  1  0.13816600  0.09012600  0.54651600  1
  H  98  1  0.13727000  0.11841350  0.55498850  1
  H  99  1  0.09634400  0.15812000  0.53642700  1
  H  100  1  0.10508000  0.18484650  0.54689450  1
  H  101  1  0.96163800  0.14928300  0.59824950  1
  H  102  1  0.95326100  0.12238800  0.58796050  1
  H  103  1  0.13427100  0.08072150  0.44433550  1
  H  104  1  0.12800400  0.10827250  0.40706750  1
  H  105  1  0.97911100  0.15629650  0.39332500  1
  H  106  1  0.95648200  0.18373650  0.35704450  1
  H  107  1  0.01838800  0.14142250  0.33510250  1
  H  108  1  0.04147800  0.11375850  0.37156350  1
  H  109  1  0.90848400  0.11767650  0.41481800  1
  H  110  1  0.91463200  0.09007850  0.45183350  1
  H  111  1  0.98561300  0.90143900  0.66499500  1
  H  112  1  0.96345100  0.87443900  0.70149450  1
  H  113  1  0.04332400  0.94534500  0.68547000  1
  H  114  1  0.02071200  0.91813800  0.72213550  1
  H  191  1  0.29937500  0.45920150  0.72241750  1
  H  192  1  0.28986200  0.46881350  0.68543100  1
  H  193  1  0.44676100  0.50987900  0.70554250  1
  H  194  1  0.43690700  0.51967500  0.66855150  1
  H  195  1  0.47476400  0.50035750  0.64793750  1
  H  196  1  0.47420800  0.50846850  0.61129150  1
  H  197  1  0.24785700  0.50088000  0.64807250  1
  H  198  1  0.24756400  0.50888100  0.61135450  1
  H  199  1  0.34726600  0.46907600  0.61362200  1
  H  200  1  0.34765800  0.44731850  0.59461300  1
  H  201  1  0.37027500  0.51078600  0.54913700  1
  H  202  1  0.37087400  0.54285950  0.51561400  1
  H  203  1  0.37285900  0.55314250  0.58876300  1
  H  204  1  0.37523400  0.58774450  0.55259700  1
  H  205  1  0.46952200  0.61100600  0.49922050  1
  H  206  1  0.46441300  0.64840050  0.48908500  1
  H  207  1  0.25099600  0.60391950  0.51722550  1
  H  208  1  0.24604300  0.64106050  0.50740650  1
  H  209  1  0.34733600  0.60632150  0.47023200  1
  H  210  1  0.34527300  0.58457250  0.45123100  1
  H  211  1  0.37163600  0.46587650  0.51216550  1
  H  212  1  0.36913800  0.50048400  0.47600350  1
  H  213  1  0.24479800  0.54536550  0.45354700  1
  H  214  1  0.24386200  0.55376100  0.41670550  1
  H  215  1  0.47143400  0.54474250  0.45334900  1
  H  216  1  0.47076700  0.55323200  0.41658750  1
  H  217  1  0.43047000  0.53469300  0.39541000  1
  H  218  1  0.43974500  0.54525650  0.35820500  1
  H  219  1  0.29556000  0.59645050  0.34240200  1
  H  220  1  0.28662300  0.58606550  0.37960500  1
  H  221  1  0.46768200  0.44245500  0.56490400  1
  H  222  1  0.46138900  0.40519100  0.57460500  1
  H  223  1  0.31309600  0.39152850  0.54021550  1
  H  224  1  0.29031800  0.35527200  0.54899650  1
  H  225  1  0.35090400  0.33325300  0.61336900  1
  H  226  1  0.37417100  0.36967950  0.60462950  1
  H  227  1  0.24189500  0.41297400  0.55743000  1
  H  228  1  0.24805600  0.44998250  0.54804000  1
  H  229  1  0.31883800  0.66320050  0.52345300  1
  H  230  1  0.29667600  0.69970350  0.51390400  1
  H  231  1  0.37713800  0.68359600  0.45913000  1
  H  232  1  0.35454200  0.72027650  0.44962050  1
  H  309  1  0.63263200  0.72057350  0.90829450  1
  H  310  1  0.62312800  0.68358300  0.93567100  1
  H  311  1  0.78014600  0.70370100  0.87451050  1
  H  312  1  0.77029000  0.66670850  0.90170500  1
  H  313  1  0.80808100  0.64608350  0.94164300  1
  H  314  1  0.80748100  0.60943500  0.97017300  1
  H  315  1  0.58117800  0.64623650  0.94095200  1
  H  316  1  0.58084000  0.60951650  0.96966150  1
  H  317  1  0.68016800  0.61176850  0.00721300  1
  H  318  1  0.68051100  0.59276200  0.04797950  1
  H  319  1  0.70371900  0.54729800  0.02999450  1
  H  320  1  0.70436400  0.51376300  0.03144700  1
  H  321  1  0.70632300  0.58691350  0.94801350  1
  H  322  1  0.70881300  0.55074700  0.94958000  1
  H  323  1  0.80294000  0.49731200  0.97973100  1
  H  324  1  0.79785300  0.48719300  0.95246200  1
  H  325  1  0.58453100  0.51544250  0.96873150  1
  H  326  1  0.57960100  0.50564700  0.94139100  1
  H  327  1  0.68058000  0.46839150  0.01336400  1
  H  328  1  0.67845700  0.44939150  0.05411450  1
  H  329  1  0.70488300  0.51032850  0.11186950  1
  H  330  1  0.70245400  0.47416300  0.11342900  1
  H  331  1  0.57807600  0.45171950  0.09101150  1
  H  332  1  0.57710000  0.41488000  0.11946450  1
  H  333  1  0.80471100  0.45149000  0.09182800  1
  H  334  1  0.80400500  0.41473250  0.12010850  1
  H  335  1  0.76363900  0.39358250  0.15983200  1
  H  336  1  0.77287000  0.35638050  0.18649000  1
  H  337  1  0.62879900  0.34056550  0.15109150  1
  H  338  1  0.61990800  0.37776750  0.12425750  1
  H  339  1  0.80089200  0.56303550  0.08254200  1
  H  340  1  0.79468700  0.57274950  0.11009600  1
  H  341  1  0.64587300  0.53846750  0.15813350  1
  H  342  1  0.62326100  0.54730300  0.18558000  1
  H  343  1  0.68498500  0.61156550  0.14325850  1
  H  344  1  0.70807500  0.60278000  0.11559400  1
  H  345  1  0.57515000  0.55563250  0.11950250  1
  H  346  1  0.58123100  0.54622250  0.09189850  1
  H  347  1  0.65295800  0.52170950  0.90322300  1
  H  348  1  0.63074200  0.51222150  0.87622650  1
  H  349  1  0.70988900  0.45726900  0.94718200  1
  H  350  1  0.68720700  0.44783000  0.91997300  1
  H  361  1  0.87552600  0.26044300  0.21390500  1
  H  362  1  0.80699300  0.28881100  0.18592750  1
  H  369  1  0.84827200  0.18969500  0.29957300  1
  H  370  1  0.00418400  0.23860650  0.28031100  1
  H  371  1  0.93301700  0.26171450  0.24976250  1
  H  372  1  0.72183100  0.25450100  0.25969700  1
  H  381  1  0.99698900  0.20743200  0.31812050  1
  H  382  1  0.65122500  0.30493950  0.18130750  1
  H  389  1  0.20873600  0.21205450  0.61565050  1
  H  390  1  0.14014900  0.18403700  0.61535000  1
  H  397  1  0.18137600  0.29776500  0.60055400  1
  H  398  1  0.33743600  0.27849150  0.57093800  1
  H  399  1  0.26636600  0.24790950  0.57842150  1
  H  400  1  0.05528400  0.25783100  0.57562100  1
  H  409  1  0.33032300  0.31628950  0.56430550  1
  H  410  1  0.98688400  0.17876000  0.60445150  1
  H  417  1  0.54216600  0.61373050  0.26227450  1
  H  418  1  0.47364900  0.61334150  0.29064400  1
  H  425  1  0.51495200  0.59880650  0.19152950  1
  H  426  1  0.67087400  0.56917600  0.24044750  1
  H  427  1  0.59966400  0.57661550  0.26354950  1
  H  428  1  0.38843900  0.57389950  0.25632500  1
  H  437  1  0.66379500  0.56254600  0.20926500  1
  H  438  1  0.31758700  0.60175250  0.30678250  1
  H  445  1  0.88153500  0.79993950  0.84473500  1
  H  446  1  0.81287800  0.77188800  0.87299750  1
  H  453  1  0.85403400  0.86987600  0.75865300  1
  H  454  1  0.00958800  0.82078350  0.77843000  1
  H  455  1  0.93855200  0.79802850  0.80915050  1
  H  456  1  0.72732900  0.80526500  0.79931600  1
  H  465  1  0.00305800  0.85161600  0.74054100  1
  H  466  1  0.65646200  0.75590150  0.87780800  1
  H  473  1  0.21508700  0.84290700  0.44529550  1
  H  474  1  0.14648900  0.87114600  0.44514750  1
  H  481  1  0.18760300  0.75685900  0.46130650  1
  H  482  1  0.34303200  0.77660350  0.49066800  1
  H  483  1  0.27196600  0.80731000  0.48272550  1
  H  484  1  0.06066400  0.79748700  0.48525000  1
  H  493  1  0.33652900  0.73873900  0.49769850  1
  H  494  1  0.98873600  0.87560400  0.45666050  1
  H  501  1  0.54834200  0.44342200  0.80176750  1
  H  502  1  0.47969000  0.44320000  0.77372150  1
  H  509  1  0.52082500  0.45958700  0.87169700  1
  H  510  1  0.67627100  0.48891800  0.82258150  1
  H  511  1  0.60524900  0.48092550  0.79984550  1
  H  512  1  0.39402000  0.48348400  0.80711050  1
  H  521  1  0.66995700  0.49594300  0.85340800  1
  H  522  1  0.32326400  0.45434200  0.75774800  1
  N  4  1  0.02909300  0.02759850  0.49971100  1
  N  8  1  0.02930000  0.99396800  0.54731400  1
  N  14  1  0.02913100  0.03018150  0.55764550  1
  N  20  1  0.02801400  0.06381050  0.51005050  1
  N  115  1  0.96506700  0.17908450  0.32297550  1
  N  116  1  0.05449800  0.87218200  0.48019000  1
  N  117  1  0.96989500  0.88008200  0.73501450  1
  N  118  1  0.04683800  0.18430550  0.57907950  1
  N  122  1  0.36270400  0.49783700  0.56266700  1
  N  126  1  0.36264200  0.54545550  0.54868550  1
  N  132  1  0.36227700  0.55578750  0.50214100  1
  N  138  1  0.36121800  0.50818850  0.51610400  1
  N  233  1  0.29815700  0.32118300  0.58775250  1
  N  234  1  0.38714000  0.47843750  0.73758700  1
  N  235  1  0.30345800  0.73320250  0.47475500  1
  N  236  1  0.38151700  0.57745550  0.32656350  1
  N  240  1  0.69578800  0.56081700  0.02940950  1
  N  244  1  0.69604600  0.54683700  0.99577800  1
  N  250  1  0.69568700  0.50029400  0.03199050  1
  N  256  1  0.69441400  0.51425900  0.06562350  1
  N  351  1  0.63175700  0.58602000  0.18092750  1
  N  352  1  0.72046200  0.73574500  0.87389800  1
  N  353  1  0.63671900  0.47304550  0.88188600  1
  N  354  1  0.71468100  0.32473350  0.18594100  1
  N  373  1  0.75761900  0.21108350  0.26722400  1
  N  374  1  0.63449300  0.28393550  0.23467300  1
  N  401  1  0.09085500  0.26537450  0.61156200  1
  N  402  1  0.96789000  0.23276250  0.57130300  1
  N  429  1  0.42425600  0.60977100  0.21290800  1
  N  430  1  0.30111900  0.56949200  0.28576100  1
  N  457  1  0.76362000  0.84889400  0.79116050  1
  N  458  1  0.63983300  0.77609800  0.82467950  1
  N  485  1  0.09713800  0.78934950  0.44980250  1
  N  486  1  0.97321700  0.82282350  0.48911400  1
  N  513  1  0.43043300  0.44802800  0.85073800  1
  N  514  1  0.30651700  0.48727150  0.77795250  1
  O  375  1  0.71504200  0.20601350  0.28261950  1
  O  376  1  0.57952900  0.28200750  0.22564200  1
  O  377  1  0.76554000  0.19513950  0.26461500  1
  O  378  1  0.63769300  0.30285550  0.23134250  1
  O  403  1  0.04818000  0.28074350  0.60123250  1
  O  404  1  0.91294600  0.22374700  0.58228300  1
  O  405  1  0.09879600  0.26280100  0.63009950  1
  O  406  1  0.97103800  0.22939600  0.55573600  1
  O  431  1  0.38169900  0.59944550  0.20783450  1
  O  432  1  0.24615000  0.58045400  0.28383200  1
  O  433  1  0.43217600  0.62832350  0.19696300  1
  O  434  1  0.30432800  0.55390400  0.30468200  1
  O  459  1  0.72081500  0.85379100  0.77585300  1
  O  460  1  0.58503000  0.77830200  0.83359200  1
  O  461  1  0.77188100  0.86500000  0.79348550  1
  O  462  1  0.64268100  0.75705350  0.82835550  1
  O  487  1  0.05438600  0.77402400  0.46020400  1
  O  488  1  0.91841000  0.83175650  0.47801050  1
  O  489  1  0.10540500  0.79170300  0.43136200  1
  O  490  1  0.97609500  0.82645950  0.50450850  1
  O  515  1  0.38760200  0.45843400  0.85563500  1
  O  516  1  0.25174400  0.47614550  0.78015900  1
  O  517  1  0.43875500  0.42960350  0.86684550  1
  O  518  1  0.30932400  0.50264300  0.75890850  1
