# generated using pymatgen
data_ZnH3C8SO7
_symmetry_space_group_name_H-M   'P 1'
_cell_length_a   11.26634000
_cell_length_b   11.93634000
_cell_length_c   12.62098000
_cell_angle_alpha   89.87426000
_cell_angle_beta   95.08190000
_cell_angle_gamma   89.69728000
_symmetry_Int_Tables_number   1
_chemical_formula_structural   ZnH3C8SO7
_chemical_formula_sum   'Zn4 H12 C32 S4 O28'
_cell_volume   1690.55368313
_cell_formula_units_Z   4
loop_
 _symmetry_equiv_pos_site_id
 _symmetry_equiv_pos_as_xyz
  1  'x, y, z'
loop_
 _atom_site_type_symbol
 _atom_site_label
 _atom_site_symmetry_multiplicity
 _atom_site_fract_x
 _atom_site_fract_y
 _atom_site_fract_z
 _atom_site_occupancy
  Zn  Zn0  1  0.15783000  0.96896000  0.97886000  1
  Zn  Zn1  1  0.34237000  0.47017000  0.52166000  1
  Zn  Zn2  1  0.84225000  0.03114000  0.02128000  1
  Zn  Zn3  1  0.65764000  0.52986000  0.47840000  1
  H  H4  1  0.31432000  0.21282000  0.35218000  1
  H  H5  1  0.67135000  0.26576000  0.26365000  1
  H  H6  1  0.45623000  0.00146000  0.11588000  1
  H  H7  1  0.18531000  0.71299000  0.14945000  1
  H  H8  1  0.82785000  0.76755000  0.23756000  1
  H  H9  1  0.04304000  0.49991000  0.38421000  1
  H  H10  1  0.68563000  0.78714000  0.64779000  1
  H  H11  1  0.32862000  0.73435000  0.73631000  1
  H  H12  1  0.54371000  0.99860000  0.88406000  1
  H  H13  1  0.81452000  0.28719000  0.85014000  1
  H  H14  1  0.17212000  0.23248000  0.76260000  1
  H  H15  1  0.95732000  0.50029000  0.61571000  1
  C  C16  1  0.37381000  0.10209000  0.23221000  1
  C  C17  1  0.38678000  0.18969000  0.30520000  1
  C  C18  1  0.49448000  0.24921000  0.31573000  1
  C  C19  1  0.50881000  0.34570000  0.39075000  1
  C  C20  1  0.58809000  0.21959000  0.25498000  1
  C  C21  1  0.57386000  0.13009000  0.18343000  1
  C  C22  1  0.46658000  0.07071000  0.17164000  1
  C  C23  1  0.67276000  0.09676000  0.12091000  1
  C  C24  1  0.12592000  0.60107000  0.26839000  1
  C  C25  1  0.11287000  0.69001000  0.19635000  1
  C  C26  1  0.00513000  0.75050000  0.18610000  1
  C  C27  1  0.99093000  0.84793000  0.11162000  1
  C  C28  1  0.91132000  0.72081000  0.24638000  1
  C  C29  1  0.92569000  0.63024000  0.31728000  1
  C  C30  1  0.03308000  0.56987000  0.32878000  1
  C  C31  1  0.82689000  0.59651000  0.37951000  1
  C  C32  1  0.62613000  0.89791000  0.76779000  1
  C  C33  1  0.61317000  0.81037000  0.69475000  1
  C  C34  1  0.50548000  0.75090000  0.68420000  1
  C  C35  1  0.49115000  0.65438000  0.60921000  1
  C  C36  1  0.41186000  0.78051000  0.74493000  1
  C  C37  1  0.42606000  0.86999000  0.81652000  1
  C  C38  1  0.53331000  0.92936000  0.82828000  1
  C  C39  1  0.32714000  0.90331000  0.87905000  1
  C  C40  1  0.87402000  0.39909000  0.73127000  1
  C  C41  1  0.88700000  0.31015000  0.80334000  1
  C  C42  1  0.99472000  0.24960000  0.81371000  1
  C  C43  1  0.00894000  0.15224000  0.88828000  1
  C  C44  1  0.08865000  0.27923000  0.75360000  1
  C  C45  1  0.07439000  0.36978000  0.68269000  1
  C  C46  1  0.96705000  0.43030000  0.67112000  1
  C  C47  1  0.17322000  0.40350000  0.62053000  1
  S  S48  1  0.23749000  0.02666000  0.21515000  1
  S  S49  1  0.26263000  0.52431000  0.28485000  1
  S  S50  1  0.76247000  0.97329000  0.78488000  1
  S  S51  1  0.73715000  0.47583000  0.71522000  1
  O  O52  1  0.17660000  0.06843000  0.10954000  1
  O  O53  1  0.16662000  0.05762000  0.30218000  1
  O  O54  1  0.26859000  0.90750000  0.20643000  1
  O  O55  1  0.58906000  0.41718000  0.37551000  1
  O  O56  1  0.43976000  0.34852000  0.46572000  1
  O  O57  1  0.77457000  0.14359000  0.13277000  1
  O  O58  1  0.66059000  0.01710000  0.05213000  1
  O  O59  1  0.32443000  0.56588000  0.39001000  1
  O  O60  1  0.33295000  0.55438000  0.19716000  1
  O  O61  1  0.23168000  0.40554000  0.29568000  1
  O  O62  1  0.91062000  0.91985000  0.12697000  1
  O  O63  1  0.05996000  0.85074000  0.03657000  1
  O  O64  1  0.72560000  0.64558000  0.36985000  1
  O  O65  1  0.83894000  0.51414000  0.44584000  1
  O  O66  1  0.82312000  0.93156000  0.89059000  1
  O  O67  1  0.83340000  0.94232000  0.69795000  1
  O  O68  1  0.73146000  0.09247000  0.79362000  1
  O  O69  1  0.41099000  0.58288000  0.62452000  1
  O  O70  1  0.56023000  0.65153000  0.53424000  1
  O  O71  1  0.22537000  0.85645000  0.86732000  1
  O  O72  1  0.33942000  0.98293000  0.94788000  1
  O  O73  1  0.67383000  0.43419000  0.61070000  1
  O  O74  1  0.66725000  0.44586000  0.80322000  1
  O  O75  1  0.76843000  0.59454000  0.70444000  1
  O  O76  1  0.08924000  0.08026000  0.87298000  1
  O  O77  1  0.93995000  0.14949000  0.96339000  1
  O  O78  1  0.27452000  0.35445000  0.63015000  1
  O  O79  1  0.16108000  0.48579000  0.55414000  1
