# generated using pymatgen
data_H9C13N4O3
_symmetry_space_group_name_H-M   'P 1'
_cell_length_a   15.00737500
_cell_length_b   15.00735000
_cell_length_c   90.04420000
_cell_angle_alpha   90.00000000
_cell_angle_beta   90.00000000
_cell_angle_gamma   119.99983468
_symmetry_Int_Tables_number   1
_chemical_formula_structural   H9C13N4O3
_chemical_formula_sum   'H108 C156 N48 O36'
_cell_volume   17562.88449057
_cell_formula_units_Z   12
loop_
 _symmetry_equiv_pos_site_id
 _symmetry_equiv_pos_as_xyz
  1  'x, y, z'
loop_
 _atom_site_type_symbol
 _atom_site_label
 _atom_site_symmetry_multiplicity
 _atom_site_fract_x
 _atom_site_fract_y
 _atom_site_fract_z
 _atom_site_occupancy
  C  1  1  0.06235950  0.03748550  0.91137800  1
  C  2  1  0.15148100  0.13735900  0.91153400  1
  C  3  1  0.22375950  0.17940750  0.89973300  1
  C  4  1  0.20419100  0.11650100  0.88695200  1
  C  5  1  0.11475150  0.01810550  0.88602800  1
  C  6  1  0.04580950  0.98066350  0.89810000  1
  C  9  1  0.99310600  0.99657800  0.92376500  1
  C  10  1  0.02574600  0.03532800  0.93830800  1
  C  11  1  0.95992850  0.99972450  0.95070600  1
  C  12  1  0.85639150  0.92093950  0.94872800  1
  C  13  1  0.81973350  0.87351050  0.93461200  1
  C  14  1  0.88950550  0.91457550  0.92248500  1
  C  21  1  0.71733550  0.78938650  0.93263800  1
  C  22  1  0.08431650  0.96408350  0.87233900  1
  C  23  1  0.99970900  0.04145400  0.96497300  1
  C  24  1  0.31223650  0.27989450  0.90074100  1
  C  29  1  0.97826700  0.94045900  0.24451500  1
  C  30  1  0.98912250  0.85139650  0.24466700  1
  C  31  1  0.95863450  0.77894850  0.23288500  1
  C  32  1  0.91487950  0.79828950  0.22013200  1
  C  33  1  0.90561900  0.88755400  0.21922900  1
  C  34  1  0.93747900  0.95674200  0.23126900  1
  C  37  1  0.00696300  0.00986800  0.25688400  1
  C  38  1  0.01334650  0.97733050  0.27142100  1
  C  39  1  0.04389050  0.04329150  0.28380200  1
  C  40  1  0.06873300  0.14685400  0.28182300  1
  C  41  1  0.05763450  0.18336950  0.26771400  1
  C  42  1  0.02869100  0.11350600  0.25559600  1
  C  49  1  0.07593050  0.28576850  0.26573000  1
  C  50  1  0.88128750  0.91752850  0.20556600  1
  C  51  1  0.04585200  0.00344600  0.29805800  1
  C  52  1  0.97076250  0.69053750  0.23388900  1
  C  57  1  0.96500600  0.02402300  0.57801400  1
  C  58  1  0.86508650  0.01316250  0.57816700  1
  C  59  1  0.82303050  0.04340350  0.56636900  1
  C  60  1  0.88601050  0.08691050  0.55359900  1
  C  61  1  0.98454300  0.09618700  0.55269500  1
  C  62  1  0.02192750  0.06449450  0.56475000  1
  C  65  1  0.00588900  0.99561800  0.59039700  1
  C  66  1  0.96712400  0.98949300  0.60493900  1
  C  67  1  0.00270850  0.95924050  0.61733100  1
  C  68  1  0.08147700  0.93446800  0.61535600  1
  C  69  1  0.12892300  0.94526700  0.60124000  1
  C  70  1  0.08788650  0.97401650  0.58911400  1
  C  77  1  0.21304900  0.92699000  0.59926900  1
  C  78  1  0.03873150  0.11996350  0.53902100  1
  C  79  1  0.96100550  0.95733950  0.63159700  1
  C  80  1  0.72250050  0.03129550  0.56737000  1
  C  85  1  0.04586300  0.97711200  0.42361100  1
  C  86  1  0.03305100  0.87641700  0.42337800  1
  C  87  1  0.05617300  0.83071700  0.43550400  1
  C  88  1  0.09467900  0.89107100  0.44862100  1
  C  89  1  0.10718300  0.99092800  0.44945000  1
  C  90  1  0.08149700  0.03158900  0.43715600  1
  C  93  1  0.02538900  0.02200100  0.41094100  1
  C  94  1  0.02912150  0.98799650  0.39639900  1
  C  95  1  0.01131500  0.03130100  0.38372000  1
  C  96  1  0.98616650  0.10994450  0.38527000  1
  C  97  1  0.98443150  0.15033750  0.39951800  1
  C  98  1  0.00370550  0.10409450  0.41197900  1
  C  105  1  0.96336800  0.23274600  0.40124400  1
  C  106  1  0.12900900  0.04396900  0.46317300  1
  C  107  1  0.02425200  0.99847000  0.36958200  1
  C  108  1  0.04300450  0.72975350  0.43446900  1
  C  113  1  0.02436450  0.06754850  0.09013300  1
  C  114  1  0.12508900  0.15538600  0.08991200  1
  C  115  1  0.17080400  0.22408100  0.10205100  1
  C  116  1  0.11044950  0.20216850  0.11516900  1
  C  117  1  0.01050450  0.11491750  0.11598600  1
  C  118  1  0.96988350  0.04866650  0.10367800  1
  C  121  1  0.97943550  0.00222750  0.07745700  1
  C  122  1  0.01354450  0.03982850  0.06291200  1
  C  123  1  0.97030850  0.97868850  0.05022900  1
  C  124  1  0.89135600  0.87503000  0.05179200  1
  C  125  1  0.85087300  0.83298900  0.06604000  1
  C  126  1  0.89714100  0.89854500  0.07849700  1
  C  133  1  0.76837850  0.72955050  0.06777000  1
  C  134  1  0.95728450  0.08349650  0.12970100  1
  C  135  1  0.00348300  0.02407700  0.03606900  1
  C  136  1  0.27177100  0.31187500  0.10103000  1
  C  141  1  0.93395450  0.95584850  0.75682000  1
  C  142  1  0.84593150  0.96844050  0.75657300  1
  C  143  1  0.77703950  0.94522450  0.76869100  1
  C  144  1  0.79891950  0.90682650  0.78181600  1
  C  145  1  0.88642150  0.89460150  0.78265600  1
  C  146  1  0.95292000  0.92046300  0.77038000  1
  C  149  1  0.99937500  0.97643500  0.74415000  1
  C  150  1  0.96172900  0.97281900  0.72960400  1
  C  151  1  0.02289450  0.99080250  0.71692200  1
  C  152  1  0.12668550  0.01594750  0.71848500  1
  C  153  1  0.16873200  0.01753800  0.73273500  1
  C  154  1  0.10316100  0.99816300  0.74519100  1
  C  161  1  0.27220050  0.03861950  0.73447700  1
  C  162  1  0.91794850  0.87367650  0.79641300  1
  C  163  1  0.97726050  0.97820250  0.70277600  1
  C  164  1  0.68919500  0.95829600  0.76765200  1
  C  169  1  0.12081750  0.06492350  0.01619000  1
  C  170  1  0.14835900  0.00014200  0.00859000  1
  C  171  1  0.14354850  0.99467750  0.99290300  1
  C  172  1  0.11126750  0.05678150  0.98526700  1
  C  176  1  0.16343100  0.91924400  0.98504900  1
  C  184  1  0.94590950  0.88349850  0.34938900  1
  C  185  1  0.85356750  0.85484050  0.34171900  1
  C  186  1  0.85335100  0.85971800  0.32602900  1
  C  187  1  0.94815600  0.89307400  0.31845400  1
  C  191  1  0.75785500  0.83862400  0.31811100  1
  C  199  1  0.93767100  0.05538100  0.68282800  1
  C  200  1  0.00223550  0.14779750  0.67523000  1
  C  201  1  0.00795850  0.14837250  0.65954600  1
  C  202  1  0.94611350  0.05393550  0.65190800  1
  C  206  1  0.08333350  0.24374450  0.65169700  1
  C  214  1  0.59018150  0.63679650  0.91865200  1
  C  215  1  0.49557500  0.62009300  0.92453000  1
  C  216  1  0.40228700  0.52745300  0.92182100  1
  C  217  1  0.40490100  0.45088600  0.91273600  1
  C  221  1  0.30532600  0.51372100  0.92846000  1
  C  229  1  0.05006450  0.41281350  0.25178200  1
  C  230  1  0.12790650  0.50743350  0.25766600  1
  C  231  1  0.12849800  0.60068800  0.25495300  1
  C  232  1  0.04927950  0.59801150  0.24587000  1
  C  236  1  0.21167900  0.69767200  0.26159400  1
  C  244  1  0.36565300  0.95240000  0.58528900  1
  C  245  1  0.38237750  0.87453450  0.59117900  1
  C  246  1  0.47498500  0.87384000  0.58846100  1
  C  247  1  0.55152450  0.95297150  0.57936800  1
  C  251  1  0.48872600  0.79062800  0.59510600  1
  C  259  1  0.97696700  0.37921800  0.41561700  1
  C  260  1  0.90347100  0.39788900  0.40860600  1
  C  261  1  0.90036750  0.48927950  0.41133000  1
  C  262  1  0.97263550  0.56263050  0.42152300  1
  C  266  1  0.82188000  0.50516900  0.40354300  1
  C  274  1  0.62214350  0.59662250  0.08217000  1
  C  275  1  0.60361850  0.50445650  0.07517500  1
  C  276  1  0.51225850  0.40992650  0.07789100  1
  C  277  1  0.43885700  0.40877700  0.08808000  1
  C  281  1  0.49646700  0.31558000  0.07010500  1
  C  289  1  0.40490150  0.02473650  0.74884200  1
  C  290  1  0.49712150  0.09835850  0.74185700  1
  C  291  1  0.59156050  0.10131250  0.74456200  1
  C  292  1  0.59254550  0.02884250  0.75472500  1
  C  296  1  0.68598350  0.17986450  0.73679000  1
  C  304  1  0.99726250  0.96038850  0.81915200  1
  C  305  1  0.00518500  0.04650600  0.82666600  1
  C  306  1  0.00454550  0.04886750  0.84232200  1
  C  307  1  0.99940450  0.96380050  0.85001800  1
  C  311  1  0.01151550  0.13915050  0.85020700  1
  C  319  1  0.96102800  0.00154000  0.15220900  1
  C  320  1  0.04038600  0.99488700  0.15958200  1
  C  321  1  0.04474100  0.99634100  0.17523200  1
  C  322  1  0.96500650  0.00100850  0.18306500  1
  C  326  1  0.12911200  0.99042800  0.18297000  1
  C  334  1  0.04276300  0.04023600  0.48567600  1
  C  335  1  0.95656450  0.96106050  0.49304300  1
  C  336  1  0.95356300  0.95670600  0.50869100  1
  C  337  1  0.03802400  0.03630900  0.51653200  1
  C  341  1  0.86316750  0.87240450  0.51642100  1
  H  7  1  0.16461700  0.18194600  0.92066300  1
  H  16  1  0.86065000  0.88922300  0.91213100  1
  H  17  1  0.24370550  0.19562150  0.86922300  1
  H  18  1  0.76008050  0.92003950  0.96239300  1
  H  19  1  0.98429600  0.90788200  0.89718900  1
  H  20  1  0.10080800  0.08901000  0.94025400  1
  H  35  1  0.02090300  0.83848100  0.25377700  1
  H  44  1  0.03182350  0.14217550  0.24523900  1
  H  45  1  0.95397650  0.75890950  0.20234500  1
  H  46  1  0.16437000  0.24317600  0.29546400  1
  H  47  1  0.92622400  0.01826700  0.23036100  1
  H  48  1  0.99165600  0.90219600  0.27338400  1
  H  63  1  0.82046650  0.98158550  0.58729000  1
  H  72  1  0.11324900  0.97054900  0.57875900  1
  H  73  1  0.80718700  0.04728000  0.53584500  1
  H  74  1  0.08227400  0.83900500  0.62902200  1
  H  75  1  0.09473350  0.07581850  0.56384200  1
  H  76  1  0.91348100  0.01093000  0.60688800  1
  H  91  1  0.00527700  0.83422400  0.41394600  1
  H  100  1  0.99284200  0.12528500  0.42227100  1
  H  101  1  0.04526600  0.81345300  0.46637800  1
  H  102  1  0.89944450  0.10428250  0.36956000  1
  H  103  1  0.09429200  0.10496800  0.43807100  1
  H  104  1  0.05340400  0.93614900  0.39471200  1
  H  119  1  0.16729900  0.16988000  0.08048100  1
  H  128  1  0.87593900  0.86644900  0.08878500  1
  H  129  1  0.18805650  0.22992250  0.13291800  1
  H  130  1  0.89708200  0.79366100  0.03612900  1
  H  131  1  0.89641250  0.98823150  0.10458000  1
  H  132  1  0.06579450  0.11583450  0.06122000  1
  H  147  1  0.83144550  0.99612850  0.74713800  1
  H  156  1  0.13518700  0.00898300  0.75548200  1
  H  157  1  0.77006750  0.95596150  0.79954700  1
  H  158  1  0.20795050  0.10319450  0.70283200  1
  H  159  1  0.01372000  0.90803700  0.77132600  1
  H  160  1  0.88559850  0.94849250  0.72791200  1
  H  174  1  0.16322550  0.95092350  0.01454600  1
  H  177  1  0.18498800  0.87633100  0.99262000  1
  H  178  1  0.22625500  0.95946300  0.97714300  1
  H  179  1  0.09446500  0.86388900  0.97906800  1
  H  181  1  0.14422700  0.03920100  0.03734200  1
  H  183  1  0.12093500  0.01947600  0.96408700  1
  H  189  1  0.78904150  0.83911250  0.34762600  1
  H  192  1  0.69299500  0.81618200  0.32563800  1
  H  193  1  0.73626900  0.77601200  0.31019900  1
  H  194  1  0.77070900  0.90732500  0.31212800  1
  H  196  1  0.89531500  0.85974200  0.37047200  1
  H  198  1  0.90157200  0.88376400  0.29727000  1
  H  204  1  0.05142950  0.21184050  0.68119400  1
  H  207  1  0.12599200  0.30827900  0.65926700  1
  H  208  1  0.04310350  0.26615450  0.64376400  1
  H  209  1  0.13890900  0.23030400  0.64574700  1
  H  211  1  0.96311600  0.10475300  0.70392700  1
  H  213  1  0.98377950  0.10083450  0.63072700  1
  H  219  1  0.49323100  0.67692600  0.93040700  1
  H  222  1  0.31694800  0.58043800  0.93488200  1
  H  223  1  0.27247200  0.44750300  0.93591400  1
  H  224  1  0.25007850  0.50102250  0.91967600  1
  H  226  1  0.74024250  0.72294250  0.91492000  1
  H  228  1  0.25705100  0.34362700  0.91462500  1
  H  234  1  0.18715400  0.50983500  0.26353000  1
  H  237  1  0.26678350  0.68608950  0.26802000  1
  H  238  1  0.17826800  0.73049400  0.26904600  1
  H  239  1  0.25422450  0.75292950  0.25281200  1
  H  241  1  0.98627850  0.26278150  0.24805100  1
  H  243  1  0.08984050  0.74585350  0.24774500  1
  H  249  1  0.32552850  0.81533750  0.59705000  1
  H  252  1  0.42202800  0.73556900  0.60153400  1
  H  253  1  0.55497000  0.82401600  0.60255400  1
  H  254  1  0.50138550  0.74803550  0.58632400  1
  H  256  1  0.27946400  0.01629500  0.58155100  1
  H  258  1  0.65880350  0.91240850  0.58126200  1
  H  264  1  0.84904000  0.34321100  0.40186200  1
  H  267  1  0.77153500  0.44066600  0.39637900  1
  H  268  1  0.85996700  0.57383200  0.39659200  1
  H  269  1  0.77347350  0.51483850  0.41168100  1
  H  271  1  0.03843950  0.29210350  0.42028100  1
  H  273  1  0.93398650  0.67094050  0.41896900  1
  H  279  1  0.65826800  0.50478100  0.06841600  1
  H  282  1  0.56100800  0.32979400  0.06294600  1
  H  283  1  0.42782500  0.28497100  0.06314900  1
  H  284  1  0.48681100  0.25751200  0.07824400  1
  H  286  1  0.70914300  0.74531000  0.08681000  1
  H  288  1  0.33061300  0.26178900  0.08551800  1
  H  294  1  0.49690250  0.15282950  0.73511800  1
  H  297  1  0.67188850  0.23034750  0.72964800  1
  H  298  1  0.71652600  0.14183600  0.72982200  1
  H  299  1  0.74405900  0.22812100  0.74494000  1
  H  301  1  0.25629400  0.96323500  0.75349300  1
  H  303  1  0.73951050  0.06749350  0.75217800  1
  H  309  1  0.00814500  0.10591800  0.82067700  1
  H  312  1  0.01900800  0.19911000  0.84258200  1
  H  313  1  0.07834300  0.17279900  0.85753100  1
  H  314  1  0.94229550  0.11503950  0.85683700  1
  H  316  1  0.02903350  0.02156750  0.79881400  1
  H  318  1  0.96127850  0.98321850  0.87048100  1
  H  324  1  0.09660650  0.99221550  0.15349100  1
  H  327  1  0.18122650  0.98308950  0.17525500  1
  H  328  1  0.09695900  0.92389700  0.19035100  1
  H  329  1  0.17437450  0.06000450  0.18952300  1
  H  331  1  0.98729150  0.96752150  0.13186000  1
  H  333  1  0.02412100  0.03966500  0.20341000  1
  H  339  1  0.89768750  0.90486150  0.48694600  1
  H  342  1  0.80369250  0.82039950  0.50870000  1
  H  343  1  0.82887350  0.90463250  0.52380300  1
  H  344  1  0.88733900  0.82701300  0.52297100  1
  H  346  1  0.98284150  0.01375950  0.46531600  1
  H  348  1  0.01716900  0.97703300  0.53691700  1
  N  173  1  0.09280550  0.12177650  0.99352100  1
  N  175  1  0.09647150  0.12545850  0.00796700  1
  N  180  1  0.09995550  0.05338750  0.03101000  1
  N  182  1  0.08671800  0.04565900  0.97044000  1
  N  188  1  0.03158600  0.91237200  0.32677400  1
  N  190  1  0.03119000  0.90864100  0.34121700  1
  N  195  1  0.95443450  0.90385350  0.36422800  1
  N  197  1  0.96194400  0.91799900  0.30363700  1
  N  203  1  0.88118550  0.97044250  0.66015700  1
  N  205  1  0.87735900  0.97044800  0.67460100  1
  N  210  1  0.94906050  0.04603450  0.69766100  1
  N  212  1  0.95759300  0.04048500  0.63709600  1
  N  218  1  0.49846150  0.47511050  0.90707400  1
  N  220  1  0.58388000  0.56079400  0.90972500  1
  N  225  1  0.68589500  0.72007400  0.92115900  1
  N  227  1  0.32032950  0.35645850  0.90993000  1
  N  233  1  0.97994900  0.50441900  0.24021500  1
  N  235  1  0.98028700  0.41903600  0.24286300  1
  N  240  1  0.03779900  0.31717200  0.25428300  1
  N  242  1  0.03936950  0.68254550  0.24306200  1
  N  248  1  0.52729500  0.02229800  0.57370200  1
  N  250  1  0.44162500  0.02205000  0.57635500  1
  N  255  1  0.28238700  0.96485200  0.58779300  1
  N  257  1  0.64594600  0.96281800  0.57656000  1
  N  263  1  0.03776500  0.53643100  0.42817800  1
  N  265  1  0.03970350  0.45186950  0.42554300  1
  N  270  1  0.99170300  0.29720600  0.41328700  1
  N  272  1  0.98065100  0.65620800  0.42441300  1
  N  278  1  0.46497950  0.50008350  0.09473500  1
  N  280  1  0.54947700  0.58664100  0.09209700  1
  N  285  1  0.70402750  0.69341750  0.07982600  1
  N  287  1  0.34532150  0.32315550  0.09096900  1
  N  293  1  0.50118950  0.96366050  0.76136700  1
  N  295  1  0.41472300  0.96180800  0.75874200  1
  N  300  1  0.30816900  0.01003900  0.74651100  1
  N  302  1  0.67807000  0.02075700  0.75760800  1
  N  308  1  0.99352350  0.88431250  0.84198400  1
  N  310  1  0.99167100  0.88223700  0.82747300  1
  N  315  1  0.99203800  0.95574900  0.80405300  1
  N  317  1  0.00271500  0.96036700  0.86509500  1
  N  323  1  0.89028000  0.00568800  0.17515100  1
  N  325  1  0.88874600  0.00679400  0.16064100  1
  N  330  1  0.95984450  0.00566450  0.13710900  1
  N  332  1  0.95927650  0.99790250  0.19815900  1
  N  338  1  0.11764550  0.11084050  0.50862500  1
  N  340  1  0.12038850  0.11233750  0.49411600  1
  N  345  1  0.04838300  0.04098600  0.47058000  1
  N  347  1  0.04082700  0.04179300  0.53162200  1
  O  8  1  0.26564000  0.15308600  0.87467500  1
  O  15  1  0.79757200  0.88226500  0.96120200  1
  O  25  1  0.64975350  0.76734850  0.94392400  1
  O  26  1  0.94023550  0.06461350  0.97364000  1
  O  27  1  0.39279250  0.30233250  0.89163900  1
  O  28  1  0.15568100  0.95219700  0.86475200  1
  O  36  1  0.88970650  0.73666550  0.20787000  1
  O  43  1  0.08907900  0.20565000  0.29430400  1
  O  53  1  0.12116150  0.35323050  0.27704000  1
  O  54  1  0.12872400  0.06275400  0.30669200  1
  O  55  1  0.91261100  0.60992500  0.22479800  1
  O  56  1  0.79735150  0.84602150  0.19811700  1
  O  64  1  0.84944750  0.11173150  0.54131500  1
  O  71  1  0.12010100  0.91427700  0.62783200  1
  O  81  1  0.23506300  0.88143600  0.61055700  1
  O  82  1  0.93758800  0.87460000  0.64025300  1
  O  83  1  0.69998900  0.08929700  0.55825500  1
  O  84  1  0.05116150  0.20407950  0.53162000  1
  O  92  1  0.11184600  0.85113100  0.46122300  1
  O  99  1  0.97132600  0.15041100  0.37254400  1
  O  109  1  0.92644850  0.25899550  0.38930600  1
  O  110  1  0.09428650  0.07318950  0.36059900  1
  O  111  1  0.09430400  0.70376700  0.44437100  1
  O  112  1  0.21382500  0.05850600  0.47058600  1
  O  120  1  0.15046250  0.25901550  0.12779000  1
  O  127  1  0.85098200  0.81953300  0.03907600  1
  O  137  1  0.74222850  0.66628350  0.05584400  1
  O  138  1  0.92915450  0.01861950  0.02692200  1
  O  139  1  0.29774500  0.38908600  0.11094400  1
  O  140  1  0.94330850  0.15436250  0.13705200  1
  O  148  1  0.74166800  0.88936300  0.79441000  1
  O  155  1  0.18219700  0.03122600  0.70576800  1
  O  165  1  0.33536350  0.07532850  0.72253400  1
  O  166  1  0.98341400  0.90968500  0.69363600  1
  O  167  1  0.61184550  0.90684650  0.77753800  1
  O  168  1  0.84892850  0.78730650  0.80365000  1
