# generated using pymatgen
data_Mn3H8C15N6O7
_symmetry_space_group_name_H-M   'P 1'
_cell_length_a   13.60342000
_cell_length_b   14.64121000
_cell_length_c   14.93128000
_cell_angle_alpha   90.00409000
_cell_angle_beta   75.72492000
_cell_angle_gamma   89.99064000
_symmetry_Int_Tables_number   1
_chemical_formula_structural   Mn3H8C15N6O7
_chemical_formula_sum   'Mn12 H32 C60 N24 O28'
_cell_volume   2882.04686865
_cell_formula_units_Z   4
loop_
 _symmetry_equiv_pos_site_id
 _symmetry_equiv_pos_as_xyz
  1  'x, y, z'
loop_
 _atom_site_type_symbol
 _atom_site_label
 _atom_site_symmetry_multiplicity
 _atom_site_fract_x
 _atom_site_fract_y
 _atom_site_fract_z
 _atom_site_occupancy
  Mn  Mn0  1  0.33195000  0.12213000  0.15535000  1
  Mn  Mn1  1  0.24545000  0.96369000  0.01873000  1
  Mn  Mn2  1  0.66778000  0.62170000  0.34565000  1
  Mn  Mn3  1  0.75462000  0.46365000  0.48281000  1
  Mn  Mn4  1  0.66805000  0.87787000  0.84464000  1
  Mn  Mn5  1  0.75454000  0.03632000  0.98127000  1
  Mn  Mn6  1  0.33221000  0.37830000  0.65435000  1
  Mn  Mn7  1  0.24538000  0.53635000  0.51718000  1
  Mn  Mn8  1  0.50000000  0.00000000  0.00000000  1
  Mn  Mn9  1  0.50000000  0.50000000  0.50000000  1
  Mn  Mn10  1  0.00000000  0.00000000  0.00000000  1
  Mn  Mn11  1  0.00000000  0.50000000  0.50000000  1
  H  H12  1  0.34662000  0.10014000  0.97027000  1
  H  H13  1  0.80725000  0.24912000  0.06782000  1
  H  H14  1  0.77877000  0.38370000  0.17588000  1
  H  H15  1  0.45893000  0.32410000  0.26898000  1
  H  H16  1  0.84516000  0.13361000  0.18403000  1
  H  H17  1  0.80669000  0.25168000  0.30976000  1
  H  H18  1  0.12127000  0.26787000  0.31716000  1
  H  H19  1  0.16722000  0.07589000  0.80764000  1
  H  H20  1  0.65315000  0.59996000  0.53127000  1
  H  H21  1  0.19265000  0.74918000  0.43210000  1
  H  H22  1  0.22094000  0.88404000  0.32426000  1
  H  H23  1  0.54069000  0.82463000  0.23070000  1
  H  H24  1  0.15447000  0.63245000  0.31628000  1
  H  H25  1  0.19323000  0.75144000  0.19144000  1
  H  H26  1  0.87877000  0.76886000  0.18415000  1
  H  H27  1  0.83460000  0.57552000  0.69305000  1
  H  H28  1  0.65338000  0.89986000  0.02973000  1
  H  H29  1  0.19275000  0.75088000  0.93217000  1
  H  H30  1  0.22123000  0.61630000  0.82412000  1
  H  H31  1  0.54107000  0.67591000  0.73102000  1
  H  H32  1  0.15484000  0.86639000  0.81596000  1
  H  H33  1  0.19331000  0.74833000  0.69024000  1
  H  H34  1  0.87873000  0.73214000  0.68284000  1
  H  H35  1  0.83277000  0.92411000  0.19236000  1
  H  H36  1  0.34684000  0.40005000  0.46872000  1
  H  H37  1  0.80735000  0.25082000  0.56790000  1
  H  H38  1  0.77905000  0.11597000  0.67574000  1
  H  H39  1  0.45931000  0.17538000  0.76930000  1
  H  H40  1  0.84553000  0.36755000  0.68372000  1
  H  H41  1  0.80677000  0.24857000  0.80856000  1
  H  H42  1  0.12123000  0.23114000  0.81584000  1
  H  H43  1  0.16540000  0.42449000  0.30694000  1
  C  C44  1  0.54832000  0.23448000  0.16153000  1
  C  C45  1  0.64750000  0.21229000  0.10854000  1
  C  C46  1  0.73252000  0.26592000  0.11056000  1
  C  C47  1  0.71619000  0.33987000  0.16992000  1
  C  C48  1  0.61851000  0.35886000  0.22787000  1
  C  C49  1  0.53297000  0.30772000  0.22417000  1
  C  C50  1  0.61009000  0.43269000  0.29833000  1
  C  C51  1  0.08448000  0.17377000  0.21603000  1
  C  C52  1  0.00605000  0.13625000  0.17964000  1
  C  C53  1  0.90425000  0.16303000  0.21242000  1
  C  C54  1  0.88382000  0.22783000  0.28165000  1
  C  C55  1  0.96165000  0.26594000  0.31893000  1
  C  C56  1  0.06288000  0.23924000  0.28711000  1
  C  C57  1  0.93101000  0.33757000  0.39209000  1
  C  C58  1  0.20675000  0.06233000  0.86234000  1
  C  C59  1  0.45162000  0.73484000  0.33856000  1
  C  C60  1  0.35245000  0.71258000  0.39145000  1
  C  C61  1  0.26727000  0.76610000  0.38937000  1
  C  C62  1  0.28353000  0.84005000  0.33009000  1
  C  C63  1  0.38120000  0.85899000  0.27220000  1
  C  C64  1  0.46690000  0.80791000  0.27572000  1
  C  C65  1  0.38995000  0.93277000  0.20170000  1
  C  C66  1  0.91521000  0.67373000  0.28469000  1
  C  C67  1  0.99366000  0.63571000  0.32071000  1
  C  C68  1  0.09549000  0.66235000  0.28807000  1
  C  C69  1  0.11610000  0.72748000  0.21917000  1
  C  C70  1  0.03831000  0.76606000  0.18216000  1
  C  C71  1  0.93702000  0.73958000  0.21395000  1
  C  C72  1  0.06905000  0.83776000  0.10905000  1
  C  C73  1  0.79525000  0.56222000  0.63809000  1
  C  C74  1  0.45168000  0.76553000  0.83847000  1
  C  C75  1  0.35250000  0.78772000  0.89146000  1
  C  C76  1  0.26747000  0.73408000  0.88943000  1
  C  C77  1  0.28380000  0.66013000  0.83008000  1
  C  C78  1  0.38149000  0.64114000  0.77213000  1
  C  C79  1  0.46703000  0.69229000  0.77582000  1
  C  C80  1  0.38991000  0.56732000  0.70167000  1
  C  C81  1  0.91552000  0.82624000  0.78396000  1
  C  C82  1  0.99395000  0.86375000  0.82036000  1
  C  C83  1  0.09575000  0.83698000  0.78758000  1
  C  C84  1  0.11618000  0.77218000  0.71835000  1
  C  C85  1  0.03835000  0.73407000  0.68107000  1
  C  C86  1  0.93712000  0.76077000  0.71288000  1
  C  C87  1  0.06898000  0.66244000  0.60791000  1
  C  C88  1  0.79325000  0.93767000  0.13766000  1
  C  C89  1  0.54838000  0.26517000  0.66144000  1
  C  C90  1  0.64754000  0.28742000  0.60854000  1
  C  C91  1  0.73273000  0.23391000  0.61063000  1
  C  C92  1  0.71646000  0.15995000  0.66991000  1
  C  C93  1  0.61880000  0.14102000  0.72780000  1
  C  C94  1  0.53310000  0.19210000  0.72427000  1
  C  C95  1  0.61005000  0.06723000  0.79830000  1
  C  C96  1  0.08478000  0.32627000  0.71531000  1
  C  C97  1  0.00634000  0.36430000  0.67929000  1
  C  C98  1  0.90451000  0.33765000  0.71192000  1
  C  C99  1  0.88390000  0.27252000  0.78082000  1
  C  C100  1  0.96169000  0.23395000  0.81784000  1
  C  C101  1  0.06298000  0.26043000  0.78605000  1
  C  C102  1  0.93094000  0.16225000  0.89095000  1
  C  C103  1  0.20474000  0.43779000  0.36191000  1
  N  N104  1  0.64001000  0.13397000  0.06062000  1
  N  N105  1  0.54258000  0.11069000  0.08125000  1
  N  N106  1  0.48373000  0.16948000  0.14072000  1
  N  N107  1  0.17352000  0.13278000  0.16900000  1
  N  N108  1  0.14869000  0.07318000  0.10906000  1
  N  N109  1  0.04988000  0.07417000  0.11324000  1
  N  N110  1  0.35995000  0.63426000  0.43931000  1
  N  N111  1  0.45746000  0.61113000  0.41888000  1
  N  N112  1  0.51627000  0.66998000  0.35952000  1
  N  N113  1  0.82618000  0.63256000  0.33145000  1
  N  N114  1  0.85106000  0.57237000  0.39085000  1
  N  N115  1  0.94986000  0.57319000  0.38661000  1
  N  N116  1  0.35999000  0.86603000  0.93938000  1
  N  N117  1  0.45742000  0.88932000  0.91875000  1
  N  N118  1  0.51627000  0.83053000  0.85928000  1
  N  N119  1  0.82648000  0.86722000  0.83099000  1
  N  N120  1  0.85131000  0.92683000  0.89094000  1
  N  N121  1  0.95012000  0.92584000  0.88676000  1
  N  N122  1  0.64004000  0.36575000  0.56069000  1
  N  N123  1  0.54254000  0.38887000  0.58112000  1
  N  N124  1  0.48373000  0.33003000  0.64047000  1
  N  N125  1  0.17382000  0.36744000  0.66855000  1
  N  N126  1  0.14893000  0.42764000  0.60914000  1
  N  N127  1  0.05014000  0.42682000  0.61339000  1
  O  O128  1  0.35519000  0.06484000  0.02425000  1
  O  O129  1  0.16596000  0.99633000  0.91950000  1
  O  O130  1  0.28325000  0.10687000  0.86637000  1
  O  O131  1  0.83728000  0.36126000  0.41065000  1
  O  O132  1  0.99646000  0.37055000  0.43090000  1
  O  O133  1  0.54665000  0.42142000  0.37525000  1
  O  O134  1  0.67066000  0.50143000  0.27685000  1
  O  O135  1  0.64457000  0.56504000  0.47707000  1
  O  O136  1  0.83605000  0.49652000  0.58048000  1
  O  O137  1  0.71850000  0.60644000  0.63401000  1
  O  O138  1  0.16276000  0.86142000  0.09042000  1
  O  O139  1  0.00348000  0.87095000  0.07049000  1
  O  O140  1  0.45354000  0.92157000  0.12500000  1
  O  O141  1  0.32928000  0.00158000  0.22322000  1
  O  O142  1  0.64480000  0.93516000  0.97575000  1
  O  O143  1  0.83404000  0.00367000  0.08050000  1
  O  O144  1  0.71675000  0.89313000  0.13363000  1
  O  O145  1  0.16272000  0.63874000  0.58934000  1
  O  O146  1  0.00353000  0.62946000  0.56910000  1
  O  O147  1  0.45335000  0.57858000  0.62475000  1
  O  O148  1  0.32933000  0.49858000  0.72315000  1
  O  O149  1  0.35543000  0.43496000  0.52293000  1
  O  O150  1  0.16395000  0.50348000  0.41952000  1
  O  O151  1  0.28149000  0.39356000  0.36598000  1
  O  O152  1  0.83724000  0.13858000  0.90958000  1
  O  O153  1  0.99652000  0.12906000  0.92950000  1
  O  O154  1  0.54645000  0.07843000  0.87500000  1
  O  O155  1  0.67072000  0.99843000  0.77677000  1
