# generated using pymatgen
data_InH7C12O5
_symmetry_space_group_name_H-M   'P 1'
_cell_length_a   7.33154000
_cell_length_b   22.27631000
_cell_length_c   22.27631000
_cell_angle_alpha   90.00000000
_cell_angle_beta   90.00000000
_cell_angle_gamma   90.00000000
_symmetry_Int_Tables_number   1
_chemical_formula_structural   InH7C12O5
_chemical_formula_sum   'In8 H56 C96 O40'
_cell_volume   3638.15932663
_cell_formula_units_Z   8
loop_
 _symmetry_equiv_pos_site_id
 _symmetry_equiv_pos_as_xyz
  1  'x, y, z'
loop_
 _atom_site_type_symbol
 _atom_site_label
 _atom_site_symmetry_multiplicity
 _atom_site_fract_x
 _atom_site_fract_y
 _atom_site_fract_z
 _atom_site_occupancy
  In  In1  1  0.00000000  0.75004000  0.24996000  1.0
  In  In2  1  0.00000000  0.24996000  0.75004000  1.0
  In  In3  1  0.00000000  0.24996000  0.24996000  1.0
  In  In4  1  0.00000000  0.75004000  0.75004000  1.0
  In  In5  1  0.50000000  0.75005000  0.24995000  1.0
  In  In6  1  0.50000000  0.24995000  0.75005000  1.0
  In  In7  1  0.50000000  0.24995000  0.24995000  1.0
  In  In8  1  0.50000000  0.75005000  0.75005000  1.0
  H  H1  1  0.51163000  0.73137000  0.05602000  1.0
  H  H2  1  0.94178000  0.82384000  0.11115000  1.0
  H  H3  1  0.69809000  0.87512000  0.05633000  1.0
  H  H4  1  0.24822000  0.81469000  0.68522000  1.0
  H  H5  1  0.51163000  0.26863000  0.94398000  1.0
  H  H6  1  0.94178000  0.17615000  0.88885000  1.0
  H  H7  1  0.69809000  0.12488000  0.94367000  1.0
  H  H8  1  0.51163000  0.44398000  0.23136000  1.0
  H  H9  1  0.94180000  0.38885000  0.32385000  1.0
  H  H10  1  0.69809000  0.44367000  0.37512000  1.0
  H  H11  1  0.24821000  0.81469000  0.31478000  1.0
  H  H12  1  0.51163000  0.55602000  0.76864000  1.0
  H  H13  1  0.94180000  0.61115000  0.67615000  1.0
  H  H14  1  0.69809000  0.55633000  0.62488000  1.0
  H  H15  1  0.24822000  0.18531000  0.68522000  1.0
  H  H16  1  0.48837000  0.76864000  0.55602000  1.0
  H  H17  1  0.05821000  0.67615000  0.61115000  1.0
  H  H18  1  0.30191000  0.62488000  0.55633000  1.0
  H  H19  1  0.48837000  0.23136000  0.44398000  1.0
  H  H20  1  0.05821000  0.32385000  0.38885000  1.0
  H  H21  1  0.30191000  0.37512000  0.44367000  1.0
  H  H22  1  0.48837000  0.05602000  0.73137000  1.0
  H  H23  1  0.05823000  0.11115000  0.82384000  1.0
  H  H24  1  0.30192000  0.05633000  0.87512000  1.0
  H  H25  1  0.75179000  0.68522000  0.81469000  1.0
  H  H26  1  0.48837000  0.94398000  0.26863000  1.0
  H  H27  1  0.05823000  0.88885000  0.17615000  1.0
  H  H28  1  0.30192000  0.94367000  0.12488000  1.0
  H  H29  1  0.75179000  0.31478000  0.18531000  1.0
  H  H30  1  0.48838000  0.76864000  0.44398000  1.0
  H  H31  1  0.05821000  0.67615000  0.38885000  1.0
  H  H32  1  0.30191000  0.62488000  0.44367000  1.0
  H  H33  1  0.48838000  0.23136000  0.55602000  1.0
  H  H34  1  0.05821000  0.32385000  0.61115000  1.0
  H  H35  1  0.30191000  0.37512000  0.55633000  1.0
  H  H36  1  0.48837000  0.05602000  0.26863000  1.0
  H  H37  1  0.05823000  0.11115000  0.17615000  1.0
  H  H38  1  0.30192000  0.05633000  0.12488000  1.0
  H  H39  1  0.75179000  0.68522000  0.18531000  1.0
  H  H40  1  0.48837000  0.94398000  0.73137000  1.0
  H  H41  1  0.05823000  0.88885000  0.82384000  1.0
  H  H42  1  0.30192000  0.94367000  0.87512000  1.0
  H  H43  1  0.75179000  0.31478000  0.81469000  1.0
  H  H44  1  0.51164000  0.73137000  0.94398000  1.0
  H  H45  1  0.94178000  0.82384000  0.88885000  1.0
  H  H46  1  0.69809000  0.87512000  0.94367000  1.0
  H  H47  1  0.51164000  0.26863000  0.05602000  1.0
  H  H48  1  0.94178000  0.17615000  0.11115000  1.0
  H  H49  1  0.69809000  0.12488000  0.05633000  1.0
  H  H50  1  0.51163000  0.44398000  0.76864000  1.0
  H  H51  1  0.94180000  0.38885000  0.67615000  1.0
  H  H52  1  0.69809000  0.44367000  0.62488000  1.0
  H  H53  1  0.51163000  0.55602000  0.23136000  1.0
  H  H54  1  0.94180000  0.61115000  0.32385000  1.0
  H  H55  1  0.69809000  0.55633000  0.37512000  1.0
  H  H56  1  0.24822000  0.18531000  0.31478000  1.0
  C  C1  1  0.25264000  0.76205000  0.13061000  1.0
  C  C2  1  0.24730000  0.77086000  0.06368000  1.0
  C  C3  1  0.39579000  0.74935000  0.03147000  1.0
  C  C4  1  0.09493000  0.79717000  0.03248000  1.0
  C  C5  1  0.94585000  0.82499000  0.06265000  1.0
  C  C6  1  0.80793000  0.85352000  0.03158000  1.0
  C  C7  1  0.25264000  0.23795000  0.86939000  1.0
  C  C8  1  0.24730000  0.22914000  0.93631000  1.0
  C  C9  1  0.39579000  0.25065000  0.96853000  1.0
  C  C10  1  0.09493000  0.20283000  0.96752000  1.0
  C  C11  1  0.94585000  0.17501000  0.93735000  1.0
  C  C12  1  0.80793000  0.14648000  0.96842000  1.0
  C  C13  1  0.25265000  0.36937000  0.26206000  1.0
  C  C14  1  0.24729000  0.43631000  0.27085000  1.0
  C  C15  1  0.39577000  0.46853000  0.24935000  1.0
  C  C16  1  0.09494000  0.46752000  0.29717000  1.0
  C  C17  1  0.94585000  0.43735000  0.32499000  1.0
  C  C18  1  0.80793000  0.46842000  0.35352000  1.0
  C  C19  1  0.25265000  0.63063000  0.73794000  1.0
  C  C20  1  0.24729000  0.56369000  0.72915000  1.0
  C  C21  1  0.39577000  0.53147000  0.75065000  1.0
  C  C22  1  0.09494000  0.53248000  0.70283000  1.0
  C  C23  1  0.94585000  0.56265000  0.67501000  1.0
  C  C24  1  0.80793000  0.53158000  0.64648000  1.0
  C  C25  1  0.74735000  0.73794000  0.63063000  1.0
  C  C26  1  0.75271000  0.72915000  0.56369000  1.0
  C  C27  1  0.60423000  0.75065000  0.53147000  1.0
  C  C28  1  0.90507000  0.70283000  0.53248000  1.0
  C  C29  1  0.05415000  0.67501000  0.56265000  1.0
  C  C30  1  0.19207000  0.64648000  0.53158000  1.0
  C  C31  1  0.74735000  0.26206000  0.36937000  1.0
  C  C32  1  0.75271000  0.27085000  0.43631000  1.0
  C  C33  1  0.60423000  0.24935000  0.46853000  1.0
  C  C34  1  0.90507000  0.29717000  0.46752000  1.0
  C  C35  1  0.05415000  0.32499000  0.43735000  1.0
  C  C36  1  0.19207000  0.35352000  0.46842000  1.0
  C  C37  1  0.74736000  0.13061000  0.76205000  1.0
  C  C38  1  0.75271000  0.06368000  0.77086000  1.0
  C  C39  1  0.60422000  0.03147000  0.74935000  1.0
  C  C40  1  0.90507000  0.03248000  0.79717000  1.0
  C  C41  1  0.05415000  0.06265000  0.82499000  1.0
  C  C42  1  0.19207000  0.03158000  0.85352000  1.0
  C  C43  1  0.74736000  0.86939000  0.23795000  1.0
  C  C44  1  0.75271000  0.93631000  0.22914000  1.0
  C  C45  1  0.60422000  0.96853000  0.25065000  1.0
  C  C46  1  0.90507000  0.96752000  0.20283000  1.0
  C  C47  1  0.05415000  0.93735000  0.17501000  1.0
  C  C48  1  0.19207000  0.96842000  0.14648000  1.0
  C  C49  1  0.74735000  0.73794000  0.36937000  1.0
  C  C50  1  0.75271000  0.72915000  0.43631000  1.0
  C  C51  1  0.60423000  0.75065000  0.46853000  1.0
  C  C52  1  0.90507000  0.70283000  0.46752000  1.0
  C  C53  1  0.05415000  0.67501000  0.43735000  1.0
  C  C54  1  0.19207000  0.64648000  0.46842000  1.0
  C  C55  1  0.74735000  0.26206000  0.63063000  1.0
  C  C56  1  0.75271000  0.27085000  0.56369000  1.0
  C  C57  1  0.60423000  0.24935000  0.53147000  1.0
  C  C58  1  0.90507000  0.29717000  0.53248000  1.0
  C  C59  1  0.05415000  0.32499000  0.56265000  1.0
  C  C60  1  0.19207000  0.35352000  0.53158000  1.0
  C  C61  1  0.74736000  0.13061000  0.23795000  1.0
  C  C62  1  0.75271000  0.06368000  0.22914000  1.0
  C  C63  1  0.60422000  0.03147000  0.25065000  1.0
  C  C64  1  0.90507000  0.03248000  0.20283000  1.0
  C  C65  1  0.05415000  0.06265000  0.17501000  1.0
  C  C66  1  0.19207000  0.03158000  0.14648000  1.0
  C  C67  1  0.74736000  0.86939000  0.76205000  1.0
  C  C68  1  0.75271000  0.93631000  0.77086000  1.0
  C  C69  1  0.60422000  0.96853000  0.74935000  1.0
  C  C70  1  0.90507000  0.96752000  0.79717000  1.0
  C  C71  1  0.05415000  0.93735000  0.82499000  1.0
  C  C72  1  0.19207000  0.96842000  0.85352000  1.0
  C  C73  1  0.25264000  0.76205000  0.86939000  1.0
  C  C74  1  0.24730000  0.77086000  0.93631000  1.0
  C  C75  1  0.39579000  0.74935000  0.96853000  1.0
  C  C76  1  0.09493000  0.79717000  0.96752000  1.0
  C  C77  1  0.94585000  0.82499000  0.93735000  1.0
  C  C78  1  0.80793000  0.85352000  0.96842000  1.0
  C  C79  1  0.25264000  0.23795000  0.13061000  1.0
  C  C80  1  0.24730000  0.22914000  0.06368000  1.0
  C  C81  1  0.39579000  0.25065000  0.03147000  1.0
  C  C82  1  0.09493000  0.20283000  0.03248000  1.0
  C  C83  1  0.94585000  0.17501000  0.06265000  1.0
  C  C84  1  0.80793000  0.14648000  0.03158000  1.0
  C  C85  1  0.25265000  0.36937000  0.73794000  1.0
  C  C86  1  0.24729000  0.43631000  0.72915000  1.0
  C  C87  1  0.39577000  0.46853000  0.75065000  1.0
  C  C88  1  0.09494000  0.46752000  0.70283000  1.0
  C  C89  1  0.94585000  0.43735000  0.67501000  1.0
  C  C90  1  0.80793000  0.46842000  0.64648000  1.0
  C  C91  1  0.25265000  0.63063000  0.26205000  1.0
  C  C92  1  0.24729000  0.56369000  0.27085000  1.0
  C  C93  1  0.39577000  0.53147000  0.24935000  1.0
  C  C94  1  0.09494000  0.53248000  0.29717000  1.0
  C  C95  1  0.94585000  0.56265000  0.32499000  1.0
  C  C96  1  0.80793000  0.53158000  0.35352000  1.0
  O  O1  1  0.40984000  0.75759000  0.15482000  1.0
  O  O2  1  0.09941000  0.75733000  0.15744000  1.0
  O  O3  1  0.40984000  0.24241000  0.84518000  1.0
  O  O4  1  0.09941000  0.24267000  0.84256000  1.0
  O  O5  1  0.40986000  0.34515000  0.25760000  1.0
  O  O6  1  0.09941000  0.34253000  0.25735000  1.0
  O  O7  1  0.40986000  0.65485000  0.74240000  1.0
  O  O8  1  0.09941000  0.65747000  0.74265000  1.0
  O  O9  1  0.59014000  0.74240000  0.65485000  1.0
  O  O10  1  0.90060000  0.74265000  0.65747000  1.0
  O  O11  1  0.59014000  0.25760000  0.34515000  1.0
  O  O12  1  0.90060000  0.25735000  0.34253000  1.0
  O  O13  1  0.59017000  0.15482000  0.75759000  1.0
  O  O14  1  0.90059000  0.15744000  0.75733000  1.0
  O  O15  1  0.59017000  0.84518000  0.24241000  1.0
  O  O16  1  0.90059000  0.84256000  0.24267000  1.0
  O  O17  1  0.59014000  0.74240000  0.34515000  1.0
  O  O18  1  0.90059000  0.74265000  0.34253000  1.0
  O  O19  1  0.59014000  0.25760000  0.65485000  1.0
  O  O20  1  0.90059000  0.25735000  0.65747000  1.0
  O  O21  1  0.59017000  0.15482000  0.24241000  1.0
  O  O22  1  0.90060000  0.15744000  0.24267000  1.0
  O  O23  1  0.59017000  0.84518000  0.75759000  1.0
  O  O24  1  0.90060000  0.84256000  0.75733000  1.0
  O  O25  1  0.40984000  0.75759000  0.84518000  1.0
  O  O26  1  0.09941000  0.75733000  0.84256000  1.0
  O  O27  1  0.40984000  0.24241000  0.15482000  1.0
  O  O28  1  0.09941000  0.24267000  0.15744000  1.0
  O  O29  1  0.40986000  0.34515000  0.74240000  1.0
  O  O30  1  0.09941000  0.34253000  0.74265000  1.0
  O  O31  1  0.40986000  0.65485000  0.25760000  1.0
  O  O32  1  0.09941000  0.65747000  0.25735000  1.0
  O  O33  1  0.24895000  0.78435000  0.28356000  1.0
  O  O34  1  0.24895000  0.21565000  0.71644000  1.0
  O  O35  1  0.24895000  0.21565000  0.28356000  1.0
  O  O36  1  0.24895000  0.78435000  0.71644000  1.0
  O  O37  1  0.75105000  0.71644000  0.78435000  1.0
  O  O38  1  0.75105000  0.28356000  0.21565000  1.0
  O  O39  1  0.75105000  0.28356000  0.78435000  1.0
  O  O40  1  0.75105000  0.71644000  0.21565000  1.0
