# generated using pymatgen
data_Zn4H18C36O13
_symmetry_space_group_name_H-M   'P 1'
_cell_length_a   18.07840000
_cell_length_b   18.75380000
_cell_length_c   25.80110000
_cell_angle_alpha   90.00000000
_cell_angle_beta   108.99200000
_cell_angle_gamma   90.00000000
_symmetry_Int_Tables_number   1
_chemical_formula_structural   Zn4H18C36O13
_chemical_formula_sum   'Zn32 H144 C288 O104'
_cell_volume   8271.38876728
_cell_formula_units_Z   8
loop_
 _symmetry_equiv_pos_site_id
 _symmetry_equiv_pos_as_xyz
  1  'x, y, z'
loop_
 _atom_site_type_symbol
 _atom_site_label
 _atom_site_symmetry_multiplicity
 _atom_site_fract_x
 _atom_site_fract_y
 _atom_site_fract_z
 _atom_site_occupancy
  Zn  Zn1  1  0.48641000  0.66614000  0.63899000  1.0
  Zn  Zn2  1  0.46504000  0.74661000  0.53021000  1.0
  Zn  Zn3  1  0.48563000  0.83723000  0.63584000  1.0
  Zn  Zn4  1  0.32723000  0.75005000  0.57159000  1.0
  Zn  Zn5  1  0.18215000  0.66381000  0.57089000  1.0
  Zn  Zn6  1  0.18019000  0.83186000  0.57082000  1.0
  Zn  Zn7  1  0.27644000  0.74759000  0.68387000  1.0
  Zn  Zn8  1  0.12390000  0.75058000  0.72922000  1.0
  Zn  Zn9  1  0.01359000  0.16614000  0.86101000  1.0
  Zn  Zn10  1  0.03496000  0.24661000  0.96979000  1.0
  Zn  Zn11  1  0.01437000  0.33723000  0.86416000  1.0
  Zn  Zn12  1  0.17277000  0.25005000  0.92841000  1.0
  Zn  Zn13  1  0.31785000  0.16381000  0.92911000  1.0
  Zn  Zn14  1  0.31981000  0.33186000  0.92918000  1.0
  Zn  Zn15  1  0.22356000  0.24759000  0.81613000  1.0
  Zn  Zn16  1  0.37610000  0.25058000  0.77078000  1.0
  Zn  Zn17  1  0.51359000  0.33386000  0.36101000  1.0
  Zn  Zn18  1  0.53496000  0.25339000  0.46979000  1.0
  Zn  Zn19  1  0.51437000  0.16277000  0.36416000  1.0
  Zn  Zn20  1  0.67277000  0.24995000  0.42841000  1.0
  Zn  Zn21  1  0.81785000  0.33619000  0.42911000  1.0
  Zn  Zn22  1  0.81981000  0.16814000  0.42918000  1.0
  Zn  Zn23  1  0.72357000  0.25241000  0.31613000  1.0
  Zn  Zn24  1  0.87610000  0.24942000  0.27078000  1.0
  Zn  Zn25  1  0.98641000  0.83386000  0.13899000  1.0
  Zn  Zn26  1  0.96504000  0.75339000  0.03021000  1.0
  Zn  Zn27  1  0.98563000  0.66277000  0.13584000  1.0
  Zn  Zn28  1  0.82723000  0.74995000  0.07159000  1.0
  Zn  Zn29  1  0.68215000  0.83619000  0.07089000  1.0
  Zn  Zn30  1  0.68019000  0.66814000  0.07082000  1.0
  Zn  Zn31  1  0.77643000  0.75241000  0.18387000  1.0
  Zn  Zn32  1  0.62390000  0.74942000  0.22922000  1.0
  H  H1  1  0.56710000  0.01230000  0.56450000  1.0
  H  H2  1  0.62230000  0.10030000  0.52640000  1.0
  H  H3  1  0.64800000  0.79980000  0.50640000  1.0
  H  H4  1  0.72700000  0.77130000  0.45660000  1.0
  H  H5  1  0.78910000  0.86020000  0.42300000  1.0
  H  H6  1  0.77270000  0.97710000  0.44070000  1.0
  H  H7  1  0.68730000  0.59020000  0.64430000  1.0
  H  H8  1  0.80070000  0.54080000  0.69730000  1.0
  H  H9  1  0.86280000  0.45320000  0.66300000  1.0
  H  H10  1  0.81110000  0.41650000  0.57450000  1.0
  H  H11  1  0.58850000  0.47310000  0.43010000  1.0
  H  H12  1  0.53050000  0.56370000  0.46290000  1.0
  H  H13  1  0.15930000  0.75130000  0.41090000  1.0
  H  H14  1  0.07180000  0.75080000  0.32240000  1.0
  H  H15  1  0.40580000  0.75220000  0.38640000  1.0
  H  H16  1  0.44580000  0.75370000  0.31140000  1.0
  H  H17  1  0.35650000  0.75040000  0.22400000  1.0
  H  H18  1  0.22520000  0.74950000  0.21130000  1.0
  H  H19  1  0.30150000  0.00210000  0.66910000  1.0
  H  H20  1  0.28220000  0.09290000  0.72420000  1.0
  H  H21  1  0.46920000  0.84560000  0.78890000  1.0
  H  H22  1  0.53810000  0.84490000  0.87990000  1.0
  H  H23  1  0.52630000  0.93860000  0.93560000  1.0
  H  H24  1  0.44360000  0.03100000  0.90060000  1.0
  H  H25  1  0.40490000  0.66840000  0.84500000  1.0
  H  H26  1  0.50340000  0.66666667  0.92810000  1.0
  H  H27  1  0.24060000  0.85060000  0.86040000  1.0
  H  H28  1  0.24610000  0.93650000  0.92460000  1.0
  H  H29  1  0.35160000  0.94220000  0.00490000  1.0
  H  H30  1  0.45130000  0.86240000  0.02170000  1.0
  H  H31  1  0.22840000  0.91130000  0.77210000  1.0
  H  H32  1  0.21200000  0.00340000  0.82720000  1.0
  H  H33  1  0.03600000  0.94790000  0.60370000  1.0
  H  H34  1  0.92840000  0.02030000  0.57380000  1.0
  H  H35  1  0.90510000  0.10640000  0.63190000  1.0
  H  H36  1  0.99130000  0.12110000  0.71850000  1.0
  H  H37  1  0.93290000  0.51230000  0.93550000  1.0
  H  H38  1  0.87770000  0.60030000  0.97360000  1.0
  H  H39  1  0.85200000  0.29980000  0.99360000  1.0
  H  H40  1  0.77300000  0.27130000  0.04340000  1.0
  H  H41  1  0.71090000  0.36020000  0.07700000  1.0
  H  H42  1  0.72730000  0.47710000  0.05930000  1.0
  H  H43  1  0.81270000  0.09020000  0.85570000  1.0
  H  H44  1  0.69930000  0.04080000  0.80270000  1.0
  H  H45  1  0.63720000  0.95320000  0.83700000  1.0
  H  H46  1  0.68890000  0.91650000  0.92550000  1.0
  H  H47  1  0.91150000  0.97310000  0.06990000  1.0
  H  H48  1  0.96950000  0.06370000  0.03710000  1.0
  H  H49  1  0.34070000  0.25130000  0.08910000  1.0
  H  H50  1  0.42820000  0.25080000  0.17760000  1.0
  H  H51  1  0.09420000  0.25220000  0.11360000  1.0
  H  H52  1  0.05420000  0.25370000  0.18860000  1.0
  H  H53  1  0.14350000  0.25040000  0.27600000  1.0
  H  H54  1  0.27480000  0.24950000  0.28870000  1.0
  H  H55  1  0.19850000  0.50210000  0.83090000  1.0
  H  H56  1  0.21780000  0.59290000  0.77580000  1.0
  H  H57  1  0.03080000  0.34560000  0.71110000  1.0
  H  H58  1  0.96190000  0.34490000  0.62010000  1.0
  H  H59  1  0.97370000  0.43860000  0.56440000  1.0
  H  H60  1  0.05640000  0.53100000  0.59940000  1.0
  H  H61  1  0.09510000  0.16840000  0.65500000  1.0
  H  H62  1  0.99660000  0.16660000  0.57190000  1.0
  H  H63  1  0.25940000  0.35060000  0.63960000  1.0
  H  H64  1  0.25390000  0.43650000  0.57540000  1.0
  H  H65  1  0.14840000  0.44220000  0.49510000  1.0
  H  H66  1  0.04870000  0.36240000  0.47830000  1.0
  H  H67  1  0.27160000  0.41130000  0.72790000  1.0
  H  H68  1  0.28800000  0.50340000  0.67280000  1.0
  H  H69  1  0.46400000  0.44790000  0.89630000  1.0
  H  H70  1  0.57160000  0.52030000  0.92620000  1.0
  H  H71  1  0.59490000  0.60640000  0.86810000  1.0
  H  H72  1  0.50870000  0.62110000  0.78150000  1.0
  H  H73  1  0.43290000  0.98770000  0.43550000  1.0
  H  H74  1  0.37770000  0.89970000  0.47360000  1.0
  H  H75  1  0.35200000  0.20020000  0.49360000  1.0
  H  H76  1  0.27300000  0.22870000  0.54340000  1.0
  H  H77  1  0.21090000  0.13980000  0.57700000  1.0
  H  H78  1  0.22730000  0.02290000  0.55930000  1.0
  H  H79  1  0.31270000  0.40980000  0.35570000  1.0
  H  H80  1  0.19930000  0.45920000  0.30270000  1.0
  H  H81  1  0.13720000  0.54680000  0.33700000  1.0
  H  H82  1  0.18890000  0.58350000  0.42550000  1.0
  H  H83  1  0.41150000  0.52690000  0.56990000  1.0
  H  H84  1  0.46950000  0.43630000  0.53710000  1.0
  H  H85  1  0.84070000  0.24870000  0.58910000  1.0
  H  H86  1  0.92820000  0.24920000  0.67760000  1.0
  H  H87  1  0.59420000  0.24780000  0.61360000  1.0
  H  H88  1  0.55420000  0.24630000  0.68860000  1.0
  H  H89  1  0.64350000  0.24960000  0.77600000  1.0
  H  H90  1  0.77480000  0.25050000  0.78870000  1.0
  H  H91  1  0.69850000  0.99790000  0.33090000  1.0
  H  H92  1  0.71780000  0.90710000  0.27580000  1.0
  H  H93  1  0.53080000  0.15440000  0.21110000  1.0
  H  H94  1  0.46190000  0.15510000  0.12010000  1.0
  H  H95  1  0.47370000  0.06140000  0.06440000  1.0
  H  H96  1  0.55640000  0.96900000  0.09940000  1.0
  H  H97  1  0.59510000  0.33160000  0.15500000  1.0
  H  H98  1  0.49660000  0.33340000  0.07190000  1.0
  H  H99  1  0.75940000  0.14940000  0.13960000  1.0
  H  H100  1  0.75390000  0.06350000  0.07540000  1.0
  H  H101  1  0.64840000  0.05780000  0.99510000  1.0
  H  H102  1  0.54870000  0.13760000  0.97830000  1.0
  H  H103  1  0.77160000  0.08870000  0.22790000  1.0
  H  H104  1  0.78800000  0.99660000  0.17280000  1.0
  H  H105  1  0.96400000  0.05210000  0.39630000  1.0
  H  H106  1  0.07160000  0.97970000  0.42620000  1.0
  H  H107  1  0.09490000  0.89360000  0.36810000  1.0
  H  H108  1  0.00870000  0.87890000  0.28150000  1.0
  H  H109  1  0.06710000  0.48770000  0.06450000  1.0
  H  H110  1  0.12230000  0.39970000  0.02640000  1.0
  H  H111  1  0.14800000  0.70020000  0.00640000  1.0
  H  H112  1  0.22700000  0.72870000  0.95660000  1.0
  H  H113  1  0.28910000  0.63980000  0.92300000  1.0
  H  H114  1  0.27270000  0.52290000  0.94070000  1.0
  H  H115  1  0.18730000  0.90980000  0.14430000  1.0
  H  H116  1  0.30070000  0.95920000  0.19730000  1.0
  H  H117  1  0.36280000  0.04680000  0.16300000  1.0
  H  H118  1  0.31110000  0.08350000  0.07450000  1.0
  H  H119  1  0.08850000  0.02690000  0.93010000  1.0
  H  H120  1  0.03050000  0.93630000  0.96290000  1.0
  H  H121  1  0.65930000  0.74870000  0.91090000  1.0
  H  H122  1  0.57180000  0.74920000  0.82240000  1.0
  H  H123  1  0.90580000  0.74780000  0.88640000  1.0
  H  H124  1  0.94580000  0.74630000  0.81140000  1.0
  H  H125  1  0.85650000  0.74960000  0.72400000  1.0
  H  H126  1  0.72520000  0.75050000  0.71130000  1.0
  H  H127  1  0.80150000  0.49790000  0.16910000  1.0
  H  H128  1  0.78220000  0.40710000  0.22420000  1.0
  H  H129  1  0.96920000  0.65440000  0.28890000  1.0
  H  H130  1  0.03810000  0.65510000  0.37990000  1.0
  H  H131  1  0.02630000  0.56140000  0.43560000  1.0
  H  H132  1  0.94360000  0.46900000  0.40060000  1.0
  H  H133  1  0.90490000  0.83160000  0.34500000  1.0
  H  H134  1  0.00340000  0.83340000  0.42810000  1.0
  H  H135  1  0.74060000  0.64940000  0.36040000  1.0
  H  H136  1  0.74610000  0.56350000  0.42460000  1.0
  H  H137  1  0.85160000  0.55780000  0.50490000  1.0
  H  H138  1  0.95130000  0.63760000  0.52170000  1.0
  H  H139  1  0.72840000  0.58870000  0.27210000  1.0
  H  H140  1  0.71200000  0.49660000  0.32720000  1.0
  H  H141  1  0.53600000  0.55210000  0.10370000  1.0
  H  H142  1  0.42840000  0.47970000  0.07380000  1.0
  H  H143  1  0.40510000  0.39360000  0.13190000  1.0
  H  H144  1  0.49130000  0.37890000  0.21850000  1.0
  C  C1  1  0.55813000  0.87744000  0.55292000  1.0
  C  C2  1  0.60722000  0.92909000  0.53388000  1.0
  C  C3  1  0.59760000  0.99951000  0.54308000  1.0
  C  C4  1  0.63230000  0.05258000  0.52129000  1.0
  C  C5  1  0.68131000  0.03492000  0.49209000  1.0
  C  C6  1  0.69644000  0.96235000  0.48381000  1.0
  C  C7  1  0.65794000  0.90787000  0.50397000  1.0
  C  C8  1  0.67190000  0.83610000  0.49305000  1.0
  C  C9  1  0.71940000  0.81890000  0.46351000  1.0
  C  C10  1  0.75700000  0.87250000  0.44335000  1.0
  C  C11  1  0.74670000  0.94210000  0.45359000  1.0
  C  C12  1  0.55881000  0.61880000  0.55772000  1.0
  C  C13  1  0.60550000  0.56396000  0.53942000  1.0
  C  C14  1  0.67570000  0.53390000  0.57426000  1.0
  C  C15  1  0.71120000  0.55530000  0.62960000  1.0
  C  C16  1  0.77870000  0.52590000  0.66110000  1.0
  C  C17  1  0.81640000  0.47320000  0.64044000  1.0
  C  C18  1  0.78560000  0.45140000  0.58785000  1.0
  C  C19  1  0.71480000  0.48109000  0.55261000  1.0
  C  C20  1  0.67950000  0.45862000  0.49715000  1.0
  C  C21  1  0.61160000  0.48880000  0.46592000  1.0
  C  C22  1  0.57560000  0.54220000  0.48600000  1.0
  C  C23  1  0.30723000  0.74912000  0.45136000  1.0
  C  C24  1  0.25727000  0.74977000  0.39175000  1.0
  C  C25  1  0.17845000  0.75040000  0.38155000  1.0
  C  C26  1  0.12530000  0.74980000  0.32802000  1.0
  C  C27  1  0.15177000  0.74760000  0.28391000  1.0
  C  C28  1  0.23341000  0.74890000  0.29258000  1.0
  C  C29  1  0.28755000  0.75030000  0.34646000  1.0
  C  C30  1  0.36860000  0.75170000  0.35160000  1.0
  C  C31  1  0.39260000  0.75230000  0.30674000  1.0
  C  C32  1  0.33900000  0.75070000  0.25419000  1.0
  C  C33  1  0.26090000  0.74970000  0.24661000  1.0
  C  C34  1  0.10583000  0.10532000  0.80743000  1.0
  C  C35  1  0.71090000  0.09578000  0.46609000  1.0
  C  C36  1  0.09295000  0.74750000  0.22704000  1.0
  C  C37  1  0.54483000  0.75480000  0.00687000  1.0
  C  C38  1  0.33230000  0.11248000  0.82904000  1.0
  C  C39  1  0.39137000  0.88849000  0.69230000  1.0
  C  C40  1  0.37358000  0.94349000  0.72925000  1.0
  C  C41  1  0.32640000  0.00014000  0.70676000  1.0
  C  C42  1  0.31527000  0.05517000  0.74006000  1.0
  C  C43  1  0.35225000  0.05456000  0.79571000  1.0
  C  C44  1  0.40364000  0.99694000  0.82073000  1.0
  C  C45  1  0.41306000  0.94033000  0.78685000  1.0
  C  C46  1  0.46390000  0.88337000  0.81078000  1.0
  C  C47  1  0.50480000  0.88280000  0.86487000  1.0
  C  C48  1  0.49730000  0.93910000  0.89850000  1.0
  C  C49  1  0.44820000  0.99430000  0.87755000  1.0
  C  C50  1  0.28701000  0.74925000  0.80344000  1.0
  C  C51  1  0.34625000  0.75122000  0.86006000  1.0
  C  C52  1  0.40520000  0.70250000  0.87130000  1.0
  C  C53  1  0.46560000  0.70230000  0.92089000  1.0
  C  C54  1  0.47068000  0.75411000  0.95961000  1.0
  C  C55  1  0.40946000  0.80602000  0.95047000  1.0
  C  C56  1  0.34526000  0.80268000  0.90079000  1.0
  C  C57  1  0.28350000  0.85260000  0.89227000  1.0
  C  C58  1  0.28660000  0.90370000  0.93073000  1.0
  C  C59  1  0.35020000  0.90700000  0.97916000  1.0
  C  C60  1  0.40970000  0.85960000  0.98904000  1.0
  C  C61  1  0.16430000  0.88301000  0.67035000  1.0
  C  C62  1  0.14295000  0.93882000  0.70395000  1.0
  C  C63  1  0.18907000  0.94469000  0.75762000  1.0
  C  C64  1  0.17860000  0.99954000  0.79127000  1.0
  C  C65  1  0.11890000  0.04768000  0.77098000  1.0
  C  C66  1  0.06660000  0.04069000  0.71658000  1.0
  C  C67  1  0.07960000  0.98704000  0.68171000  1.0
  C  C68  1  0.02690000  0.98160000  0.62738000  1.0
  C  C69  1  0.96290000  0.02520000  0.60932000  1.0
  C  C70  1  0.94910000  0.07740000  0.64418000  1.0
  C  C71  1  0.00020000  0.08550000  0.69616000  1.0
  C  C72  1  0.71200000  0.40219000  0.46996000  1.0
  C  C73  1  0.94187000  0.37744000  0.94708000  1.0
  C  C74  1  0.89278000  0.42909000  0.96612000  1.0
  C  C75  1  0.90240000  0.49951000  0.95692000  1.0
  C  C76  1  0.86770000  0.55258000  0.97871000  1.0
  C  C77  1  0.81869000  0.53492000  0.00791000  1.0
  C  C78  1  0.80356000  0.46235000  0.01619000  1.0
  C  C79  1  0.84206000  0.40787000  0.99603000  1.0
  C  C80  1  0.82810000  0.33610000  0.00695000  1.0
  C  C81  1  0.78060000  0.31890000  0.03649000  1.0
  C  C82  1  0.74300000  0.37250000  0.05665000  1.0
  C  C83  1  0.75330000  0.44210000  0.04641000  1.0
  C  C84  1  0.94119000  0.11880000  0.94228000  1.0
  C  C85  1  0.89450000  0.06396000  0.96058000  1.0
  C  C86  1  0.82430000  0.03390000  0.92574000  1.0
  C  C87  1  0.78880000  0.05530000  0.87040000  1.0
  C  C88  1  0.72130000  0.02590000  0.83890000  1.0
  C  C89  1  0.68360000  0.97320000  0.85956000  1.0
  C  C90  1  0.71440000  0.95140000  0.91215000  1.0
  C  C91  1  0.78520000  0.98109000  0.94739000  1.0
  C  C92  1  0.82050000  0.95862000  0.00285000  1.0
  C  C93  1  0.88840000  0.98880000  0.03408000  1.0
  C  C94  1  0.92440000  0.04220000  0.01400000  1.0
  C  C95  1  0.19277000  0.24912000  0.04864000  1.0
  C  C96  1  0.24273000  0.24977000  0.10825000  1.0
  C  C97  1  0.32155000  0.25040000  0.11845000  1.0
  C  C98  1  0.37470000  0.24980000  0.17198000  1.0
  C  C99  1  0.34823000  0.24760000  0.21609000  1.0
  C  C100  1  0.26659000  0.24890000  0.20742000  1.0
  C  C101  1  0.21245000  0.25030000  0.15354000  1.0
  C  C102  1  0.13140000  0.25170000  0.14840000  1.0
  C  C103  1  0.10740000  0.25230000  0.19326000  1.0
  C  C104  1  0.16100000  0.25070000  0.24581000  1.0
  C  C105  1  0.23910000  0.24970000  0.25339000  1.0
  C  C106  1  0.39417000  0.60532000  0.69257000  1.0
  C  C107  1  0.78910000  0.59578000  0.03391000  1.0
  C  C108  1  0.40705000  0.24750000  0.27296000  1.0
  C  C109  1  0.95517000  0.25480000  0.49313000  1.0
  C  C110  1  0.16770000  0.61248000  0.67096000  1.0
  C  C111  1  0.10863000  0.38849000  0.80770000  1.0
  C  C112  1  0.12642000  0.44349000  0.77075000  1.0
  C  C113  1  0.17360000  0.50014000  0.79324000  1.0
  C  C114  1  0.18473000  0.55517000  0.75994000  1.0
  C  C115  1  0.14775000  0.55456000  0.70429000  1.0
  C  C116  1  0.09636000  0.49694000  0.67927000  1.0
  C  C117  1  0.08694000  0.44033000  0.71315000  1.0
  C  C118  1  0.03610000  0.38337000  0.68922000  1.0
  C  C119  1  0.99520000  0.38280000  0.63513000  1.0
  C  C120  1  0.00270000  0.43910000  0.60150000  1.0
  C  C121  1  0.05180000  0.49430000  0.62245000  1.0
  C  C122  1  0.21299000  0.24925000  0.69656000  1.0
  C  C123  1  0.15375000  0.25122000  0.63994000  1.0
  C  C124  1  0.09480000  0.20250000  0.62870000  1.0
  C  C125  1  0.03440000  0.20230000  0.57911000  1.0
  C  C126  1  0.02932000  0.25411000  0.54039000  1.0
  C  C127  1  0.09054000  0.30602000  0.54953000  1.0
  C  C128  1  0.15474000  0.30268000  0.59921000  1.0
  C  C129  1  0.21650000  0.35260000  0.60773000  1.0
  C  C130  1  0.21340000  0.40370000  0.56927000  1.0
  C  C131  1  0.14980000  0.40700000  0.52084000  1.0
  C  C132  1  0.09030000  0.35960000  0.51096000  1.0
  C  C133  1  0.33570000  0.38301000  0.82965000  1.0
  C  C134  1  0.35705000  0.43882000  0.79605000  1.0
  C  C135  1  0.31093000  0.44469000  0.74238000  1.0
  C  C136  1  0.32140000  0.49954000  0.70873000  1.0
  C  C137  1  0.38110000  0.54768000  0.72902000  1.0
  C  C138  1  0.43340000  0.54069000  0.78342000  1.0
  C  C139  1  0.42040000  0.48704000  0.81829000  1.0
  C  C140  1  0.47310000  0.48160000  0.87262000  1.0
  C  C141  1  0.53710000  0.52520000  0.89068000  1.0
  C  C142  1  0.55090000  0.57740000  0.85582000  1.0
  C  C143  1  0.49980000  0.58550000  0.80384000  1.0
  C  C144  1  0.78800000  0.90219000  0.03004000  1.0
  C  C145  1  0.44187000  0.12256000  0.44708000  1.0
  C  C146  1  0.39278000  0.07091000  0.46612000  1.0
  C  C147  1  0.40240000  0.00049000  0.45692000  1.0
  C  C148  1  0.36770000  0.94742000  0.47871000  1.0
  C  C149  1  0.31869000  0.96508000  0.50791000  1.0
  C  C150  1  0.30356000  0.03765000  0.51619000  1.0
  C  C151  1  0.34206000  0.09213000  0.49603000  1.0
  C  C152  1  0.32810000  0.16390000  0.50695000  1.0
  C  C153  1  0.28060000  0.18110000  0.53649000  1.0
  C  C154  1  0.24300000  0.12750000  0.55665000  1.0
  C  C155  1  0.25330000  0.05790000  0.54641000  1.0
  C  C156  1  0.44119000  0.38120000  0.44228000  1.0
  C  C157  1  0.39450000  0.43604000  0.46058000  1.0
  C  C158  1  0.32430000  0.46610000  0.42574000  1.0
  C  C159  1  0.28880000  0.44470000  0.37040000  1.0
  C  C160  1  0.22130000  0.47410000  0.33890000  1.0
  C  C161  1  0.18360000  0.52680000  0.35956000  1.0
  C  C162  1  0.21440000  0.54860000  0.41215000  1.0
  C  C163  1  0.28520000  0.51891000  0.44739000  1.0
  C  C164  1  0.32050000  0.54138000  0.50285000  1.0
  C  C165  1  0.38840000  0.51120000  0.53408000  1.0
  C  C166  1  0.42440000  0.45780000  0.51400000  1.0
  C  C167  1  0.69277000  0.25088000  0.54864000  1.0
  C  C168  1  0.74273000  0.25023000  0.60825000  1.0
  C  C169  1  0.82155000  0.24960000  0.61845000  1.0
  C  C170  1  0.87470000  0.25020000  0.67198000  1.0
  C  C171  1  0.84823000  0.25240000  0.71609000  1.0
  C  C172  1  0.76659000  0.25110000  0.70742000  1.0
  C  C173  1  0.71245000  0.24970000  0.65354000  1.0
  C  C174  1  0.63140000  0.24830000  0.64840000  1.0
  C  C175  1  0.60740000  0.24770000  0.69326000  1.0
  C  C176  1  0.66100000  0.24930000  0.74581000  1.0
  C  C177  1  0.73910000  0.25030000  0.75339000  1.0
  C  C178  1  0.89417000  0.89468000  0.19257000  1.0
  C  C179  1  0.28910000  0.90422000  0.53391000  1.0
  C  C180  1  0.90705000  0.25250000  0.77296000  1.0
  C  C181  1  0.45517000  0.24520000  0.99313000  1.0
  C  C182  1  0.66770000  0.88752000  0.17096000  1.0
  C  C183  1  0.60863000  0.11151000  0.30770000  1.0
  C  C184  1  0.62642000  0.05651000  0.27075000  1.0
  C  C185  1  0.67360000  0.99986000  0.29324000  1.0
  C  C186  1  0.68473000  0.94483000  0.25994000  1.0
  C  C187  1  0.64775000  0.94544000  0.20429000  1.0
  C  C188  1  0.59636000  0.00306000  0.17927000  1.0
  C  C189  1  0.58694000  0.05967000  0.21315000  1.0
  C  C190  1  0.53610000  0.11663000  0.18922000  1.0
  C  C191  1  0.49520000  0.11720000  0.13513000  1.0
  C  C192  1  0.50270000  0.06090000  0.10150000  1.0
  C  C193  1  0.55180000  0.00570000  0.12245000  1.0
  C  C194  1  0.71299000  0.25075000  0.19656000  1.0
  C  C195  1  0.65375000  0.24878000  0.13994000  1.0
  C  C196  1  0.59480000  0.29750000  0.12870000  1.0
  C  C197  1  0.53440000  0.29770000  0.07911000  1.0
  C  C198  1  0.52932000  0.24589000  0.04039000  1.0
  C  C199  1  0.59054000  0.19398000  0.04953000  1.0
  C  C200  1  0.65474000  0.19732000  0.09921000  1.0
  C  C201  1  0.71650000  0.14740000  0.10773000  1.0
  C  C202  1  0.71340000  0.09630000  0.06927000  1.0
  C  C203  1  0.64980000  0.09300000  0.02084000  1.0
  C  C204  1  0.59030000  0.14040000  0.01096000  1.0
  C  C205  1  0.83570000  0.11699000  0.32965000  1.0
  C  C206  1  0.85705000  0.06118000  0.29605000  1.0
  C  C207  1  0.81093000  0.05531000  0.24238000  1.0
  C  C208  1  0.82140000  0.00046000  0.20873000  1.0
  C  C209  1  0.88110000  0.95232000  0.22902000  1.0
  C  C210  1  0.93340000  0.95931000  0.28342000  1.0
  C  C211  1  0.92040000  0.01296000  0.31829000  1.0
  C  C212  1  0.97310000  0.01840000  0.37262000  1.0
  C  C213  1  0.03710000  0.97480000  0.39068000  1.0
  C  C214  1  0.05090000  0.92260000  0.35582000  1.0
  C  C215  1  0.99980000  0.91450000  0.30384000  1.0
  C  C216  1  0.28800000  0.59781000  0.53004000  1.0
  C  C217  1  0.05813000  0.62256000  0.05292000  1.0
  C  C218  1  0.10722000  0.57091000  0.03388000  1.0
  C  C219  1  0.09760000  0.50049000  0.04308000  1.0
  C  C220  1  0.13230000  0.44742000  0.02129000  1.0
  C  C221  1  0.18131000  0.46508000  0.99209000  1.0
  C  C222  1  0.19644000  0.53765000  0.98381000  1.0
  C  C223  1  0.15794000  0.59213000  0.00397000  1.0
  C  C224  1  0.17190000  0.66390000  0.99305000  1.0
  C  C225  1  0.21940000  0.68110000  0.96351000  1.0
  C  C226  1  0.25700000  0.62750000  0.94335000  1.0
  C  C227  1  0.24670000  0.55790000  0.95359000  1.0
  C  C228  1  0.05881000  0.88120000  0.05772000  1.0
  C  C229  1  0.10550000  0.93604000  0.03942000  1.0
  C  C230  1  0.17570000  0.96610000  0.07426000  1.0
  C  C231  1  0.21120000  0.94470000  0.12960000  1.0
  C  C232  1  0.27870000  0.97410000  0.16110000  1.0
  C  C233  1  0.31640000  0.02680000  0.14044000  1.0
  C  C234  1  0.28560000  0.04860000  0.08785000  1.0
  C  C235  1  0.21480000  0.01891000  0.05261000  1.0
  C  C236  1  0.17950000  0.04138000  0.99715000  1.0
  C  C237  1  0.11160000  0.01120000  0.96592000  1.0
  C  C238  1  0.07560000  0.95780000  0.98600000  1.0
  C  C239  1  0.80723000  0.75088000  0.95136000  1.0
  C  C240  1  0.75727000  0.75023000  0.89175000  1.0
  C  C241  1  0.67845000  0.74960000  0.88155000  1.0
  C  C242  1  0.62530000  0.75020000  0.82802000  1.0
  C  C243  1  0.65177000  0.75240000  0.78391000  1.0
  C  C244  1  0.73341000  0.75110000  0.79258000  1.0
  C  C245  1  0.78755000  0.74970000  0.84646000  1.0
  C  C246  1  0.86860000  0.74830000  0.85160000  1.0
  C  C247  1  0.89260000  0.74770000  0.80674000  1.0
  C  C248  1  0.83900000  0.74930000  0.75419000  1.0
  C  C249  1  0.76090000  0.75030000  0.74661000  1.0
  C  C250  1  0.60583000  0.39468000  0.30743000  1.0
  C  C251  1  0.21090000  0.40422000  0.96609000  1.0
  C  C252  1  0.59295000  0.75250000  0.72704000  1.0
  C  C253  1  0.04483000  0.74520000  0.50687000  1.0
  C  C254  1  0.83230000  0.38752000  0.32904000  1.0
  C  C255  1  0.89137000  0.61151000  0.19230000  1.0
  C  C256  1  0.87358000  0.55651000  0.22925000  1.0
  C  C257  1  0.82640000  0.49986000  0.20676000  1.0
  C  C258  1  0.81527000  0.44483000  0.24006000  1.0
  C  C259  1  0.85225000  0.44544000  0.29571000  1.0
  C  C260  1  0.90364000  0.50306000  0.32073000  1.0
  C  C261  1  0.91306000  0.55967000  0.28685000  1.0
  C  C262  1  0.96390000  0.61663000  0.31078000  1.0
  C  C263  1  0.00480000  0.61720000  0.36487000  1.0
  C  C264  1  0.99730000  0.56090000  0.39850000  1.0
  C  C265  1  0.94820000  0.50570000  0.37755000  1.0
  C  C266  1  0.78701000  0.75075000  0.30344000  1.0
  C  C267  1  0.84625000  0.74878000  0.36006000  1.0
  C  C268  1  0.90520000  0.79750000  0.37130000  1.0
  C  C269  1  0.96560000  0.79770000  0.42089000  1.0
  C  C270  1  0.97068000  0.74589000  0.45961000  1.0
  C  C271  1  0.90946000  0.69398000  0.45047000  1.0
  C  C272  1  0.84526000  0.69732000  0.40079000  1.0
  C  C273  1  0.78350000  0.64740000  0.39227000  1.0
  C  C274  1  0.78660000  0.59630000  0.43073000  1.0
  C  C275  1  0.85020000  0.59300000  0.47916000  1.0
  C  C276  1  0.90970000  0.64040000  0.48904000  1.0
  C  C277  1  0.66430000  0.61699000  0.17035000  1.0
  C  C278  1  0.64295000  0.56118000  0.20395000  1.0
  C  C279  1  0.68907000  0.55531000  0.25762000  1.0
  C  C280  1  0.67860000  0.50046000  0.29127000  1.0
  C  C281  1  0.61890000  0.45232000  0.27098000  1.0
  C  C282  1  0.56660000  0.45931000  0.21658000  1.0
  C  C283  1  0.57960000  0.51296000  0.18171000  1.0
  C  C284  1  0.52690000  0.51840000  0.12738000  1.0
  C  C285  1  0.46290000  0.47480000  0.10932000  1.0
  C  C286  1  0.44910000  0.42260000  0.14418000  1.0
  C  C287  1  0.50020000  0.41450000  0.19616000  1.0
  C  C288  1  0.21200000  0.09781000  0.96996000  1.0
  O  O1  1  0.54408000  0.89174000  0.59594000  1.0
  O  O2  1  0.53124000  0.82501000  0.52231000  1.0
  O  O3  1  0.52750000  0.66583000  0.52358000  1.0
  O  O4  1  0.55182000  0.61233000  0.60419000  1.0
  O  O5  1  0.06610000  0.80597000  0.20897000  1.0
  O  O6  1  0.07491000  0.69050000  0.20341000  1.0
  O  O7  1  0.44218000  0.75028000  0.59838000  1.0
  O  O8  1  0.05418000  0.08814000  0.82924000  1.0
  O  O9  1  0.14071000  0.16295000  0.81486000  1.0
  O  O10  1  0.38022000  0.75019000  0.46214000  1.0
  O  O11  1  0.27404000  0.74912000  0.48654000  1.0
  O  O12  1  0.66354000  0.36142000  0.43791000  1.0
  O  O13  1  0.78490000  0.39958000  0.47839000  1.0
  O  O14  1  0.66119000  0.13910000  0.43938000  1.0
  O  O15  1  0.78350000  0.09935000  0.47338000  1.0
  O  O16  1  0.24143000  0.74847000  0.60170000  1.0
  O  O17  1  0.57594000  0.69540000  0.02302000  1.0
  O  O18  1  0.57394000  0.81405000  0.02575000  1.0
  O  O19  1  0.32789000  0.09506000  0.87501000  1.0
  O  O20  1  0.31805000  0.17473000  0.80943000  1.0
  O  O21  1  0.18499000  0.82198000  0.69121000  1.0
  O  O22  1  0.16389000  0.90016000  0.62318000  1.0
  O  O23  1  0.31546000  0.74789000  0.76542000  1.0
  O  O24  1  0.21566000  0.74787000  0.79889000  1.0
  O  O25  1  0.35940000  0.82934000  0.68341000  1.0
  O  O26  1  0.44330000  0.90865000  0.67254000  1.0
  O  O27  1  0.95592000  0.39174000  0.90406000  1.0
  O  O28  1  0.96876000  0.32501000  0.97769000  1.0
  O  O29  1  0.97250000  0.16583000  0.97642000  1.0
  O  O30  1  0.94818000  0.11233000  0.89581000  1.0
  O  O31  1  0.43390000  0.30597000  0.29103000  1.0
  O  O32  1  0.42509000  0.19050000  0.29659000  1.0
  O  O33  1  0.05782000  0.25028000  0.90162000  1.0
  O  O34  1  0.44582000  0.58814000  0.67076000  1.0
  O  O35  1  0.35929000  0.66295000  0.68514000  1.0
  O  O36  1  0.11978000  0.25019000  0.03786000  1.0
  O  O37  1  0.22596000  0.24912000  0.01346000  1.0
  O  O38  1  0.83646000  0.86142000  0.06209000  1.0
  O  O39  1  0.71510000  0.89958000  0.02161000  1.0
  O  O40  1  0.83881000  0.63910000  0.06062000  1.0
  O  O41  1  0.71650000  0.59935000  0.02662000  1.0
  O  O42  1  0.25857000  0.24847000  0.89830000  1.0
  O  O43  1  0.92406000  0.19540000  0.47698000  1.0
  O  O44  1  0.92606000  0.31405000  0.47425000  1.0
  O  O45  1  0.17211000  0.59506000  0.62499000  1.0
  O  O46  1  0.18195000  0.67473000  0.69057000  1.0
  O  O47  1  0.31501000  0.32198000  0.80879000  1.0
  O  O48  1  0.33611000  0.40016000  0.87682000  1.0
  O  O49  1  0.18454000  0.24789000  0.73458000  1.0
  O  O50  1  0.28434000  0.24787000  0.70111000  1.0
  O  O51  1  0.14060000  0.32934000  0.81659000  1.0
  O  O52  1  0.05670000  0.40865000  0.82746000  1.0
  O  O53  1  0.45592000  0.10826000  0.40406000  1.0
  O  O54  1  0.46876000  0.17499000  0.47769000  1.0
  O  O55  1  0.47250000  0.33417000  0.47642000  1.0
  O  O56  1  0.44818000  0.38767000  0.39581000  1.0
  O  O57  1  0.93390000  0.19403000  0.79103000  1.0
  O  O58  1  0.92509000  0.30950000  0.79659000  1.0
  O  O59  1  0.55782000  0.24972000  0.40162000  1.0
  O  O60  1  0.94582000  0.91186000  0.17076000  1.0
  O  O61  1  0.85929000  0.83705000  0.18514000  1.0
  O  O62  1  0.61978000  0.24981000  0.53786000  1.0
  O  O63  1  0.72596000  0.25088000  0.51346000  1.0
  O  O64  1  0.33646000  0.63858000  0.56209000  1.0
  O  O65  1  0.21510000  0.60042000  0.52161000  1.0
  O  O66  1  0.33881000  0.86090000  0.56062000  1.0
  O  O67  1  0.21650000  0.90065000  0.52662000  1.0
  O  O68  1  0.75857000  0.25153000  0.39830000  1.0
  O  O69  1  0.42406000  0.30460000  0.97698000  1.0
  O  O70  1  0.42606000  0.18595000  0.97425000  1.0
  O  O71  1  0.67211000  0.90494000  0.12499000  1.0
  O  O72  1  0.68195000  0.82527000  0.19057000  1.0
  O  O73  1  0.81501000  0.17802000  0.30879000  1.0
  O  O74  1  0.83611000  0.09984000  0.37682000  1.0
  O  O75  1  0.68454000  0.25211000  0.23458000  1.0
  O  O76  1  0.78434000  0.25213000  0.20111000  1.0
  O  O77  1  0.64060000  0.17066000  0.31659000  1.0
  O  O78  1  0.55670000  0.09135000  0.32746000  1.0
  O  O79  1  0.04408000  0.60826000  0.09594000  1.0
  O  O80  1  0.03124000  0.67499000  0.02231000  1.0
  O  O81  1  0.02750000  0.83417000  0.02358000  1.0
  O  O82  1  0.05182000  0.88767000  0.10419000  1.0
  O  O83  1  0.56610000  0.69403000  0.70897000  1.0
  O  O84  1  0.57491000  0.80950000  0.70341000  1.0
  O  O85  1  0.94218000  0.74972000  0.09838000  1.0
  O  O86  1  0.55418000  0.41186000  0.32924000  1.0
  O  O87  1  0.64071000  0.33705000  0.31486000  1.0
  O  O88  1  0.88022000  0.74981000  0.96214000  1.0
  O  O89  1  0.77404000  0.75088000  0.98654000  1.0
  O  O90  1  0.16354000  0.13858000  0.93791000  1.0
  O  O91  1  0.28490000  0.10042000  0.97839000  1.0
  O  O92  1  0.16119000  0.36090000  0.93938000  1.0
  O  O93  1  0.28350000  0.40065000  0.97338000  1.0
  O  O94  1  0.74143000  0.75153000  0.10170000  1.0
  O  O95  1  0.07594000  0.80460000  0.52302000  1.0
  O  O96  1  0.07394000  0.68595000  0.52575000  1.0
  O  O97  1  0.82789000  0.40494000  0.37501000  1.0
  O  O98  1  0.81805000  0.32527000  0.30943000  1.0
  O  O99  1  0.68499000  0.67802000  0.19121000  1.0
  O  O100  1  0.66389000  0.59984000  0.12318000  1.0
  O  O101  1  0.81546000  0.75211000  0.26542000  1.0
  O  O102  1  0.71566000  0.75213000  0.29889000  1.0
  O  O103  1  0.85940000  0.67066000  0.18341000  1.0
  O  O104  1  0.94330000  0.59135000  0.17254000  1.0
