# generated using pymatgen
data_H10C17(NO)2
_symmetry_space_group_name_H-M   'P 1'
_cell_length_a   21.38680000
_cell_length_b   33.29650000
_cell_length_c   33.29650000
_cell_angle_alpha   120.00000000
_cell_angle_beta   90.00000000
_cell_angle_gamma   90.00000000
_symmetry_Int_Tables_number   1
_chemical_formula_structural   H10C17(NO)2
_chemical_formula_sum   'H120 C204 N24 O24'
_cell_volume   20534.00242126
_cell_formula_units_Z   12
loop_
 _symmetry_equiv_pos_site_id
 _symmetry_equiv_pos_as_xyz
  1  'x, y, z'
loop_
 _atom_site_type_symbol
 _atom_site_label
 _atom_site_symmetry_multiplicity
 _atom_site_fract_x
 _atom_site_fract_y
 _atom_site_fract_z
 _atom_site_occupancy
  C  1  1  0.98474700  0.62982000  0.65910100  1
  C  2  1  0.93284200  0.60294700  0.62159700  1
  C  3  1  0.99162500  0.67919800  0.66381800  1
  C  4  1  0.00889800  0.67668200  0.61651000  1
  C  7  1  0.95522400  0.64817300  0.58138400  1
  C  8  1  0.94823500  0.59762700  0.57320600  1
  C  13  1  0.01396600  0.57318500  0.55658400  1
  C  14  1  0.06818800  0.59885800  0.59247300  1
  C  17  1  0.07176000  0.64892900  0.59933000  1
  C  20  1  0.04954000  0.60467800  0.64074300  1
  C  23  1  0.65139800  0.03473800  0.37454200  1
  C  24  1  0.59948200  0.02411800  0.40141500  1
  C  25  1  0.65826300  0.99007200  0.32516400  1
  C  26  1  0.67551500  0.94527800  0.32768000  1
  C  29  1  0.62182800  0.93867200  0.35619100  1
  C  30  1  0.61484600  0.98104300  0.40673500  1
  C  35  1  0.68057100  0.98884700  0.43117900  1
  C  36  1  0.73480800  0.99905100  0.40550700  1
  C  39  1  0.73837200  0.95583600  0.35543600  1
  C  42  1  0.71619000  0.04150400  0.39968300  1
  C  45  1  0.31794000  0.34531400  0.96966400  1
  C  46  1  0.26607100  0.38284600  0.98030500  1
  C  47  1  0.32481200  0.34059600  0.01432600  1
  C  48  1  0.34213200  0.38789700  0.05911200  1
  C  51  1  0.28849200  0.42305100  0.06573900  1
  C  52  1  0.28151000  0.43123100  0.02337000  1
  C  57  1  0.34725600  0.44781700  0.01553200  1
  C  58  1  0.40144400  0.41189800  0.00530300  1
  C  61  1  0.40500700  0.40504400  0.04851900  1
  C  64  1  0.38275000  0.36363500  0.96286300  1
  C  67  1  0.48478000  0.37672700  0.34306700  1
  C  68  1  0.43285600  0.40359600  0.38055800  1
  C  69  1  0.49165400  0.32735000  0.33835300  1
  C  70  1  0.50890000  0.32986500  0.38566400  1
  C  73  1  0.45520600  0.35836800  0.42077700  1
  C  74  1  0.44822000  0.40891300  0.42895300  1
  C  79  1  0.51393800  0.43336100  0.44559600  1
  C  80  1  0.56818200  0.40769700  0.40972300  1
  C  83  1  0.57175100  0.35762500  0.40286300  1
  C  86  1  0.54956800  0.40187300  0.36144700  1
  C  89  1  0.15137800  0.97182900  0.62765400  1
  C  90  1  0.09947800  0.98245400  0.60077300  1
  C  91  1  0.15825200  0.01649500  0.67702900  1
  C  92  1  0.17552400  0.06128400  0.67450800  1
  C  95  1  0.12185200  0.06789500  0.64599300  1
  C  96  1  0.11487000  0.02552200  0.59544900  1
  C  101  1  0.18059800  0.01770200  0.57100800  1
  C  102  1  0.23482000  0.00749000  0.59668500  1
  C  105  1  0.23838600  0.05071000  0.64675400  1
  C  108  1  0.21617600  0.96504600  0.60251800  1
  C  111  1  0.81802300  0.66127800  0.03254100  1
  C  112  1  0.76610900  0.62378000  0.02192300  1
  C  113  1  0.82488300  0.66598900  0.98787600  1
  C  114  1  0.84213700  0.61867800  0.94308200  1
  C  117  1  0.78845700  0.58355900  0.93647700  1
  C  118  1  0.78147800  0.57538600  0.97884900  1
  C  123  1  0.84720700  0.55875100  0.98665600  1
  C  124  1  0.90143900  0.59463200  0.99685700  1
  C  127  1  0.90499800  0.60148600  0.95364100  1
  C  130  1  0.88281600  0.64290800  0.03931000  1
  C  133  1  0.12895400  0.57143000  0.57502800  1
  C  134  1  0.18310000  0.58858600  0.56391100  1
  C  136  1  0.23884000  0.51777400  0.53696200  1
  C  137  1  0.18839600  0.49814100  0.54881600  1
  C  138  1  0.13406900  0.52553700  0.56752600  1
  C  140  1  0.29218600  0.49112500  0.51471000  1
  C  141  1  0.38750600  0.48450700  0.47512900  1
  C  142  1  0.39627800  0.43740800  0.46267500  1
  C  143  1  0.35000200  0.41879500  0.47955700  1
  C  146  1  0.29704800  0.44461600  0.50481800  1
  C  147  1  0.24786800  0.42566100  0.51863600  1
  C  148  1  0.19378400  0.45207600  0.54011700  1
  C  153  1  0.79557500  0.00902300  0.43293300  1
  C  154  1  0.84969800  0.98072200  0.41579500  1
  C  156  1  0.90547900  0.02462400  0.48658100  1
  C  157  1  0.85503300  0.05610900  0.50621200  1
  C  158  1  0.80068900  0.04741100  0.47882900  1
  C  160  1  0.95884000  0.02904200  0.51322500  1
  C  161  1  0.05417600  0.99610100  0.51984600  1
  C  162  1  0.06294400  0.03075200  0.56694300  1
  C  163  1  0.01669200  0.06626400  0.58553900  1
  C  166  1  0.96370600  0.06566600  0.55973200  1
  C  167  1  0.91451700  0.09843200  0.57868200  1
  C  168  1  0.86042300  0.09348500  0.55227500  1
  C  173  1  0.46223000  0.42930600  0.99530100  1
  C  174  1  0.51637400  0.44042600  0.02357700  1
  C  176  1  0.57213300  0.46735300  0.97969900  1
  C  177  1  0.52169200  0.45549600  0.94821000  1
  C  178  1  0.46735000  0.43680100  0.95690500  1
  C  180  1  0.62548100  0.48960100  0.97529900  1
  C  181  1  0.72079000  0.52920000  0.00827100  1
  C  182  1  0.72953300  0.54167000  0.97363600  1
  C  183  1  0.68329100  0.52475100  0.93811500  1
  C  186  1  0.63034700  0.49948500  0.93867500  1
  C  187  1  0.58117100  0.48565300  0.90589700  1
  C  188  1  0.52708200  0.46417900  0.91083500  1
  C  193  1  0.62894400  0.43512700  0.42718500  1
  C  194  1  0.68306600  0.41799100  0.43835200  1
  C  196  1  0.73884000  0.48878000  0.46524600  1
  C  197  1  0.68839600  0.50841300  0.45339400  1
  C  198  1  0.63405400  0.48102700  0.43470200  1
  C  200  1  0.79220800  0.51541900  0.48746400  1
  C  201  1  0.88759000  0.52201300  0.52697400  1
  C  202  1  0.89631500  0.56912400  0.53946300  1
  C  203  1  0.85006600  0.58773100  0.52255800  1
  C  206  1  0.79707500  0.56192400  0.49734700  1
  C  207  1  0.74788200  0.58088200  0.48354000  1
  C  208  1  0.69378500  0.55447400  0.46208100  1
  C  213  1  0.29559000  0.99750700  0.56926200  1
  C  214  1  0.34973400  0.02578400  0.58641700  1
  C  216  1  0.40548800  0.98190400  0.51561200  1
  C  217  1  0.35504800  0.95041400  0.49598300  1
  C  218  1  0.30070900  0.95910700  0.52337500  1
  C  220  1  0.45884000  0.97750000  0.48896500  1
  C  221  1  0.55415000  0.01046800  0.48233900  1
  C  222  1  0.56289500  0.97583300  0.43523700  1
  C  223  1  0.51665600  0.94031300  0.41663400  1
  C  226  1  0.46370600  0.94087500  0.44246000  1
  C  227  1  0.41453000  0.90809700  0.42351200  1
  C  228  1  0.36044200  0.91303700  0.44992500  1
  C  233  1  0.96221000  0.57718500  0.00683400  1
  C  234  1  0.01633200  0.56602800  0.97853500  1
  C  236  1  0.07214300  0.53919300  0.02247100  1
  C  237  1  0.02169600  0.55103900  0.05395200  1
  C  238  1  0.96733500  0.56969400  0.04523100  1
  C  240  1  0.12552600  0.51700100  0.02690900  1
  C  241  1  0.22091200  0.47748900  0.99399600  1
  C  242  1  0.22960000  0.46498000  0.02860600  1
  C  243  1  0.18339400  0.48193300  0.06415100  1
  C  246  1  0.13040400  0.50713700  0.06354600  1
  C  247  1  0.08121000  0.52095000  0.09631200  1
  C  248  1  0.02709600  0.54238200  0.09134200  1
  C  253  1  0.01894600  0.72304500  0.61876700  1
  C  254  1  0.02362200  0.76626000  0.66049500  1
  C  256  1  0.06012200  0.80545800  0.62117900  1
  C  257  1  0.05337400  0.76424600  0.57773700  1
  C  258  1  0.03255800  0.72404600  0.57752600  1
  C  260  1  0.08457200  0.84576100  0.62303300  1
  C  261  1  0.11586200  0.92532600  0.66752000  1
  C  262  1  0.13247400  0.92765400  0.62749700  1
  C  263  1  0.12554000  0.88566600  0.58463900  1
  C  266  1  0.10160500  0.84478100  0.58139100  1
  C  267  1  0.09373600  0.80381100  0.53813200  1
  C  268  1  0.06976300  0.76367300  0.53631500  1
  C  273  1  0.68552200  0.90118100  0.28130800  1
  C  274  1  0.69042600  0.89972000  0.23811700  1
  C  276  1  0.72683600  0.82119200  0.19891600  1
  C  277  1  0.72003800  0.81895400  0.24012100  1
  C  278  1  0.69919300  0.85894500  0.28030900  1
  C  280  1  0.75130000  0.78274300  0.15861900  1
  C  281  1  0.78260500  0.74766600  0.07905800  1
  C  282  1  0.79912500  0.70529700  0.07672000  1
  C  283  1  0.79224900  0.70443500  0.11871400  1
  C  286  1  0.76830500  0.74207500  0.15959700  1
  C  287  1  0.76041700  0.73979000  0.20056800  1
  C  288  1  0.73642600  0.77810700  0.24069800  1
  C  293  1  0.35216600  0.38563400  0.10321600  1
  C  294  1  0.35691600  0.34390600  0.10469500  1
  C  296  1  0.39348200  0.38321300  0.18318900  1
  C  297  1  0.38671600  0.42665700  0.18542700  1
  C  298  1  0.36584200  0.42687000  0.14545000  1
  C  300  1  0.41796800  0.38135600  0.22162600  1
  C  301  1  0.44927800  0.33686500  0.25669700  1
  C  302  1  0.46589500  0.37688700  0.29904600  1
  C  303  1  0.45896600  0.41974800  0.29992000  1
  C  306  1  0.43501800  0.42299600  0.26228500  1
  C  307  1  0.42714200  0.46625600  0.26457800  1
  C  308  1  0.40313200  0.46807700  0.22626800  1
  C  313  1  0.51895200  0.28349300  0.38338900  1
  C  314  1  0.52376800  0.24029700  0.34166100  1
  C  316  1  0.56018300  0.20109900  0.38099100  1
  C  317  1  0.55340200  0.24231100  0.42443700  1
  C  318  1  0.53257200  0.28250300  0.42463500  1
  C  320  1  0.58465000  0.16080700  0.37914800  1
  C  321  1  0.61596900  0.08124600  0.33466400  1
  C  322  1  0.63250100  0.07891300  0.37469600  1
  C  323  1  0.62562300  0.12091000  0.41755500  1
  C  326  1  0.60166700  0.16178900  0.42079400  1
  C  327  1  0.59378100  0.20275900  0.46404900  1
  C  328  1  0.56979100  0.24288700  0.46585900  1
  C  333  1  0.18556800  0.10539200  0.72086700  1
  C  334  1  0.19024400  0.10688600  0.76408700  1
  C  336  1  0.22672000  0.18540300  0.80328100  1
  C  337  1  0.21997200  0.18763100  0.76207000  1
  C  338  1  0.19917200  0.14763500  0.72186600  1
  C  340  1  0.25115000  0.22385700  0.84358700  1
  C  341  1  0.28243200  0.25894200  0.92315600  1
  C  342  1  0.29897000  0.30130800  0.92549100  1
  C  343  1  0.29207000  0.30217600  0.88350200  1
  C  346  1  0.26816100  0.26452600  0.84261000  1
  C  347  1  0.26029600  0.26681100  0.80163600  1
  C  348  1  0.23634700  0.22848100  0.76149600  1
  C  353  1  0.85214700  0.62095400  0.89898400  1
  C  354  1  0.85705300  0.66268400  0.89752300  1
  C  356  1  0.89347500  0.62335800  0.81899900  1
  C  357  1  0.88666900  0.57991500  0.81676000  1
  C  358  1  0.86581500  0.57971700  0.85674900  1
  C  360  1  0.91795100  0.62520500  0.78055300  1
  C  361  1  0.94928600  0.66968700  0.74548000  1
  C  362  1  0.96583500  0.62965900  0.70311800  1
  C  363  1  0.95892900  0.58680100  0.70225200  1
  C  366  1  0.93496400  0.58356000  0.73988900  1
  C  367  1  0.92706300  0.54030100  0.73759800  1
  C  368  1  0.90305900  0.53848900  0.77591200  1
  H  5  1  0.02778800  0.69839100  0.68965900  1
  H  6  1  0.94786100  0.69851300  0.67666800  1
  H  9  1  0.91159500  0.66753000  0.59486300  1
  H  10  1  0.96321900  0.64490300  0.54753000  1
  H  11  1  0.88799300  0.62088900  0.63408500  1
  H  12  1  0.92654700  0.56838900  0.61700300  1
  H  15  1  0.02582000  0.57039100  0.52328200  1
  H  16  1  0.01121200  0.53786000  0.55028500  1
  H  18  1  0.08512800  0.64564300  0.56613700  1
  H  19  1  0.10873100  0.66865000  0.62427800  1
  H  21  1  0.04800200  0.57052500  0.63748700  1
  H  22  1  0.08605800  0.62403000  0.66626800  1
  H  27  1  0.69443800  0.99671300  0.30597200  1
  H  28  1  0.61450500  0.98361500  0.30584700  1
  H  31  1  0.57819800  0.93279900  0.33683400  1
  H  32  1  0.62981100  0.90808700  0.35946000  1
  H  33  1  0.55463600  0.01867500  0.38347400  1
  H  34  1  0.59319500  0.05408500  0.43597100  1
  H  37  1  0.69240500  0.95834000  0.43397400  1
  H  38  1  0.67782400  0.01787500  0.46650400  1
  H  40  1  0.75172100  0.92592500  0.35872000  1
  H  41  1  0.77535300  0.96105200  0.33571400  1
  H  43  1  0.71465700  0.07240300  0.43383500  1
  H  44  1  0.75271700  0.04766600  0.38033100  1
  H  49  1  0.36095600  0.31473800  0.00767000  1
  H  50  1  0.28104200  0.32776800  0.02080400  1
  H  53  1  0.24484800  0.40959600  0.07163200  1
  H  54  1  0.29651500  0.45690200  0.09632000  1
  H  55  1  0.22121200  0.37038300  0.98577500  1
  H  56  1  0.25978200  0.38743700  0.95034200  1
  H  59  1  0.35914200  0.48111300  0.04603300  1
  H  60  1  0.34451200  0.45411200  0.98650200  1
  H  62  1  0.41840400  0.43823300  0.07842400  1
  H  63  1  0.44196000  0.38008100  0.04328900  1
  H  65  1  0.38121600  0.36688700  0.93196300  1
  H  66  1  0.41924400  0.33809400  0.95668300  1
  H  71  1  0.52782600  0.30815900  0.31251900  1
  H  72  1  0.44789400  0.30803000  0.32549100  1
  H  75  1  0.41158200  0.33900400  0.40728500  1
  H  76  1  0.46318400  0.36163500  0.45463100  1
  H  77  1  0.38801000  0.38565000  0.36805700  1
  H  78  1  0.42656700  0.43815100  0.38515000  1
  H  81  1  0.52577400  0.43615600  0.47890100  1
  H  82  1  0.51119000  0.46868800  0.45189600  1
  H  84  1  0.58510100  0.36091100  0.43606100  1
  H  85  1  0.60873900  0.33790800  0.37792600  1
  H  87  1  0.54803400  0.43602700  0.36470500  1
  H  88  1  0.58609700  0.38252700  0.33593500  1
  H  93  1  0.19441400  0.00985100  0.69622800  1
  H  94  1  0.11448600  0.02296100  0.69634400  1
  H  97  1  0.07822200  0.07377500  0.66534600  1
  H  98  1  0.12984600  0.09847700  0.64271700  1
  H  99  1  0.05462800  0.98790800  0.61871100  1
  H  100  1  0.09318600  0.95248700  0.56621800  1
  H  103  1  0.19245000  0.04820400  0.56820700  1
  H  104  1  0.17784800  0.98866900  0.53568400  1
  H  106  1  0.25175400  0.08061600  0.64346500  1
  H  107  1  0.27535700  0.04548900  0.66648200  1
  H  109  1  0.21464600  0.93414600  0.56836500  1
  H  110  1  0.25269400  0.95888100  0.62187400  1
  H  115  1  0.86105400  0.69182400  0.99451700  1
  H  116  1  0.78112200  0.67884700  0.98141900  1
  H  119  1  0.74482400  0.59704100  0.93060300  1
  H  120  1  0.79644400  0.54970400  0.90589200  1
  H  121  1  0.72126200  0.63627600  0.01648000  1
  H  122  1  0.75982400  0.61919200  0.05189000  1
  H  125  1  0.85904400  0.52544800  0.95614800  1
  H  126  1  0.84446500  0.55245700  0.01568600  1
  H  128  1  0.91835100  0.56828800  0.92373100  1
  H  129  1  0.94197800  0.62642500  0.95885600  1
  H  131  1  0.88128700  0.63965600  0.07021100  1
  H  132  1  0.91933900  0.66842400  0.04547200  1
  H  139  1  0.09674200  0.51101000  0.57464200  1
  H  144  1  0.18520400  0.62098400  0.56807400  1
  H  149  1  0.35259600  0.38503900  0.47151900  1
  H  150  1  0.41677200  0.50086100  0.46375000  1
  H  159  1  0.76337800  0.06906900  0.49335000  1
  H  164  1  0.85181900  0.95251300  0.38338000  1
  H  169  1  0.01923600  0.09195700  0.61931200  1
  H  170  1  0.08343500  0.96836200  0.50348900  1
  H  179  1  0.43002500  0.42969000  0.93526300  1
  H  184  1  0.51847000  0.43627500  0.05182000  1
  H  189  1  0.68589000  0.53278200  0.91239300  1
  H  190  1  0.75005100  0.54058900  0.03600800  1
  H  199  1  0.59674200  0.49554700  0.42756500  1
  H  204  1  0.68519000  0.38557300  0.43414000  1
  H  209  1  0.85260000  0.62150500  0.53065200  1
  H  210  1  0.91677200  0.50568100  0.53842800  1
  H  219  1  0.26338700  0.93746200  0.50884900  1
  H  224  1  0.35183000  0.05402700  0.61881100  1
  H  229  1  0.51925500  0.91458900  0.38288200  1
  H  230  1  0.58341200  0.03820700  0.49869000  1
  H  239  1  0.93001900  0.57682300  0.06688700  1
  H  244  1  0.01844600  0.57022300  0.95031900  1
  H  249  1  0.18592800  0.47384400  0.08983600  1
  H  250  1  0.25008900  0.46602000  0.96620400  1
  H  259  1  0.03142200  0.69401300  0.54637200  1
  H  264  1  0.01511200  0.76924300  0.69197700  1
  H  269  1  0.13615900  0.88492700  0.55441500  1
  H  270  1  0.11910200  0.95353100  0.69993500  1
  H  279  1  0.69797700  0.85779700  0.31032800  1
  H  284  1  0.68181300  0.92819600  0.23511300  1
  H  289  1  0.80280000  0.67493600  0.11944500  1
  H  290  1  0.78583000  0.75187400  0.05085100  1
  H  299  1  0.36469800  0.45802500  0.14657300  1
  H  304  1  0.34840200  0.31242400  0.07619500  1
  H  309  1  0.46958400  0.44996700  0.32940400  1
  H  310  1  0.45251800  0.30445000  0.25248300  1
  H  319  1  0.53137000  0.31252300  0.45579700  1
  H  324  1  0.51513600  0.23729300  0.31018200  1
  H  329  1  0.63617900  0.12164100  0.44778000  1
  H  330  1  0.61919100  0.05304000  0.30225100  1
  H  339  1  0.19803800  0.14875200  0.69183400  1
  H  344  1  0.18174400  0.07838600  0.76706900  1
  H  349  1  0.30267800  0.33166100  0.88276400  1
  H  350  1  0.28569600  0.25473000  0.95135800  1
  H  359  1  0.86459800  0.54855100  0.85560100  1
  H  364  1  0.84844000  0.69416300  0.92600000  1
  H  369  1  0.96949000  0.55657300  0.67275700  1
  H  370  1  0.95251700  0.70210200  0.74968900  1
  N  135  1  0.23423400  0.56181000  0.54519100  1
  N  145  1  0.33731600  0.50899100  0.49973800  1
  N  155  1  0.90085500  0.98880100  0.44255300  1
  N  165  1  0.00397500  0.99621000  0.49536000  1
  N  175  1  0.56751700  0.45913400  0.01551600  1
  N  185  1  0.67060500  0.50458100  0.00814200  1
  N  195  1  0.73422000  0.44475200  0.45703700  1
  N  205  1  0.83734900  0.49755100  0.50242200  1
  N  215  1  0.40087400  0.01771900  0.55964300  1
  N  225  1  0.50396000  0.01034300  0.50682600  1
  N  235  1  0.06751000  0.54737600  0.98663200  1
  N  245  1  0.17067100  0.50204200  0.99408300  1
  N  255  1  0.04432000  0.80476500  0.66036000  1
  N  265  1  0.09288000  0.88566900  0.66404300  1
  N  275  1  0.71109300  0.86107500  0.19960800  1
  N  285  1  0.75963100  0.78384800  0.11871400  1
  N  295  1  0.37766300  0.34403300  0.14331900  1
  N  305  1  0.42628200  0.34034400  0.22052300  1
  N  315  1  0.54442000  0.20178700  0.34180100  1
  N  325  1  0.59298200  0.12090000  0.33813800  1
  N  335  1  0.21093000  0.14552700  0.80259000  1
  N  345  1  0.25947400  0.22275700  0.88349600  1
  N  355  1  0.87772700  0.66254800  0.85888100  1
  N  365  1  0.92629100  0.66621400  0.78165700  1
  O  151  1  0.25040700  0.38125700  0.50964700  1
  O  152  1  0.14665600  0.43211700  0.55113900  1
  O  171  1  0.91708000  0.13387200  0.62307600  1
  O  172  1  0.81329500  0.12446400  0.57223300  1
  O  191  1  0.58371600  0.49463200  0.87047600  1
  O  192  1  0.47996000  0.45315600  0.87985400  1
  O  211  1  0.75044900  0.62527400  0.49249700  1
  O  212  1  0.64665600  0.57443700  0.45106500  1
  O  231  1  0.41707600  0.87267300  0.37911300  1
  O  232  1  0.31332000  0.88205300  0.42996900  1
  O  251  1  0.08378600  0.51201500  0.13175900  1
  O  252  1  0.97996900  0.55339500  0.12231700  1
  O  271  1  0.10950200  0.80192800  0.49778600  1
  O  272  1  0.06365600  0.72480800  0.49430800  1
  O  291  1  0.77616900  0.70132700  0.20245400  1
  O  292  1  0.73029100  0.77496600  0.27956100  1
  O  311  1  0.44292800  0.50660000  0.30303500  1
  O  312  1  0.39701600  0.51008400  0.22941300  1
  O  331  1  0.60954100  0.20464800  0.50439800  1
  O  332  1  0.56366500  0.28175500  0.50786500  1
  O  351  1  0.27604400  0.30527700  0.79975600  1
  O  352  1  0.23024500  0.23161600  0.72262700  1
  O  371  1  0.94282300  0.49995400  0.69913900  1
  O  372  1  0.89691800  0.49648500  0.77277100  1
