# generated using pymatgen
data_K3Zn2H31C58NO15
_symmetry_space_group_name_H-M   'P 1'
_cell_length_a   15.99686000
_cell_length_b   17.59553000
_cell_length_c   18.91930000
_cell_angle_alpha   68.62977000
_cell_angle_beta   68.27236000
_cell_angle_gamma   74.36948000
_symmetry_Int_Tables_number   1
_chemical_formula_structural   K3Zn2H31C58NO15
_chemical_formula_sum   'K6 Zn4 H62 C116 N2 O30'
_cell_volume   4550.76104535
_cell_formula_units_Z   2
loop_
 _symmetry_equiv_pos_site_id
 _symmetry_equiv_pos_as_xyz
  1  'x, y, z'
loop_
 _atom_site_type_symbol
 _atom_site_label
 _atom_site_symmetry_multiplicity
 _atom_site_fract_x
 _atom_site_fract_y
 _atom_site_fract_z
 _atom_site_occupancy
  K  K0  1  0.20558000  0.98211000  0.97082000  1
  K  K1  1  0.39321000  0.82868000  0.83454000  1
  K  K2  1  0.63656000  0.90656000  0.98672000  1
  K  K3  1  0.79525000  0.01853000  0.02844000  1
  K  K4  1  0.60689000  0.17168000  0.16520000  1
  K  K5  1  0.36438000  0.09344000  0.01388000  1
  Zn  Zn6  1  0.40407000  0.84006000  0.02841000  1
  Zn  Zn7  1  0.35858000  0.06372000  0.75654000  1
  Zn  Zn8  1  0.59603000  0.16021000  0.97147000  1
  Zn  Zn9  1  0.64142000  0.93592000  0.24313000  1
  H  H10  1  0.94682000  0.51689000  0.85679000  1
  H  H11  1  0.19700000  0.51228000  0.89547000  1
  H  H12  1  0.96797000  0.69998000  0.94745000  1
  H  H13  1  0.84725000  0.65072000  0.79791000  1
  H  H14  1  0.68321000  0.71322000  0.82049000  1
  H  H15  1  0.66481000  0.71160000  0.05340000  1
  H  H16  1  0.82822000  0.65371000  0.02979000  1
  H  H17  1  0.25026000  0.46952000  0.77890000  1
  H  H18  1  0.32986000  0.33061000  0.76603000  1
  H  H19  1  0.08271000  0.23061000  0.91289000  1
  H  H20  1  0.00052000  0.37055000  0.91558000  1
  H  H21  1  0.08724000  0.77168000  0.90374000  1
  H  H22  1  0.17526000  0.83020000  0.94796000  1
  H  H23  1  0.29714000  0.58538000  0.05557000  1
  H  H24  1  0.21008000  0.52600000  0.00854000  1
  H  H25  1  0.92264000  0.90705000  0.67806000  1
  H  H26  1  0.17603000  0.85348000  0.50380000  1
  H  H27  1  0.92070000  0.88896000  0.45880000  1
  H  H28  1  0.81405000  0.01711000  0.63896000  1
  H  H29  1  0.64638000  0.05792000  0.68169000  1
  H  H30  1  0.61466000  0.86453000  0.61049000  1
  H  H31  1  0.78395000  0.82661000  0.56189000  1
  H  H32  1  0.00945000  0.84803000  0.75951000  1
  H  H33  1  0.07825000  0.89777000  0.83017000  1
  H  H34  1  0.27875000  0.99289000  0.61028000  1
  H  H35  1  0.20990000  0.94666000  0.53804000  1
  H  H36  1  0.21848000  0.77409000  0.41856000  1
  H  H37  1  0.31314000  0.79259000  0.27683000  1
  H  H38  1  0.11583000  0.99721000  0.20062000  1
  H  H39  1  0.02177000  0.97406000  0.34454000  1
  H  H40  1  0.48393000  0.04040000  0.84200000  1
  H  H41  1  0.05291000  0.48311000  0.14359000  1
  H  H42  1  0.80299000  0.48759000  0.10451000  1
  H  H43  1  0.03225000  0.30014000  0.05252000  1
  H  H44  1  0.15279000  0.34933000  0.20214000  1
  H  H45  1  0.31689000  0.28673000  0.17949000  1
  H  H46  1  0.33516000  0.28862000  0.94653000  1
  H  H47  1  0.17176000  0.34662000  0.97016000  1
  H  H48  1  0.74924000  0.53051000  0.22107000  1
  H  H49  1  0.67002000  0.66947000  0.23435000  1
  H  H50  1  0.91702000  0.76941000  0.08730000  1
  H  H51  1  0.99927000  0.62939000  0.08448000  1
  H  H52  1  0.91251000  0.22829000  0.09686000  1
  H  H53  1  0.82480000  0.16969000  0.05243000  1
  H  H54  1  0.70420000  0.41449000  0.94343000  1
  H  H55  1  0.79077000  0.47393000  0.99093000  1
  H  H56  1  0.07739000  0.09285000  0.32205000  1
  H  H57  1  0.82386000  0.14649000  0.49616000  1
  H  H58  1  0.07907000  0.11101000  0.54136000  1
  H  H59  1  0.18572000  0.98293000  0.36111000  1
  H  H60  1  0.35342000  0.94224000  0.31778000  1
  H  H61  1  0.38572000  0.13546000  0.38873000  1
  H  H62  1  0.21641000  0.17332000  0.43795000  1
  H  H63  1  0.99022000  0.15209000  0.24053000  1
  H  H64  1  0.92158000  0.10219000  0.16992000  1
  H  H65  1  0.72102000  0.00710000  0.38983000  1
  H  H66  1  0.78985000  0.05342000  0.46200000  1
  H  H67  1  0.78095000  0.22583000  0.58152000  1
  H  H68  1  0.68659000  0.20739000  0.72330000  1
  H  H69  1  0.88425000  0.00313000  0.79933000  1
  H  H70  1  0.97787000  0.02602000  0.65536000  1
  H  H71  1  0.51552000  0.96013000  0.15802000  1
  C  C72  1  0.94738000  0.61349000  0.90140000  1
  C  C73  1  0.98731000  0.54405000  0.87380000  1
  C  C74  1  0.07773000  0.50769000  0.87080000  1
  C  C75  1  0.12781000  0.54183000  0.89579000  1
  C  C76  1  0.08970000  0.61135000  0.92320000  1
  C  C77  1  0.99950000  0.64698000  0.92494000  1
  C  C78  1  0.84984000  0.64861000  0.91198000  1
  C  C79  1  0.80732000  0.66401000  0.85389000  1
  C  C80  1  0.71559000  0.69897000  0.86623000  1
  C  C81  1  0.66378000  0.71808000  0.93753000  1
  C  C82  1  0.70530000  0.70013000  0.99668000  1
  C  C83  1  0.79705000  0.66696000  0.98363000  1
  C  C84  1  0.12036000  0.42966000  0.85022000  1
  C  C85  1  0.21319000  0.41731000  0.80691000  1
  C  C86  1  0.25828000  0.33930000  0.80038000  1
  C  C87  1  0.21246000  0.27076000  0.84096000  1
  C  C88  1  0.11897000  0.28322000  0.88124000  1
  C  C89  1  0.07275000  0.36219000  0.88318000  1
  C  C90  1  0.14199000  0.64477000  0.95233000  1
  C  C91  1  0.13206000  0.73045000  0.93796000  1
  C  C92  1  0.18155000  0.76346000  0.96367000  1
  C  C93  1  0.24189000  0.71152000  0.00606000  1
  C  C94  1  0.25084000  0.62557000  0.02225000  1
  C  C95  1  0.20224000  0.59274000  0.99532000  1
  C  C96  1  0.26344000  0.18494000  0.84339000  1
  C  C97  1  0.56674000  0.75978000  0.95011000  1
  C  C98  1  0.30040000  0.74569000  0.02981000  1
  C  C99  1  0.91100000  0.89638000  0.57267000  1
  C  C100  1  0.96008000  0.89408000  0.62159000  1
  C  C101  1  0.05577000  0.87952000  0.59739000  1
  C  C102  1  0.10199000  0.86302000  0.52434000  1
  C  C103  1  0.05467000  0.86624000  0.47312000  1
  C  C104  1  0.95856000  0.88352000  0.49826000  1
  C  C105  1  0.81075000  0.91839000  0.59831000  1
  C  C106  1  0.77074000  0.98320000  0.63285000  1
  C  C107  1  0.67668000  0.00647000  0.65673000  1
  C  C108  1  0.62006000  0.96320000  0.64924000  1
  C  C109  1  0.65942000  0.89805000  0.61529000  1
  C  C110  1  0.75381000  0.87684000  0.58863000  1
  C  C111  1  0.10417000  0.89437000  0.64326000  1
  C  C112  1  0.06837000  0.87983000  0.72645000  1
  C  C113  1  0.10696000  0.90675000  0.76637000  1
  C  C114  1  0.18238000  0.94843000  0.72473000  1
  C  C115  1  0.22036000  0.96045000  0.64243000  1
  C  C116  1  0.18201000  0.93350000  0.60241000  1
  C  C117  1  0.10516000  0.86344000  0.39225000  1
  C  C118  1  0.19209000  0.81899000  0.37133000  1
  C  C119  1  0.24751000  0.83114000  0.29218000  1
  C  C120  1  0.22079000  0.89826000  0.23043000  1
  C  C121  1  0.13665000  0.94569000  0.24722000  1
  C  C122  1  0.06460000  0.91960000  0.32634000  1
  C  C123  1  0.51876000  0.98271000  0.68159000  1
  C  C124  1  0.22108000  0.98079000  0.76711000  1
  C  C125  1  0.28170000  0.91518000  0.14589000  1
  C  C126  1  0.44212000  0.99176000  0.88328000  1
  C  C127  1  0.94363000  0.88315000  0.14390000  1
  C  C128  1  0.00700000  0.88412000  0.30452000  1
  C  C129  1  0.97519000  0.87098000  0.26146000  1
  C  C130  1  0.05264000  0.38661000  0.09872000  1
  C  C131  1  0.01255000  0.45596000  0.12644000  1
  C  C132  1  0.92212000  0.49230000  0.12935000  1
  C  C133  1  0.87217000  0.45810000  0.10429000  1
  C  C134  1  0.91041000  0.38861000  0.07686000  1
  C  C135  1  0.00063000  0.35310000  0.07508000  1
  C  C136  1  0.15020000  0.35152000  0.08808000  1
  C  C137  1  0.19275000  0.33600000  0.14617000  1
  C  C138  1  0.28450000  0.30105000  0.13375000  1
  C  C139  1  0.33635000  0.28215000  0.06232000  1
  C  C140  1  0.29470000  0.30010000  0.00325000  1
  C  C141  1  0.20293000  0.33325000  0.01638000  1
  C  C142  1  0.87938000  0.57030000  0.14997000  1
  C  C143  1  0.78653000  0.58259000  0.19335000  1
  C  C144  1  0.74160000  0.66057000  0.20009000  1
  C  C145  1  0.78748000  0.72906000  0.15951000  1
  C  C146  1  0.88093000  0.71669000  0.11908000  1
  C  C147  1  0.92709000  0.63773000  0.11706000  1
  C  C148  1  0.85833000  0.35516000  0.04759000  1
  C  C149  1  0.86805000  0.26946000  0.06225000  1
  C  C150  1  0.81871000  0.23644000  0.03641000  1
  C  C151  1  0.75882000  0.28841000  0.99355000  1
  C  C152  1  0.75014000  0.37435000  0.97710000  1
  C  C153  1  0.79851000  0.40720000  0.00421000  1
  C  C154  1  0.73662000  0.81485000  0.15675000  1
  C  C155  1  0.43351000  0.24071000  0.04955000  1
  C  C156  1  0.70007000  0.25435000  0.96989000  1
  C  C157  1  0.08894000  0.10358000  0.42744000  1
  C  C158  1  0.03988000  0.10588000  0.37848000  1
  C  C159  1  0.94418000  0.12040000  0.40262000  1
  C  C160  1  0.89790000  0.13695000  0.47563000  1
  C  C161  1  0.94515000  0.13380000  0.52687000  1
  C  C162  1  0.04129000  0.11647000  0.50183000  1
  C  C163  1  0.18923000  0.08156000  0.40174000  1
  C  C164  1  0.22912000  0.01680000  0.36711000  1
  C  C165  1  0.32316000  0.99364000  0.34282000  1
  C  C166  1  0.37988000  0.03706000  0.34998000  1
  C  C167  1  0.34073000  0.10201000  0.38416000  1
  C  C168  1  0.24636000  0.12310000  0.41121000  1
  C  C169  1  0.89573000  0.10554000  0.35681000  1
  C  C170  1  0.93143000  0.12011000  0.27363000  1
  C  C171  1  0.89287000  0.09313000  0.23372000  1
  C  C172  1  0.81746000  0.05141000  0.27534000  1
  C  C173  1  0.77948000  0.03945000  0.35764000  1
  C  C174  1  0.81786000  0.06644000  0.39764000  1
  C  C175  1  0.89454000  0.13666000  0.60771000  1
  C  C176  1  0.80751000  0.18099000  0.62869000  1
  C  C177  1  0.75219000  0.16885000  0.70787000  1
  C  C178  1  0.77913000  0.10182000  0.76957000  1
  C  C179  1  0.86331000  0.05451000  0.75272000  1
  C  C180  1  0.93523000  0.08054000  0.67356000  1
  C  C181  1  0.48111000  0.01760000  0.31753000  1
  C  C182  1  0.77877000  0.01910000  0.23285000  1
  C  C183  1  0.71843000  0.08476000  0.85414000  1
  C  C184  1  0.55753000  0.00860000  0.11672000  1
  C  C185  1  0.05640000  0.11772000  0.85622000  1
  C  C186  1  0.99303000  0.11583000  0.69537000  1
  C  C187  1  0.02472000  0.12853000  0.73880000  1
  N  N188  1  0.94309000  0.85767000  0.21277000  1
  N  N189  1  0.05679000  0.14174000  0.78749000  1
  O  O190  1  0.52452000  0.76877000  0.90290000  1
  O  O191  1  0.53274000  0.78770000  0.01210000  1
  O  O192  1  0.26243000  0.13239000  0.91034000  1
  O  O193  1  0.30511000  0.17248000  0.77490000  1
  O  O194  1  0.30424000  0.82580000  0.99626000  1
  O  O195  1  0.34594000  0.70094000  0.07502000  1
  O  O196  1  0.48711000  0.05579000  0.69154000  1
  O  O197  1  0.47075000  0.92840000  0.70007000  1
  O  O198  1  0.20087000  0.95504000  0.84225000  1
  O  O199  1  0.27493000  0.03424000  0.72123000  1
  O  O200  1  0.25816000  0.97722000  0.09263000  1
  O  O201  1  0.35508000  0.86234000  0.13264000  1
  O  O202  1  0.38321000  0.97786000  0.86101000  1
  O  O203  1  0.45602000  0.95457000  0.95042000  1
  O  O204  1  0.94131000  0.90182000  0.07751000  1
  O  O205  1  0.47546000  0.23133000  0.09709000  1
  O  O206  1  0.46785000  0.21341000  0.98715000  1
  O  O207  1  0.74166000  0.86818000  0.08956000  1
  O  O208  1  0.69050000  0.82649000  0.22506000  1
  O  O209  1  0.69591000  0.17432000  0.00369000  1
  O  O210  1  0.65453000  0.29905000  0.92465000  1
  O  O211  1  0.51253000  0.94462000  0.30736000  1
  O  O212  1  0.52923000  0.07167000  0.29960000  1
  O  O213  1  0.79901000  0.04499000  0.15772000  1
  O  O214  1  0.72495000  0.96555000  0.27861000  1
  O  O215  1  0.74208000  0.02275000  0.90736000  1
  O  O216  1  0.64499000  0.13747000  0.86750000  1
  O  O217  1  0.61655000  0.02246000  0.13885000  1
  O  O218  1  0.54380000  0.04564000  0.04948000  1
  O  O219  1  0.05881000  0.10034000  0.92248000  1
