# generated using pymatgen
data_H13C20(NO)2
_symmetry_space_group_name_H-M   'P 1'
_cell_length_a   10.03226667
_cell_length_b   19.59670000
_cell_length_c   19.59670000
_cell_angle_alpha   90.00000000
_cell_angle_beta   90.00000000
_cell_angle_gamma   90.00000000
_symmetry_Int_Tables_number   1
_chemical_formula_structural   H13C20(NO)2
_chemical_formula_sum   'H26 C40 N4 O4'
_cell_volume   3852.69789790
_cell_formula_units_Z   2
loop_
 _symmetry_equiv_pos_site_id
 _symmetry_equiv_pos_as_xyz
  1  'x, y, z'
loop_
 _atom_site_type_symbol
 _atom_site_label
 _atom_site_symmetry_multiplicity
 _atom_site_fract_x
 _atom_site_fract_y
 _atom_site_fract_z
 _atom_site_occupancy
  C  1  1  0.99526900  0.96796000  0.96792000  1
  C  2  1  0.00342200  0.98407200  0.89694000  1
  C  3  1  0.00666200  0.93425600  0.84472400  1
  C  4  1  0.99531100  0.86560900  0.86556300  1
  C  5  1  0.98394900  0.84476800  0.93420700  1
  C  6  1  0.98714800  0.89697800  0.98402600  1
  C  10  1  0.99520200  0.01992900  0.01988800  1
  C  11  1  0.03646600  0.08836400  0.00644800  1
  C  12  1  0.04124100  0.13967900  0.05710900  1
  C  13  1  0.99502400  0.12285000  0.12280500  1
  C  14  1  0.94892800  0.05712900  0.13962400  1
  C  15  1  0.95381600  0.00648900  0.08829800  1
  C  19  1  0.90395300  0.04428100  0.20700900  1
  C  20  1  0.08623000  0.20708900  0.04431700  1
  C  21  1  0.96769300  0.77407600  0.94886400  1
  C  22  1  0.02294000  0.94891800  0.77403200  1
  C  27  1  0.02195400  0.02110800  0.67455100  1
  C  28  1  0.11937000  0.98675400  0.63534800  1
  C  29  1  0.10960000  0.98269400  0.56407600  1
  C  30  1  0.00352400  0.01400100  0.52754700  1
  C  31  1  0.92012500  0.05768100  0.56713200  1
  C  32  1  0.93049100  0.06241000  0.63870300  1
  C  35  1  0.98142700  0.00124300  0.45633600  1
  C  36  1  0.07653200  0.96772800  0.41396500  1
  C  37  1  0.05577400  0.95717800  0.34377500  1
  C  38  1  0.94097800  0.98292400  0.31104600  1
  C  39  1  0.84015800  0.01054200  0.35313300  1
  C  40  1  0.85980800  0.01920500  0.42359400  1
  C  51  1  0.04921400  0.31112600  0.98307700  1
  C  52  1  0.15008000  0.35319500  0.01068300  1
  C  53  1  0.13042300  0.42365500  0.01935900  1
  C  54  1  0.00877600  0.45639500  0.00143200  1
  C  55  1  0.91361800  0.41400500  0.96797300  1
  C  56  1  0.93447900  0.34384600  0.95728200  1
  C  59  1  0.98673400  0.52761600  0.01414400  1
  C  60  1  0.07006700  0.56718800  0.05786500  1
  C  61  1  0.05983600  0.63877000  0.06250400  1
  C  62  1  0.96846900  0.67463300  0.02114600  1
  C  63  1  0.87116300  0.63542200  0.98671200  1
  C  64  1  0.88064800  0.56412900  0.98284000  1
  H  7  1  0.00623900  0.03363200  0.88182800  1
  H  8  1  0.98436700  0.88186100  0.03358600  1
  H  9  1  0.99530100  0.82879600  0.82875000  1
  H  16  1  0.07759900  0.10063300  0.96053300  1
  H  17  1  0.99496900  0.15978500  0.15973500  1
  H  18  1  0.91289800  0.96052400  0.10059000  1
  H  33  1  0.84724000  0.08637000  0.54498300  1
  H  34  1  0.85961000  0.08948900  0.66473300  1
  H  41  1  0.16810100  0.95411000  0.43173300  1
  H  42  1  0.13265200  0.93786500  0.31534200  1
  H  43  1  0.75146900  0.02573600  0.33233100  1
  H  44  1  0.19412300  0.96017500  0.65890600  1
  H  45  1  0.78131900  0.03877600  0.45020000  1
  H  46  1  0.17627600  0.95103600  0.54104200  1
  H  48  1  0.99789000  0.95495000  0.21724000  1
  H  50  1  0.95883100  0.04547000  0.76892900  1
  H  57  1  0.82219200  0.43184500  0.95419500  1
  H  58  1  0.85757200  0.31546000  0.93793200  1
  H  65  1  0.14296300  0.54504500  0.08654900  1
  H  66  1  0.13061400  0.66484000  0.08961000  1
  H  67  1  0.79650500  0.65901300  0.96008900  1
  H  68  1  0.23877700  0.33239100  0.02585500  1
  H  69  1  0.81421700  0.54116700  0.95099000  1
  H  70  1  0.20892100  0.45026700  0.03891200  1
  H  72  1  0.03145100  0.76891200  0.04560300  1
  H  74  1  0.99224200  0.21715200  0.95515400  1
  N  47  1  0.93793300  0.98594200  0.24127900  1
  N  49  1  0.00902000  0.01142800  0.74349600  1
  N  71  1  0.98155700  0.74356800  0.01137700  1
  N  73  1  0.05230600  0.24137100  0.98594500  1
  O  23  1  0.86175700  0.09956000  0.24302800  1
  O  24  1  0.95277000  0.73192600  0.89415900  1
  O  25  1  0.03804200  0.89420500  0.73191000  1
  O  26  1  0.12868000  0.24296800  0.09962200  1
