# generated using pymatgen
data_H22C39(N5O)2
_symmetry_space_group_name_H-M   'P 1'
_cell_length_a   17.06260000
_cell_length_b   29.55329011
_cell_length_c   51.18790000
_cell_angle_alpha   90.00000000
_cell_angle_beta   90.00460000
_cell_angle_gamma   90.00000000
_symmetry_Int_Tables_number   1
_chemical_formula_structural   H22C39(N5O)2
_chemical_formula_sum   'H132 C234 N60 O12'
_cell_volume   25811.80397187
_cell_formula_units_Z   6
loop_
 _symmetry_equiv_pos_site_id
 _symmetry_equiv_pos_as_xyz
  1  'x, y, z'
loop_
 _atom_site_type_symbol
 _atom_site_label
 _atom_site_symmetry_multiplicity
 _atom_site_fract_x
 _atom_site_fract_y
 _atom_site_fract_z
 _atom_site_occupancy
  C  1  1  0.02336100  0.03458200  0.99543100  1
  C  2  1  0.02218300  0.03449300  0.02274400  1
  C  3  1  0.02127800  0.07074900  0.04052600  1
  C  4  1  0.01761400  0.06165200  0.06753100  1
  C  5  1  0.02519600  0.06194300  0.95064900  1
  C  6  1  0.02493900  0.07093300  0.97769800  1
  C  11  1  0.11008600  0.08485200  0.67525800  1
  C  12  1  0.19100500  0.09277700  0.67489000  1
  C  13  1  0.23063700  0.05128400  0.67474400  1
  C  14  1  0.17583900  0.01602400  0.67494500  1
  C  15  1  0.31145700  0.04188600  0.67506800  1
  C  16  1  0.22039200  0.13726000  0.67473400  1
  C  17  1  0.16755900  0.17395300  0.67485100  1
  C  18  1  0.08534900  0.16725500  0.67516600  1
  C  19  1  0.05696100  0.12194000  0.67538700  1
  C  20  1  0.04572300  0.02020500  0.65270500  1
  C  21  1  0.04751800  0.01950500  0.69799900  1
  C  22  1  0.06268500  0.02263800  0.72523000  1
  C  23  1  0.05807100  0.02487400  0.62538800  1
  C  29  1  0.09484900  0.03513600  0.67522400  1
  C  31  1  0.85346400  0.01934500  0.34234900  1
  C  32  1  0.80129100  0.05589500  0.34187800  1
  C  33  1  0.84418000  0.09639200  0.34164100  1
  C  34  1  0.92437900  0.08632200  0.34185200  1
  C  35  1  0.98053500  0.12183900  0.34232500  1
  C  36  1  0.95654200  0.16792000  0.34214400  1
  C  37  1  0.87465000  0.17686100  0.34217500  1
  C  38  1  0.81872100  0.14167900  0.34178000  1
  C  39  1  0.71990000  0.04815500  0.34159500  1
  C  40  1  0.98096500  0.01876100  0.31944300  1
  C  41  1  0.98289300  0.01989500  0.36462900  1
  C  42  1  0.97099600  0.02593000  0.39184300  1
  C  43  1  0.96604000  0.02286300  0.29226700  1
  C  49  1  0.93560300  0.03630700  0.34211400  1
  C  52  1  0.00670000  0.01738800  0.14925100  1
  C  54  1  0.97783500  0.04687600  0.16913800  1
  C  55  1  0.94690100  0.09086000  0.16488100  1
  C  60  1  0.02095200  0.03120400  0.12363000  1
  C  63  1  0.07251400  0.04678200  0.84896700  1
  C  64  1  0.04189700  0.01933900  0.86920200  1
  C  66  1  0.05347400  0.02971000  0.89558100  1
  C  69  1  0.92829000  0.01680800  0.51579800  1
  C  70  1  0.98602200  0.01566400  0.53565200  1
  C  74  1  0.96627200  0.01681000  0.56216600  1
  C  76  1  0.01572500  0.01664100  0.07735300  1
  C  77  1  0.02467000  0.01698900  0.94080300  1
  C  159  1  0.58625500  0.42561700  0.00881300  1
  C  160  1  0.55770300  0.38119200  0.00849300  1
  C  161  1  0.47562700  0.38211600  0.00839100  1
  C  162  1  0.45015200  0.42714600  0.00859600  1
  C  163  1  0.36859700  0.43700000  0.00910600  1
  C  164  1  0.31200700  0.40164700  0.00899100  1
  C  165  1  0.34022000  0.35637900  0.00912800  1
  C  166  1  0.42105300  0.34643500  0.00866500  1
  C  167  1  0.60979600  0.34428300  0.00829600  1
  C  168  1  0.69125100  0.35239300  0.00834000  1
  C  169  1  0.72226500  0.39685900  0.00861800  1
  C  170  1  0.66843100  0.43368000  0.00886400  1
  C  171  1  0.52117700  0.48980900  0.98612200  1
  C  172  1  0.51974800  0.48985300  0.03137200  1
  C  173  1  0.51624000  0.51704100  0.07703700  1
  C  174  1  0.51695100  0.48100500  0.05862400  1
  C  175  1  0.52142400  0.48083200  0.95887000  1
  C  176  1  0.52467100  0.51683800  0.94049200  1
  C  185  1  0.51929500  0.45807300  0.00875500  1
  C  190  1  0.70270000  0.47055900  0.67577100  1
  C  191  1  0.78402800  0.45995500  0.67566200  1
  C  192  1  0.83782000  0.49669500  0.67578700  1
  C  193  1  0.47923100  0.49890500  0.66173700  1
  C  194  1  0.47988100  0.49823500  0.68903800  1
  C  195  1  0.42595100  0.47943800  0.70673000  1
  C  196  1  0.44090100  0.48236200  0.73375200  1
  C  197  1  0.00938500  0.00430300  0.74379700  1
  C  198  1  0.00176300  0.00856900  0.60719500  1
  C  199  1  0.43726900  0.48631400  0.61695300  1
  C  200  1  0.42395300  0.48153600  0.64398900  1
  C  211  1  0.19712600  0.50171000  0.34166300  1
  C  212  1  0.24829800  0.46395800  0.34194600  1
  C  213  1  0.33045400  0.47246800  0.34219200  1
  C  214  1  0.55457700  0.49488800  0.32841000  1
  C  215  1  0.55524500  0.49554100  0.35570900  1
  C  216  1  0.61041900  0.47799700  0.37340900  1
  C  217  1  0.59853900  0.48401000  0.40043100  1
  C  218  1  0.02409800  0.00717200  0.41027500  1
  C  219  1  0.01580200  0.00150400  0.27376200  1
  C  220  1  0.59444900  0.48022300  0.28362600  1
  C  221  1  0.60827700  0.47594600  0.31066000  1
  C  232  1  0.54799600  0.46428600  0.18200700  1
  C  233  1  0.52197900  0.49317300  0.20228200  1
  C  235  1  0.53166700  0.48207700  0.22863200  1
  C  237  1  0.50874700  0.50167300  0.81574000  1
  C  239  1  0.47960700  0.47282600  0.83590100  1
  C  240  1  0.43239200  0.43386300  0.83197300  1
  C  245  1  0.48271800  0.49991300  0.78992200  1
  C  247  1  0.02493700  0.00681700  0.48216900  1
  C  249  1  0.59343500  0.50809500  0.50256800  1
  C  250  1  0.67548000  0.50393600  0.49864000  1
  C  253  1  0.55121600  0.49610300  0.45659300  1
  C  255  1  0.09603100  0.39898000  0.00587300  1
  C  257  1  0.99318500  0.45488600  0.00718000  1
  C  258  1  0.93423300  0.42124500  0.00811600  1
  C  260  1  0.03724100  0.36468000  0.00742400  1
  C  262  1  0.05110800  0.31734000  0.00817800  1
  C  267  1  0.17525300  0.38952300  0.00114000  1
  C  269  1  0.85381300  0.43108800  0.00871200  1
  C  271  1  0.89589700  0.35326300  0.67254200  1
  C  273  1  0.86320100  0.27392600  0.67382200  1
  C  274  1  0.94309200  0.26118500  0.67475800  1
  C  276  1  0.97670100  0.34093600  0.67409500  1
  C  278  1  0.04087100  0.37147700  0.67486300  1
  C  283  1  0.87059100  0.39763000  0.66783000  1
  C  285  1  0.96836700  0.21602300  0.67533000  1
  C  287  1  0.06302000  0.27649400  0.33905300  1
  C  289  1  0.19858800  0.29949900  0.34034600  1
  C  290  1  0.17812000  0.34587300  0.34139700  1
  C  292  1  0.04152500  0.32310600  0.34073500  1
  C  294  1  0.96376200  0.34008300  0.34156700  1
  C  299  1  0.00867300  0.24191300  0.33420200  1
  C  301  1  0.23342400  0.38101300  0.34202000  1
  C  303  1  0.08628400  0.92560100  0.00902400  1
  C  304  1  0.05771900  0.88117900  0.00862000  1
  C  305  1  0.97563900  0.88212000  0.00852600  1
  C  306  1  0.95017300  0.92715100  0.00881500  1
  C  307  1  0.86862100  0.93701100  0.00934100  1
  C  308  1  0.81202400  0.90166100  0.00912600  1
  C  309  1  0.84022700  0.85639000  0.00916100  1
  C  310  1  0.92105700  0.84644200  0.00870200  1
  C  311  1  0.10981000  0.84427300  0.00832100  1
  C  312  1  0.19126800  0.85238100  0.00835000  1
  C  313  1  0.22228900  0.89684300  0.00871600  1
  C  314  1  0.16846000  0.93366100  0.00906700  1
  C  315  1  0.02130000  0.98987400  0.98642500  1
  C  316  1  0.52285500  0.53454900  0.99507400  1
  C  317  1  0.52152900  0.53455900  0.02237400  1
  C  318  1  0.01990700  0.98974200  0.03166300  1
  C  319  1  0.52027700  0.57092400  0.04006800  1
  C  320  1  0.51717100  0.56198700  0.06708900  1
  C  321  1  0.01644900  0.98072200  0.05888000  1
  C  322  1  0.02135400  0.98095800  0.95916500  1
  C  323  1  0.52495600  0.56182100  0.95029000  1
  C  324  1  0.52445300  0.57086900  0.97732300  1
  C  337  1  0.01933600  0.95806100  0.00901300  1
  C  342  1  0.61091400  0.58506700  0.67548000  1
  C  343  1  0.69182800  0.59301600  0.67515800  1
  C  344  1  0.73149400  0.55152100  0.67505800  1
  C  345  1  0.67669600  0.51626300  0.67526700  1
  C  346  1  0.20192500  0.97033000  0.67548400  1
  C  347  1  0.28328000  0.95974900  0.67542200  1
  C  348  1  0.33701800  0.99651700  0.67556400  1
  C  349  1  0.81230800  0.54208400  0.67533200  1
  C  350  1  0.72112600  0.63751800  0.67495700  1
  C  351  1  0.66821900  0.67418400  0.67500400  1
  C  352  1  0.58601400  0.66744700  0.67528500  1
  C  353  1  0.55771600  0.62211600  0.67553100  1
  C  354  1  0.54718800  0.52042800  0.65278900  1
  C  355  1  0.97803700  0.99867200  0.66188100  1
  C  356  1  0.97940100  0.99800200  0.68918300  1
  C  357  1  0.54785200  0.51967400  0.69803800  1
  C  358  1  0.92592600  0.97917200  0.70701700  1
  C  359  1  0.94142200  0.98217000  0.73400200  1
  C  360  1  0.50879000  0.50436300  0.74370200  1
  C  361  1  0.56249800  0.52272600  0.72529100  1
  C  362  1  0.56052900  0.52503400  0.62553700  1
  C  363  1  0.50490000  0.50864600  0.60715800  1
  C  364  1  0.93450900  0.98620700  0.61725400  1
  C  365  1  0.92214300  0.98136400  0.64433000  1
  C  378  1  0.59572800  0.53535700  0.67542200  1
  C  383  1  0.35946500  0.51759600  0.34214200  1
  C  384  1  0.30709900  0.55408600  0.34181900  1
  C  385  1  0.34950600  0.59467400  0.34172200  1
  C  386  1  0.42979800  0.58492200  0.34193100  1
  C  387  1  0.48532900  0.62079600  0.34245400  1
  C  388  1  0.46054300  0.66676000  0.34234300  1
  C  389  1  0.37852500  0.67525400  0.34247200  1
  C  390  1  0.32322800  0.63979200  0.34200300  1
  C  391  1  0.22569200  0.54649000  0.34161600  1
  C  392  1  0.69145900  0.00329400  0.34169000  1
  C  393  1  0.74276000  0.96558300  0.34211400  1
  C  394  1  0.82477500  0.97420100  0.34246800  1
  C  395  1  0.48830100  0.51809400  0.31945700  1
  C  396  1  0.04602700  0.99428700  0.32826300  1
  C  397  1  0.04762300  0.99538000  0.35559800  1
  C  398  1  0.48908800  0.51879400  0.36470400  1
  C  399  1  0.10183900  0.97699600  0.37336600  1
  C  400  1  0.09010500  0.98324600  0.40040500  1
  C  401  1  0.53155400  0.50691700  0.41037300  1
  C  402  1  0.47717300  0.52459400  0.39195400  1
  C  403  1  0.47472100  0.52246900  0.29220400  1
  C  404  1  0.52712300  0.50286000  0.27382700  1
  C  405  1  0.08173800  0.97727000  0.28333100  1
  C  406  1  0.09694700  0.97339900  0.31032500  1
  C  419  1  0.44162300  0.53488400  0.34208700  1
  C  424  1  0.51224500  0.51840800  0.14907500  1
  C  426  1  0.03349200  0.96185700  0.18233500  1
  C  427  1  0.00769100  0.99124100  0.20239800  1
  C  429  1  0.48356200  0.54740300  0.16923700  1
  C  431  1  0.44871900  0.59049200  0.16531000  1
  C  436  1  0.52261300  0.53230200  0.12325700  1
  C  438  1  0.01433700  0.97969600  0.22878700  1
  C  440  1  0.00955600  0.00193400  0.81590600  1
  C  442  1  0.57206700  0.54659800  0.84867600  1
  C  443  1  0.54175600  0.51914300  0.86894800  1
  C  445  1  0.98010500  0.97309800  0.83602800  1
  C  447  1  0.93281800  0.93418200  0.83201900  1
  C  452  1  0.98360500  0.00029600  0.79006000  1
  C  454  1  0.55357100  0.52952000  0.89529800  1
  C  456  1  0.53558900  0.50826100  0.48240700  1
  C  458  1  0.43655800  0.51749800  0.51534100  1
  C  459  1  0.49290400  0.51605300  0.53561500  1
  C  460  1  0.08414100  0.00685700  0.50186100  1
  C  462  1  0.16576400  0.00230300  0.49721200  1
  C  466  1  0.03874000  0.99386000  0.45638700  1
  C  468  1  0.47143500  0.51677400  0.56196500  1
  C  470  1  0.59605900  0.89901800  0.00591200  1
  C  472  1  0.49318300  0.95490400  0.00722300  1
  C  473  1  0.43425000  0.92125300  0.00815500  1
  C  475  1  0.53728600  0.86470800  0.00744200  1
  C  477  1  0.55117200  0.81736600  0.00817600  1
  C  482  1  0.67529200  0.88958800  0.00118800  1
  C  484  1  0.35382500  0.93108600  0.00877400  1
  C  486  1  0.39569800  0.85319300  0.67249900  1
  C  488  1  0.36339500  0.77380100  0.67382000  1
  C  489  1  0.44335000  0.76119000  0.67477300  1
  C  491  1  0.47656300  0.84099100  0.67407400  1
  C  493  1  0.54060200  0.87162400  0.67484000  1
  C  498  1  0.37019200  0.89751600  0.66775000  1
  C  500  1  0.46886000  0.71606800  0.67537700  1
  C  502  1  0.56376700  0.77629500  0.33912500  1
  C  504  1  0.69854100  0.80074500  0.34047300  1
  C  505  1  0.67648600  0.84687500  0.34145600  1
  C  507  1  0.54073200  0.82267200  0.34070400  1
  C  509  1  0.46252000  0.83894100  0.34145600  1
  C  514  1  0.51058200  0.74113100  0.33432300  1
  C  516  1  0.73037400  0.88268200  0.34210100  1
  H  7  1  0.02461100  0.08883400  0.93808400  1
  H  8  1  0.02521700  0.10360600  0.98424500  1
  H  9  1  0.02169400  0.10345000  0.03402300  1
  H  10  1  0.01455400  0.08864200  0.07994600  1
  H  24  1  0.11299100  0.03807400  0.73144100  1
  H  25  1  0.10787000  0.04043000  0.61884400  1
  H  26  1  0.35153100  0.06758500  0.67541000  1
  H  27  1  0.99805300  0.11577300  0.67553500  1
  H  28  1  0.27941700  0.14312900  0.67445300  1
  H  44  1  0.92352600  0.04404000  0.39813100  1
  H  45  1  0.91858200  0.04106600  0.28606600  1
  H  46  1  0.03886800  0.11397600  0.34291300  1
  H  47  1  0.76025400  0.14918800  0.34205600  1
  H  48  1  0.68149100  0.07468300  0.34118400  1
  H  58  1  0.88665600  0.07992800  0.13108200  1
  H  59  1  0.87884500  0.13213700  0.14297200  1
  H  61  1  0.04102000  0.06249200  0.12137400  1
  H  65  1  0.10531400  0.07486400  0.85302000  1
  H  67  1  0.08658200  0.05652300  0.89963900  1
  H  71  1  0.87003400  0.01930400  0.52023300  1
  H  73  1  0.17591600  0.03917000  0.46370400  1
  H  75  1  0.90978600  0.02032800  0.56656000  1
  H  79  1  0.25983900  0.01828900  0.47503800  1
  H  177  1  0.51488400  0.44820300  0.06495700  1
  H  178  1  0.51973000  0.44804700  0.95250900  1
  H  179  1  0.35067000  0.47000100  0.00963600  1
  H  180  1  0.30175500  0.32990800  0.01010500  1
  H  181  1  0.43951900  0.31353800  0.00898500  1
  H  182  1  0.68858300  0.46623200  0.00897100  1
  H  183  1  0.58912800  0.31182800  0.00803400  1
  H  184  1  0.72827300  0.32512000  0.00811600  1
  H  201  1  0.39729400  0.47257300  0.60436600  1
  H  202  1  0.37485400  0.46525700  0.65050800  1
  H  203  1  0.37688000  0.46318300  0.70016000  1
  H  204  1  0.40167700  0.46738500  0.74608500  1
  H  205  1  0.66216800  0.44509300  0.67630100  1
  H  206  1  0.89676100  0.49070300  0.67675600  1
  H  207  1  0.19000300  0.20609100  0.67465000  1
  H  222  1  0.63504500  0.46710500  0.27103700  1
  H  223  1  0.65724500  0.45953500  0.31718100  1
  H  224  1  0.65936000  0.46160900  0.36684300  1
  H  225  1  0.64062900  0.47190600  0.41276800  1
  H  226  1  0.85472400  0.20945200  0.34305600  1
  H  227  1  0.36918700  0.44611200  0.34230000  1
  H  228  1  0.13770400  0.49684400  0.34143600  1
  H  234  1  0.57375000  0.43383200  0.18600500  1
  H  236  1  0.55530600  0.45210100  0.23266800  1
  H  243  1  0.48305000  0.40869500  0.79895900  1
  H  244  1  0.41034400  0.37738200  0.81090300  1
  H  246  1  0.42644300  0.49260400  0.78742100  1
  H  252  1  0.77123400  0.52110500  0.47756400  1
  H  254  1  0.59025300  0.47158100  0.45409600  1
  H  261  1  0.97904000  0.48847900  0.00677400  1
  H  265  1  0.14558800  0.31581800  0.03251600  1
  H  266  1  0.11386700  0.26519900  0.02294100  1
  H  268  1  0.18634100  0.36269000  0.99001600  1
  H  270  1  0.83675200  0.46322000  0.00915300  1
  H  277  1  0.81979800  0.25010400  0.67340600  1
  H  281  1  0.99604900  0.41950600  0.69920700  1
  H  282  1  0.08786700  0.42887200  0.68963800  1
  H  284  1  0.90537200  0.41659600  0.65673600  1
  H  286  1  0.92862400  0.19147000  0.67575400  1
  H  293  1  0.25595000  0.28957900  0.33987700  1
  H  297  1  0.91396900  0.29362600  0.36585200  1
  H  298  1  0.85419300  0.33499900  0.35636600  1
  H  300  1  0.96332500  0.25002400  0.32293000  1
  H  302  1  0.29008500  0.37332200  0.34245600  1
  H  325  1  0.52431900  0.58867800  0.93770100  1
  H  326  1  0.52454600  0.60355900  0.98384200  1
  H  327  1  0.52038100  0.60358300  0.03349700  1
  H  328  1  0.51428600  0.58908700  0.07942200  1
  H  329  1  0.01355400  0.94789600  0.06513500  1
  H  330  1  0.01947800  0.94818700  0.95278400  1
  H  331  1  0.85070300  0.97000900  0.00993200  1
  H  332  1  0.80175100  0.82991600  0.01005700  1
  H  333  1  0.93951300  0.81354200  0.00894000  1
  H  334  1  0.18861300  0.96620900  0.00923100  1
  H  335  1  0.08913400  0.81182000  0.00798500  1
  H  336  1  0.22828600  0.82510800  0.00804400  1
  H  366  1  0.89407800  0.97248200  0.60481900  1
  H  367  1  0.87324300  0.96509200  0.65102100  1
  H  368  1  0.87676500  0.96285200  0.70057600  1
  H  369  1  0.90251000  0.96714600  0.74642900  1
  H  370  1  0.61273200  0.53809500  0.73162500  1
  H  371  1  0.61056000  0.54057500  0.61917600  1
  H  372  1  0.16142800  0.94484700  0.67605100  1
  H  373  1  0.39596100  0.99056100  0.67659200  1
  H  374  1  0.85241200  0.56776700  0.67563300  1
  H  375  1  0.49882000  0.61590700  0.67564100  1
  H  376  1  0.78014200  0.64342000  0.67469300  1
  H  377  1  0.69060300  0.70633600  0.67477700  1
  H  407  1  0.12041200  0.96276400  0.27057200  1
  H  408  1  0.14483700  0.95578400  0.31668600  1
  H  409  1  0.14981800  0.95965500  0.36682900  1
  H  410  1  0.13131100  0.97044900  0.41285400  1
  H  411  1  0.42899400  0.54202300  0.39828400  1
  H  412  1  0.42638600  0.53970900  0.28584300  1
  H  413  1  0.54380200  0.61328100  0.34299100  1
  H  414  1  0.35801300  0.70771700  0.34344100  1
  H  415  1  0.26464400  0.64699300  0.34230600  1
  H  416  1  0.86368900  0.94793700  0.34262200  1
  H  417  1  0.18734400  0.57305200  0.34135400  1
  H  418  1  0.63207400  0.99832000  0.34135800  1
  H  430  1  0.05626900  0.93069300  0.18651900  1
  H  434  1  0.38563100  0.57774800  0.13229500  1
  H  435  1  0.37502300  0.62976000  0.14424100  1
  H  437  1  0.53979900  0.56409200  0.12075600  1
  H  439  1  0.03252000  0.94852200  0.23298100  1
  H  446  1  0.60487200  0.57470300  0.85267500  1
  H  450  1  0.98355900  0.90909500  0.79900000  1
  H  451  1  0.91068300  0.87781600  0.81085800  1
  H  453  1  0.92718800  0.99333300  0.78757500  1
  H  455  1  0.58673300  0.55631900  0.89933800  1
  H  461  1  0.37800400  0.51987000  0.51934000  1
  H  465  1  0.68793200  0.54182700  0.46561800  1
  H  467  1  0.07334000  0.96718300  0.45386900  1
  H  469  1  0.41465300  0.51995800  0.56600300  1
  H  476  1  0.47902300  0.98850100  0.00683000  1
  H  480  1  0.64566000  0.81582600  0.03251000  1
  H  481  1  0.61394400  0.76521600  0.02291900  1
  H  483  1  0.68640800  0.86280900  0.99002400  1
  H  485  1  0.33675300  0.96321100  0.00922900  1
  H  492  1  0.32011300  0.74990500  0.67341200  1
  H  496  1  0.49554700  0.91959500  0.69917000  1
  H  497  1  0.58735200  0.92907900  0.68962400  1
  H  499  1  0.40500300  0.91651600  0.65668700  1
  H  501  1  0.42922700  0.69145800  0.67582000  1
  H  508  1  0.75622500  0.79146700  0.34006500  1
  H  512  1  0.41401100  0.79219800  0.36584300  1
  H  513  1  0.35318500  0.83304600  0.35633400  1
  H  515  1  0.46495100  0.74875800  0.32306300  1
  H  517  1  0.78729500  0.87566700  0.34250900  1
  N  30  1  0.01522100  0.01139100  0.58123900  1
  N  50  1  0.01225400  0.01472200  0.43601300  1
  N  51  1  0.00405000  0.00760200  0.24795100  1
  N  53  1  0.98111100  0.03242000  0.19447800  1
  N  57  1  0.90225900  0.10219500  0.14403900  1
  N  62  1  0.05393600  0.03777100  0.82364600  1
  N  68  1  0.94948100  0.01134300  0.49036600  1
  N  72  1  0.20321200  0.02031700  0.47636500  1
  N  78  1  0.06126800  0.01066800  0.52735900  1
  N  186  1  0.51088900  0.50744200  0.10281800  1
  N  187  1  0.80093400  0.39987700  0.00843200  1
  N  188  1  0.23449800  0.41103300  0.01093800  1
  N  189  1  0.52178600  0.50809100  0.91463500  1
  N  208  1  0.02677000  0.00649900  0.76957700  1
  N  209  1  0.04158200  0.20511200  0.67502300  1
  N  210  1  0.80866900  0.41650100  0.67759400  1
  N  229  1  0.21341400  0.42312300  0.34175100  1
  N  230  1  0.01005800  0.20162800  0.34414400  1
  N  231  1  0.54383400  0.47825400  0.15672300  1
  N  238  1  0.49688500  0.48354300  0.86122400  1
  N  242  1  0.44127800  0.40493600  0.81170400  1
  N  248  1  0.56873200  0.51139100  0.52789300  1
  N  256  1  0.07014900  0.44262700  0.00568200  1
  N  259  1  0.96053600  0.37778500  0.00822900  1
  N  264  1  0.11020400  0.29794600  0.02177800  1
  N  272  1  0.84325100  0.31855800  0.67233900  1
  N  275  1  0.99525100  0.29600900  0.67488600  1
  N  280  1  0.04052400  0.41071200  0.68847000  1
  N  288  1  0.14135600  0.26734500  0.33879500  1
  N  291  1  0.09986600  0.35470400  0.34157900  1
  N  296  1  0.90502400  0.32032400  0.35516000  1
  N  338  1  0.00817200  0.00693500  0.10303700  1
  N  339  1  0.30095900  0.89986800  0.00850500  1
  N  340  1  0.73450300  0.91103400  0.01105500  1
  N  341  1  0.02176900  0.00825800  0.91492800  1
  N  379  1  0.52586200  0.50648800  0.76948300  1
  N  380  1  0.54212800  0.70526400  0.67509700  1
  N  381  1  0.30805300  0.91631600  0.67741600  1
  N  382  1  0.51946900  0.51158700  0.58130200  1
  N  420  1  0.51983800  0.51441600  0.43615200  1
  N  421  1  0.70868500  0.92453200  0.34188200  1
  N  422  1  0.51325300  0.70089500  0.34430800  1
  N  423  1  0.51541500  0.50867700  0.24797100  1
  N  425  1  0.03373800  0.97625800  0.15709700  1
  N  428  1  0.49101000  0.53340800  0.19456000  1
  N  433  1  0.40088300  0.60051400  0.14504200  1
  N  441  1  0.55318700  0.53754300  0.82339000  1
  N  444  1  0.99707200  0.98377400  0.86138800  1
  N  449  1  0.94170600  0.90533200  0.81171400  1
  N  457  1  0.45957300  0.51257500  0.49005600  1
  N  464  1  0.71444300  0.52281700  0.47836700  1
  N  471  1  0.57015500  0.94266200  0.00572900  1
  N  474  1  0.46057400  0.87779900  0.00825300  1
  N  479  1  0.61027600  0.79796400  0.02176700  1
  N  487  1  0.34322800  0.81839800  0.67230800  1
  N  490  1  0.49533300  0.79609600  0.67489000  1
  N  495  1  0.54008300  0.91085800  0.68844600  1
  N  503  1  0.64238000  0.76796700  0.33893400  1
  N  506  1  0.59800600  0.85487100  0.34155700  1
  N  511  1  0.40435700  0.81878000  0.35511900  1
  O  56  1  0.95462400  0.12212700  0.18404000  1
  O  241  1  0.38136700  0.42175900  0.85098500  1
  O  251  1  0.71913400  0.48446600  0.51765600  1
  O  263  1  0.99704200  0.28938100  0.99748200  1
  O  279  1  0.10980400  0.35836900  0.66416900  1
  O  295  1  0.94916600  0.38116500  0.33091800  1
  O  432  1  0.45609100  0.62205800  0.18432400  1
  O  448  1  0.88162800  0.92205800  0.85097900  1
  O  463  1  0.21071500  0.98306300  0.51596400  1
  O  478  1  0.49710100  0.78941300  0.99748000  1
  O  494  1  0.60961700  0.85859300  0.66416900  1
  O  510  1  0.44693000  0.87991100  0.33081700  1
