# generated using pymatgen
data_KGdH6C16O9
_symmetry_space_group_name_H-M   'P 1'
_cell_length_a   10.99714000
_cell_length_b   12.70703000
_cell_length_c   15.86119000
_cell_angle_alpha   101.53126000
_cell_angle_beta   105.73291000
_cell_angle_gamma   95.39065000
_symmetry_Int_Tables_number   1
_chemical_formula_structural   KGdH6C16O9
_chemical_formula_sum   'K4 Gd4 H24 C64 O36'
_cell_volume   2064.40755442
_cell_formula_units_Z   4
loop_
 _symmetry_equiv_pos_site_id
 _symmetry_equiv_pos_as_xyz
  1  'x, y, z'
loop_
 _atom_site_type_symbol
 _atom_site_label
 _atom_site_symmetry_multiplicity
 _atom_site_fract_x
 _atom_site_fract_y
 _atom_site_fract_z
 _atom_site_occupancy
  K  K1  1  0.78165000  0.01913000  0.44218000  1.0
  K  K2  1  0.26998000  0.48908000  0.93612000  1.0
  K  K3  1  0.21836000  0.98087000  0.55782000  1.0
  K  K4  1  0.73003000  0.51092000  0.06388000  1.0
  Gd  Gd1  1  0.05107000  0.23038000  0.62870000  1.0
  Gd  Gd2  1  0.49237000  0.73154000  0.11721000  1.0
  Gd  Gd3  1  0.94893000  0.76962000  0.37131000  1.0
  Gd  Gd4  1  0.50763000  0.26846000  0.88280000  1.0
  H  H1  1  0.92229000  0.02858000  0.81416000  1.0
  H  H2  1  0.88605000  0.65047000  0.63797000  1.0
  H  H3  1  0.85303000  0.68380000  0.79109000  1.0
  H  H4  1  0.09000000  0.81943000  0.92575000  1.0
  H  H5  1  0.07144000  0.73369000  0.17266000  1.0
  H  H6  1  0.74836000  0.84187000  0.00831000  1.0
  H  H7  1  0.43713000  0.52410000  0.31516000  1.0
  H  H8  1  0.46827000  0.15317000  0.15707000  1.0
  H  H9  1  0.43750000  0.18482000  0.31086000  1.0
  H  H10  1  0.65744000  0.35001000  0.44709000  1.0
  H  H11  1  0.64593000  0.24476000  0.68778000  1.0
  H  H12  1  0.30218000  0.31309000  0.51239000  1.0
  H  H13  1  0.07771000  0.97142000  0.18584000  1.0
  H  H14  1  0.11396000  0.34953000  0.36203000  1.0
  H  H15  1  0.14697000  0.31620000  0.20891000  1.0
  H  H16  1  0.91001000  0.18057000  0.07426000  1.0
  H  H17  1  0.92857000  0.26631000  0.82734000  1.0
  H  H18  1  0.25165000  0.15813000  0.99169000  1.0
  H  H19  1  0.56287000  0.47590000  0.68484000  1.0
  H  H20  1  0.53174000  0.84683000  0.84293000  1.0
  H  H21  1  0.56250000  0.81518000  0.68914000  1.0
  H  H22  1  0.34256000  0.64999000  0.55291000  1.0
  H  H23  1  0.35407000  0.75524000  0.31223000  1.0
  H  H24  1  0.69782000  0.68691000  0.48761000  1.0
  C  C1  1  0.88578000  0.85843000  0.80998000  1.0
  C  C2  1  0.91608000  0.94645000  0.77515000  1.0
  C  C3  1  0.93772000  0.92750000  0.69102000  1.0
  C  C4  1  0.92591000  0.82014000  0.64095000  1.0
  C  C5  1  0.89657000  0.73285000  0.67802000  1.0
  C  C6  1  0.87759000  0.75110000  0.76272000  1.0
  C  C7  1  0.97637000  0.02576000  0.65955000  1.0
  C  C8  1  0.93700000  0.79951000  0.54808000  1.0
  C  C9  1  0.91341000  0.83624000  0.95979000  1.0
  C  C10  1  0.03695000  0.81018000  0.97327000  1.0
  C  C11  1  0.09431000  0.77539000  0.05102000  1.0
  C  C12  1  0.02697000  0.76111000  0.11237000  1.0
  C  C13  1  0.90059000  0.78236000  0.09514000  1.0
  C  C14  1  0.84477000  0.82233000  0.01985000  1.0
  C  C15  1  0.23083000  0.75782000  0.06903000  1.0
  C  C16  1  0.82076000  0.75988000  0.15458000  1.0
  C  C17  1  0.43745000  0.35708000  0.32139000  1.0
  C  C18  1  0.44507000  0.44353000  0.28003000  1.0
  C  C19  1  0.46348000  0.42577000  0.19494000  1.0
  C  C20  1  0.47233000  0.32036000  0.15023000  1.0
  C  C21  1  0.46354000  0.23437000  0.19311000  1.0
  C  C22  1  0.44679000  0.25174000  0.27853000  1.0
  C  C23  1  0.47595000  0.52476000  0.15773000  1.0
  C  C24  1  0.48701000  0.29955000  0.05818000  1.0
  C  C25  1  0.47403000  0.33797000  0.47329000  1.0
  C  C26  1  0.60404000  0.33061000  0.49201000  1.0
  C  C27  1  0.66588000  0.29859000  0.57024000  1.0
  C  C28  1  0.59790000  0.27063000  0.62750000  1.0
  C  C29  1  0.46561000  0.27253000  0.60466000  1.0
  C  C30  1  0.40376000  0.30809000  0.52823000  1.0
  C  C31  1  0.80390000  0.28740000  0.58746000  1.0
  C  C32  1  0.38842000  0.23259000  0.66005000  1.0
  C  C33  1  0.11423000  0.14157000  0.19002000  1.0
  C  C34  1  0.08392000  0.05355000  0.22485000  1.0
  C  C35  1  0.06229000  0.07250000  0.30898000  1.0
  C  C36  1  0.07409000  0.17986000  0.35905000  1.0
  C  C37  1  0.10344000  0.26715000  0.32199000  1.0
  C  C38  1  0.12242000  0.24890000  0.23728000  1.0
  C  C39  1  0.02364000  0.97424000  0.34045000  1.0
  C  C40  1  0.06300000  0.20049000  0.45192000  1.0
  C  C41  1  0.08659000  0.16376000  0.04021000  1.0
  C  C42  1  0.96305000  0.18982000  0.02673000  1.0
  C  C43  1  0.90569000  0.22461000  0.94898000  1.0
  C  C44  1  0.97303000  0.23889000  0.88763000  1.0
  C  C45  1  0.09942000  0.21764000  0.90487000  1.0
  C  C46  1  0.15523000  0.17767000  0.98015000  1.0
  C  C47  1  0.76917000  0.24218000  0.93097000  1.0
  C  C48  1  0.17924000  0.24012000  0.84542000  1.0
  C  C49  1  0.56256000  0.64292000  0.67861000  1.0
  C  C50  1  0.55493000  0.55647000  0.71997000  1.0
  C  C51  1  0.53652000  0.57423000  0.80506000  1.0
  C  C52  1  0.52767000  0.67964000  0.84977000  1.0
  C  C53  1  0.53646000  0.76563000  0.80690000  1.0
  C  C54  1  0.55322000  0.74826000  0.72148000  1.0
  C  C55  1  0.52405000  0.47524000  0.84227000  1.0
  C  C56  1  0.51299000  0.70045000  0.94182000  1.0
  C  C57  1  0.52598000  0.66203000  0.52671000  1.0
  C  C58  1  0.39596000  0.66939000  0.50799000  1.0
  C  C59  1  0.33412000  0.70141000  0.42976000  1.0
  C  C60  1  0.40210000  0.72937000  0.37250000  1.0
  C  C61  1  0.53439000  0.72747000  0.39535000  1.0
  C  C62  1  0.59624000  0.69191000  0.47177000  1.0
  C  C63  1  0.19611000  0.71260000  0.41254000  1.0
  C  C64  1  0.61158000  0.76740000  0.33996000  1.0
  O  O1  1  0.85554000  0.88295000  0.89039000  1.0
  O  O2  1  0.89115000  0.07967000  0.62542000  1.0
  O  O3  1  0.09524000  0.05983000  0.67506000  1.0
  O  O4  1  0.96099000  0.88296000  0.51606000  1.0
  O  O5  1  0.91974000  0.70311000  0.50029000  1.0
  O  O6  1  0.30952000  0.80445000  0.14616000  1.0
  O  O7  1  0.26643000  0.69933000  0.00736000  1.0
  O  O8  1  0.71047000  0.78706000  0.13817000  1.0
  O  O9  1  0.86687000  0.70875000  0.21529000  1.0
  O  O10  1  0.41058000  0.38090000  0.40286000  1.0
  O  O11  1  0.58685000  0.57751000  0.17137000  1.0
  O  O12  1  0.37480000  0.56084000  0.12108000  1.0
  O  O13  1  0.48927000  0.38092000  0.02008000  1.0
  O  O14  1  0.49568000  0.20497000  0.01734000  1.0
  O  O15  1  0.88373000  0.32345000  0.66604000  1.0
  O  O16  1  0.83778000  0.23779000  0.52105000  1.0
  O  O17  1  0.44852000  0.20031000  0.72864000  1.0
  O  O18  1  0.26774000  0.22763000  0.63329000  1.0
  O  O19  1  0.14446000  0.11705000  0.10961000  1.0
  O  O20  1  0.10886000  0.92033000  0.37459000  1.0
  O  O21  1  0.90477000  0.94017000  0.32495000  1.0
  O  O22  1  0.03901000  0.11704000  0.48394000  1.0
  O  O23  1  0.08027000  0.29689000  0.49971000  1.0
  O  O24  1  0.69048000  0.19555000  0.85384000  1.0
  O  O25  1  0.73358000  0.30067000  0.99264000  1.0
  O  O26  1  0.28953000  0.21294000  0.86183000  1.0
  O  O27  1  0.13314000  0.29125000  0.78472000  1.0
  O  O28  1  0.58943000  0.61910000  0.59714000  1.0
  O  O29  1  0.41315000  0.42249000  0.82863000  1.0
  O  O30  1  0.62520000  0.43916000  0.87892000  1.0
  O  O31  1  0.51073000  0.61908000  0.97992000  1.0
  O  O32  1  0.50432000  0.79503000  0.98266000  1.0
  O  O33  1  0.11627000  0.67655000  0.33396000  1.0
  O  O34  1  0.16222000  0.76221000  0.47895000  1.0
  O  O35  1  0.55148000  0.79969000  0.27136000  1.0
  O  O36  1  0.73226000  0.77237000  0.36671000  1.0
