# generated using pymatgen
data_ErH2C5O6
_symmetry_space_group_name_H-M   'P 1'
_cell_length_a   9.20210000
_cell_length_b   9.20210000
_cell_length_c   14.19737680
_cell_angle_alpha   100.16113023
_cell_angle_beta   100.16143023
_cell_angle_gamma   117.10600000
_symmetry_Int_Tables_number   1
_chemical_formula_structural   ErH2C5O6
_chemical_formula_sum   'Er4 H8 C20 O24'
_cell_volume   1007.12562338
_cell_formula_units_Z   4
loop_
 _symmetry_equiv_pos_site_id
 _symmetry_equiv_pos_as_xyz
  1  'x, y, z'
loop_
 _atom_site_type_symbol
 _atom_site_label
 _atom_site_symmetry_multiplicity
 _atom_site_fract_x
 _atom_site_fract_y
 _atom_site_fract_z
 _atom_site_occupancy
  Er  Er1  1  0.99132000  0.74132000  0.98264000  1.0
  Er  Er2  1  0.75868000  0.50868000  0.51736000  1.0
  Er  Er3  1  0.00868000  0.25868000  0.01736000  1.0
  Er  Er4  1  0.24132000  0.49132000  0.48264000  1.0
  H  H1  1  0.46450000  0.88650000  0.06960000  1.0
  H  H2  1  0.60510000  0.68310000  0.06960000  1.0
  H  H3  1  0.61350000  0.03550000  0.43040000  1.0
  H  H4  1  0.81690000  0.89490000  0.43040000  1.0
  H  H5  1  0.53550000  0.11350000  0.93040000  1.0
  H  H6  1  0.39490000  0.31690000  0.93040000  1.0
  H  H7  1  0.38650000  0.96450000  0.56960000  1.0
  H  H8  1  0.18310000  0.10510000  0.56960000  1.0
  C  C1  1  0.29954000  0.63154000  0.05948000  1.0
  C  C2  1  0.46298000  0.78378000  0.06556000  1.0
  C  C3  1  0.75994000  0.92794000  0.05948000  1.0
  C  C4  1  0.60258000  0.78178000  0.06556000  1.0
  C  C5  1  0.86846000  0.20046000  0.44052000  1.0
  C  C6  1  0.71622000  0.03702000  0.43444000  1.0
  C  C7  1  0.57206000  0.74006000  0.44052000  1.0
  C  C8  1  0.71822000  0.89742000  0.43444000  1.0
  C  C9  1  0.70046000  0.36846000  0.94052000  1.0
  C  C10  1  0.53702000  0.21622000  0.93444000  1.0
  C  C11  1  0.24006000  0.07206000  0.94052000  1.0
  C  C12  1  0.39742000  0.21822000  0.93444000  1.0
  C  C13  1  0.13154000  0.79954000  0.55948000  1.0
  C  C14  1  0.28378000  0.96298000  0.56556000  1.0
  C  C15  1  0.42794000  0.25994000  0.55948000  1.0
  C  C16  1  0.28178000  0.10258000  0.56556000  1.0
  C  C17  1  0.82560000  0.67440000  0.75000000  1.0
  C  C18  1  0.92440000  0.57560000  0.75000000  1.0
  C  C19  1  0.17440000  0.32560000  0.25000000  1.0
  C  C20  1  0.07560000  0.42440000  0.25000000  1.0
  O  O1  1  0.16678000  0.64162000  0.03480000  1.0
  O  O2  1  0.29491000  0.49911000  0.07462000  1.0
  O  O3  1  0.84037000  0.76019000  0.83336000  1.0
  O  O4  1  0.86802000  0.89318000  0.03480000  1.0
  O  O5  1  0.77971000  0.07551000  0.07462000  1.0
  O  O6  1  0.99299000  0.57317000  0.83336000  1.0
  O  O7  1  0.85838000  0.33322000  0.46520000  1.0
  O  O8  1  0.00089000  0.20509000  0.42538000  1.0
  O  O9  1  0.73983667  0.65965667  0.66666667  1.0
  O  O10  1  0.60682000  0.63198000  0.46520000  1.0
  O  O11  1  0.42449000  0.72029000  0.42538000  1.0
  O  O12  1  0.92685667  0.50703667  0.66666667  1.0
  O  O13  1  0.83322000  0.35838000  0.96520000  1.0
  O  O14  1  0.70509000  0.50089000  0.92538000  1.0
  O  O15  1  0.15963000  0.23981000  0.16664000  1.0
  O  O16  1  0.13198000  0.10682000  0.96520000  1.0
  O  O17  1  0.22029000  0.92449000  0.92538000  1.0
  O  O18  1  0.00701000  0.42683000  0.16664000  1.0
  O  O19  1  0.14162000  0.66678000  0.53480000  1.0
  O  O20  1  0.99911000  0.79491000  0.57462000  1.0
  O  O21  1  0.26016333  0.34034333  0.33333333  1.0
  O  O22  1  0.39318000  0.36802000  0.53480000  1.0
  O  O23  1  0.57551000  0.27971000  0.57462000  1.0
  O  O24  1  0.07314333  0.49296333  0.33333333  1.0
