# generated using pymatgen
data_V2H20C29O10
_symmetry_space_group_name_H-M   'P 1'
_cell_length_a   7.20814000
_cell_length_b   14.91138000
_cell_length_c   21.97437000
_cell_angle_alpha   106.86907000
_cell_angle_beta   89.96039000
_cell_angle_gamma   89.96998000
_symmetry_Int_Tables_number   1
_chemical_formula_structural   V2H20C29O10
_chemical_formula_sum   'V4 H40 C58 O20'
_cell_volume   2260.24620542
_cell_formula_units_Z   2
loop_
 _symmetry_equiv_pos_site_id
 _symmetry_equiv_pos_as_xyz
  1  'x, y, z'
loop_
 _atom_site_type_symbol
 _atom_site_label
 _atom_site_symmetry_multiplicity
 _atom_site_fract_x
 _atom_site_fract_y
 _atom_site_fract_z
 _atom_site_occupancy
  V  V0  1  0.06419000  0.99170000  0.50313000  1
  V  V1  1  0.56419000  0.00830000  0.49687000  1
  V  V2  1  0.67209000  0.00830000  0.99688000  1
  V  V3  1  0.17209000  0.99170000  0.00312000  1
  H  H4  1  0.60275000  0.00784000  0.19448000  1
  H  H5  1  0.10269000  0.99384000  0.80591000  1
  H  H6  1  0.01893000  0.96651000  0.19550000  1
  H  H7  1  0.51974000  0.03257000  0.80423000  1
  H  H8  1  0.63469000  0.93615000  0.28750000  1
  H  H9  1  0.13659000  0.06560000  0.71293000  1
  H  H10  1  0.84132000  0.38844000  0.87403000  1
  H  H11  1  0.31653000  0.61059000  0.12634000  1
  H  H12  1  0.83507000  0.26219000  0.66557000  1
  H  H13  1  0.32564000  0.73733000  0.33470000  1
  H  H14  1  0.87748000  0.30633000  0.48319000  1
  H  H15  1  0.39037000  0.69424000  0.51668000  1
  H  H16  1  0.92523000  0.61045000  0.62497000  1
  H  H17  1  0.44112000  0.39033000  0.37474000  1
  H  H18  1  0.85275000  0.52298000  0.96717000  1
  H  H19  1  0.32926000  0.47620000  0.03315000  1
  H  H20  1  0.87137000  0.69277000  0.01580000  1
  H  H21  1  0.35576000  0.30672000  0.98439000  1
  H  H22  1  0.89679000  0.73818000  0.83333000  1
  H  H23  1  0.40765000  0.26214000  0.16650000  1
  H  H24  1  0.84160000  0.31935000  0.76256000  1
  H  H25  1  0.32214000  0.67981000  0.23775000  1
  H  H26  1  0.92579000  0.67957000  0.73661000  1
  H  H27  1  0.43618000  0.32104000  0.26315000  1
  H  H28  1  0.90566000  0.47590000  0.53168000  1
  H  H29  1  0.42304000  0.52488000  0.46809000  1
  H  H30  1  0.09910000  0.29215000  0.36295000  1
  H  H31  1  0.09965000  0.25311000  0.27675000  1
  H  H32  1  0.92840000  0.33641000  0.31898000  1
  H  H33  1  0.78932000  0.17894000  0.27783000  1
  H  H34  1  0.78896000  0.21654000  0.36342000  1
  H  H35  1  0.07946000  0.12469000  0.36418000  1
  H  H36  1  0.08094000  0.08267000  0.28036000  1
  H  H37  1  0.59093000  0.70608000  0.63624000  1
  H  H38  1  0.58998000  0.74432000  0.72245000  1
  H  H39  1  0.41733000  0.66262000  0.67966000  1
  H  H40  1  0.28256000  0.82120000  0.72133000  1
  H  H41  1  0.28325000  0.78419000  0.63573000  1
  H  H42  1  0.57658000  0.87393000  0.63549000  1
  H  H43  1  0.57765000  0.91517000  0.71936000  1
  C  C44  1  0.34456000  0.82596000  0.45547000  1
  C  C45  1  0.84441000  0.17404000  0.54456000  1
  C  C46  1  0.34476000  0.99330000  0.61187000  1
  C  C47  1  0.84489000  0.00681000  0.38815000  1
  C  C48  1  0.73626000  0.99636000  0.21383000  1
  C  C49  1  0.23648000  0.00446000  0.78636000  1
  C  C50  1  0.88939000  0.98592000  0.17754000  1
  C  C51  1  0.38978000  0.01396000  0.82242000  1
  C  C52  1  0.73909000  0.98318000  0.27837000  1
  C  C53  1  0.23969000  0.01774000  0.72185000  1
  C  C54  1  0.85668000  0.02691000  0.32598000  1
  C  C55  1  0.35615000  0.97319000  0.67402000  1
  C  C56  1  0.88623000  0.72437000  0.92618000  1
  C  C57  1  0.38494000  0.27560000  0.07381000  1
  C  C58  1  0.85397000  0.27540000  0.57287000  1
  C  C59  1  0.35479000  0.72459000  0.42722000  1
  C  C60  1  0.86347000  0.56829000  0.93665000  1
  C  C61  1  0.34755000  0.43117000  0.06355000  1
  C  C62  1  0.87393000  0.66467000  0.96447000  1
  C  C63  1  0.36271000  0.33498000  0.03566000  1
  C  C64  1  0.88949000  0.68793000  0.85994000  1
  C  C65  1  0.39292000  0.31220000  0.13999000  1
  C  C66  1  0.88091000  0.59010000  0.83026000  1
  C  C67  1  0.37843000  0.40984000  0.16976000  1
  C  C68  1  0.86595000  0.53068000  0.87019000  1
  C  C69  1  0.35415000  0.46891000  0.12997000  1
  C  C70  1  0.88507000  0.54950000  0.76267000  1
  C  C71  1  0.38520000  0.45054000  0.23732000  1
  C  C72  1  0.86820000  0.45010000  0.73628000  1
  C  C73  1  0.36308000  0.54967000  0.26382000  1
  C  C74  1  0.85283000  0.39448000  0.77836000  1
  C  C75  1  0.33866000  0.60492000  0.22188000  1
  C  C76  1  0.85281000  0.43411000  0.84375000  1
  C  C77  1  0.33530000  0.56521000  0.15651000  1
  C  C78  1  0.90710000  0.60480000  0.72065000  1
  C  C79  1  0.41436000  0.39560000  0.27920000  1
  C  C80  1  0.90816000  0.56506000  0.65521000  1
  C  C81  1  0.41844000  0.43544000  0.34461000  1
  C  C82  1  0.88837000  0.46874000  0.62873000  1
  C  C83  1  0.39501000  0.53154000  0.37120000  1
  C  C84  1  0.86850000  0.40962000  0.66868000  1
  C  C85  1  0.36724000  0.59029000  0.33139000  1
  C  C86  1  0.89010000  0.43091000  0.56225000  1
  C  C87  1  0.40133000  0.56956000  0.43763000  1
  C  C88  1  0.87362000  0.33466000  0.53449000  1
  C  C89  1  0.38224000  0.66569000  0.46545000  1
  C  C90  1  0.85061000  0.31213000  0.63904000  1
  C  C91  1  0.34634000  0.68762000  0.36112000  1
  C  C92  1  0.39219000  0.00473000  0.88760000  1
  C  C93  1  0.89208000  0.99526000  0.11239000  1
  C  C94  1  0.39430000  0.17438000  0.04508000  1
  C  C95  1  0.89449000  0.82561000  0.95492000  1
  C  C96  1  0.98714000  0.10536000  0.32185000  1
  C  C97  1  0.87916000  0.19370000  0.32061000  1
  C  C98  1  0.01031000  0.27366000  0.31979000  1
  C  C99  1  0.48404000  0.89359000  0.67782000  1
  C  C100  1  0.37304000  0.80600000  0.67864000  1
  C  C101  1  0.50139000  0.72485000  0.67926000  1
  O  O102  1  0.50577000  0.00209000  0.58477000  1
  O  O103  1  0.00577000  0.99791000  0.41523000  1
  O  O104  1  0.17334000  0.86195000  0.46706000  1
  O  O105  1  0.67334000  0.13805000  0.53294000  1
  O  O106  1  0.17589000  0.99321000  0.58751000  1
  O  O107  1  0.67589000  0.00679000  0.41249000  1
  O  O108  1  0.00815000  0.13010000  0.53654000  1
  O  O109  1  0.50815000  0.86990000  0.46346000  1
  O  O110  1  0.34004000  0.04476000  0.48314000  1
  O  O111  1  0.84004000  0.95524000  0.51686000  1
  O  O112  1  0.23307000  0.13013000  0.03645000  1
  O  O113  1  0.73307000  0.86987000  0.96355000  1
  O  O114  1  0.56057000  0.00679000  0.91247000  1
  O  O115  1  0.06057000  0.99321000  0.08753000  1
  O  O116  1  0.56294000  0.13805000  0.03292000  1
  O  O117  1  0.06294000  0.86195000  0.96708000  1
  O  O118  1  0.73050000  0.00209000  0.08479000  1
  O  O119  1  0.23050000  0.99791000  0.91521000  1
  O  O120  1  0.39617000  0.95526000  0.01682000  1
  O  O121  1  0.89617000  0.04474000  0.98318000  1
