# generated using pymatgen
data_LaH11(C7O2)3
_symmetry_space_group_name_H-M   'P 1'
_cell_length_a   13.49645000
_cell_length_b   14.49788000
_cell_length_c   17.94456000
_cell_angle_alpha   98.65956000
_cell_angle_beta   111.76538000
_cell_angle_gamma   90.06053000
_symmetry_Int_Tables_number   1
_chemical_formula_structural   LaH11(C7O2)3
_chemical_formula_sum   'La4 H44 C84 O24'
_cell_volume   3217.52974454
_cell_formula_units_Z   4
loop_
 _symmetry_equiv_pos_site_id
 _symmetry_equiv_pos_as_xyz
  1  'x, y, z'
loop_
 _atom_site_type_symbol
 _atom_site_label
 _atom_site_symmetry_multiplicity
 _atom_site_fract_x
 _atom_site_fract_y
 _atom_site_fract_z
 _atom_site_occupancy
  La  La1  1  0.51066000  0.03459000  0.61363000  1.0
  La  La2  1  0.89817000  0.46322000  0.38598000  1.0
  La  La3  1  0.48934000  0.96541000  0.38637000  1.0
  La  La4  1  0.10183000  0.53678000  0.61402000  1.0
  H  H1  1  0.78475000  0.19623000  0.45720000  1.0
  H  H2  1  0.03686000  0.29542000  0.68668000  1.0
  H  H3  1  0.80973000  0.07431000  0.66743000  1.0
  H  H4  1  0.14784000  0.21453000  0.77040000  1.0
  H  H5  1  0.25509000  0.18550000  0.90705000  1.0
  H  H6  1  0.96931000  0.09157000  0.93474000  1.0
  H  H7  1  0.86144000  0.12424000  0.79933000  1.0
  H  H8  1  0.32776000  0.08564000  0.98163000  1.0
  H  H9  1  0.43219000  0.02543000  0.10880000  1.0
  H  H10  1  0.16550000  0.05294000  0.18406000  1.0
  H  H11  1  0.06273000  0.11978000  0.06070000  1.0
  H  H12  1  0.32578000  0.30366000  0.54382000  1.0
  H  H13  1  0.35170000  0.20352000  0.31442000  1.0
  H  H14  1  0.14341000  0.42420000  0.33301000  1.0
  H  H15  1  0.37759000  0.28369000  0.22822000  1.0
  H  H16  1  0.34800000  0.31314000  0.09130000  1.0
  H  H17  1  0.03581000  0.40647000  0.06642000  1.0
  H  H18  1  0.06338000  0.37354000  0.20189000  1.0
  H  H19  1  0.34619000  0.41383000  0.01667000  1.0
  H  H20  1  0.32290000  0.47658000  0.89017000  1.0
  H  H21  1  0.98241000  0.44852000  0.81778000  1.0
  H  H22  1  0.00355000  0.37901000  0.94038000  1.0
  H  H23  1  0.21525000  0.80377000  0.54279000  1.0
  H  H24  1  0.96314000  0.70459000  0.31332000  1.0
  H  H25  1  0.19027000  0.92569000  0.33257000  1.0
  H  H26  1  0.85216000  0.78547000  0.22960000  1.0
  H  H27  1  0.74491000  0.81451000  0.09295000  1.0
  H  H28  1  0.03069000  0.90843000  0.06525000  1.0
  H  H29  1  0.13856000  0.87576000  0.20067000  1.0
  H  H30  1  0.67224000  0.91436000  0.01837000  1.0
  H  H31  1  0.56781000  0.97458000  0.89120000  1.0
  H  H32  1  0.83450000  0.94706000  0.81593000  1.0
  H  H33  1  0.93727000  0.88022000  0.93930000  1.0
  H  H34  1  0.67422000  0.69634000  0.45618000  1.0
  H  H35  1  0.64830000  0.79648000  0.68558000  1.0
  H  H36  1  0.85659000  0.57580000  0.66699000  1.0
  H  H37  1  0.62241000  0.71632000  0.77178000  1.0
  H  H38  1  0.65200000  0.68686000  0.90870000  1.0
  H  H39  1  0.96419000  0.59353000  0.93358000  1.0
  H  H40  1  0.93662000  0.62646000  0.79811000  1.0
  H  H41  1  0.65381000  0.58617000  0.98333000  1.0
  H  H42  1  0.67710000  0.52342000  0.10983000  1.0
  H  H43  1  0.01759000  0.55148000  0.18221000  1.0
  H  H44  1  0.99645000  0.62099000  0.05962000  1.0
  C  C1  1  0.69149000  0.06758000  0.50678000  1.0
  C  C2  1  0.78740000  0.12992000  0.55809000  1.0
  C  C3  1  0.82514000  0.19316000  0.52152000  1.0
  C  C4  1  0.91418000  0.25354000  0.56906000  1.0
  C  C5  1  0.96783000  0.24740000  0.65145000  1.0
  C  C6  1  0.93344000  0.18188000  0.68830000  1.0
  C  C7  1  0.84012000  0.12496000  0.64086000  1.0
  C  C8  1  0.95193000  0.32630000  0.53355000  1.0
  C  C9  1  0.99613000  0.17076000  0.77337000  1.0
  C  C10  1  0.10787000  0.18876000  0.80654000  1.0
  C  C11  1  0.16897000  0.17102000  0.88392000  1.0
  C  C12  1  0.12146000  0.13424000  0.93187000  1.0
  C  C13  1  0.00922000  0.12021000  0.89986000  1.0
  C  C14  1  0.94781000  0.13793000  0.82244000  1.0
  C  C15  1  0.18602000  0.10529000  0.01019000  1.0
  C  C16  1  0.29220000  0.08035000  0.02631000  1.0
  C  C17  1  0.35082000  0.04561000  0.09689000  1.0
  C  C18  1  0.30448000  0.03314000  0.15322000  1.0
  C  C19  1  0.20017000  0.06064000  0.13930000  1.0
  C  C20  1  0.14248000  0.09700000  0.06939000  1.0
  C  C21  1  0.36398000  0.98981000  0.22557000  1.0
  C  C22  1  0.18353000  0.43169000  0.49349000  1.0
  C  C23  1  0.22896000  0.36899000  0.44255000  1.0
  C  C24  1  0.30300000  0.30618000  0.47940000  1.0
  C  C25  1  0.34580000  0.24614000  0.43220000  1.0
  C  C26  1  0.31745000  0.25161000  0.34951000  1.0
  C  C27  1  0.24593000  0.31634000  0.31220000  1.0
  C  C28  1  0.19975000  0.37350000  0.35965000  1.0
  C  C29  1  0.42049000  0.17486000  0.46840000  1.0
  C  C30  1  0.22352000  0.32707000  0.22677000  1.0
  C  C31  1  0.30165000  0.30931000  0.19269000  1.0
  C  C32  1  0.28532000  0.32729000  0.11513000  1.0
  C  C33  1  0.19024000  0.36409000  0.06784000  1.0
  C  C34  1  0.11037000  0.37778000  0.10068000  1.0
  C  C35  1  0.12642000  0.35982000  0.17825000  1.0
  C  C36  1  0.17658000  0.39384000  0.98958000  1.0
  C  C37  1  0.26612000  0.41950000  0.97280000  1.0
  C  C38  1  0.25393000  0.45563000  0.90261000  1.0
  C  C39  1  0.15155000  0.46887000  0.84745000  1.0
  C  C40  1  0.06165000  0.44039000  0.86179000  1.0
  C  C41  1  0.07412000  0.40253000  0.93123000  1.0
  C  C42  1  0.13894000  0.51309000  0.77548000  1.0
  C  C43  1  0.30851000  0.93242000  0.49322000  1.0
  C  C44  1  0.21260000  0.87008000  0.44190000  1.0
  C  C45  1  0.17486000  0.80684000  0.47848000  1.0
  C  C46  1  0.08582000  0.74646000  0.43094000  1.0
  C  C47  1  0.03218000  0.75260000  0.34855000  1.0
  C  C48  1  0.06656000  0.81812000  0.31170000  1.0
  C  C49  1  0.15988000  0.87505000  0.35914000  1.0
  C  C50  1  0.04808000  0.67370000  0.46645000  1.0
  C  C51  1  0.00387000  0.82924000  0.22662000  1.0
  C  C52  1  0.89213000  0.81124000  0.19346000  1.0
  C  C53  1  0.83103000  0.82899000  0.11608000  1.0
  C  C54  1  0.87854000  0.86576000  0.06813000  1.0
  C  C55  1  0.99078000  0.87979000  0.10014000  1.0
  C  C56  1  0.05219000  0.86207000  0.17756000  1.0
  C  C57  1  0.81398000  0.89471000  0.98981000  1.0
  C  C58  1  0.70780000  0.91965000  0.97369000  1.0
  C  C59  1  0.64918000  0.95439000  0.90311000  1.0
  C  C60  1  0.69552000  0.96686000  0.84678000  1.0
  C  C61  1  0.79983000  0.93936000  0.86070000  1.0
  C  C62  1  0.85752000  0.90301000  0.93061000  1.0
  C  C63  1  0.63602000  0.01019000  0.77443000  1.0
  C  C64  1  0.81648000  0.56832000  0.50651000  1.0
  C  C65  1  0.77104000  0.63102000  0.55745000  1.0
  C  C66  1  0.69700000  0.69382000  0.52060000  1.0
  C  C67  1  0.65420000  0.75386000  0.56780000  1.0
  C  C68  1  0.68256000  0.74839000  0.65049000  1.0
  C  C69  1  0.75407000  0.68366000  0.68780000  1.0
  C  C70  1  0.80025000  0.62650000  0.64035000  1.0
  C  C71  1  0.57951000  0.82514000  0.53160000  1.0
  C  C72  1  0.77648000  0.67293000  0.77323000  1.0
  C  C73  1  0.69835000  0.69069000  0.80731000  1.0
  C  C74  1  0.71468000  0.67271000  0.88487000  1.0
  C  C75  1  0.80976000  0.63591000  0.93216000  1.0
  C  C76  1  0.88964000  0.62222000  0.89932000  1.0
  C  C77  1  0.87358000  0.64018000  0.82175000  1.0
  C  C78  1  0.82342000  0.60616000  0.01042000  1.0
  C  C79  1  0.73388000  0.58050000  0.02720000  1.0
  C  C80  1  0.74607000  0.54437000  0.09739000  1.0
  C  C81  1  0.84846000  0.53113000  0.15255000  1.0
  C  C82  1  0.93835000  0.55961000  0.13821000  1.0
  C  C83  1  0.92588000  0.59747000  0.06877000  1.0
  C  C84  1  0.86107000  0.48691000  0.22452000  1.0
  O  O1  1  0.63076000  0.03665000  0.54033000  1.0
  O  O2  1  0.66948000  0.04634000  0.43079000  1.0
  O  O3  1  0.90041000  0.33360000  0.45884000  1.0
  O  O4  1  0.03438000  0.37850000  0.58077000  1.0
  O  O5  1  0.46426000  0.97659000  0.24436000  1.0
  O  O6  1  0.31540000  0.96771000  0.27076000  1.0
  O  O7  1  0.09027000  0.46309000  0.45957000  1.0
  O  O8  1  0.23584000  0.45325000  0.56955000  1.0
  O  O9  1  0.44128000  0.16645000  0.54273000  1.0
  O  O10  1  0.45948000  0.12490000  0.42213000  1.0
  O  O11  1  0.21985000  0.52442000  0.75528000  1.0
  O  O12  1  0.04609000  0.53739000  0.73187000  1.0
  O  O13  1  0.36924000  0.96335000  0.45967000  1.0
  O  O14  1  0.33052000  0.95367000  0.56920000  1.0
  O  O15  1  0.09959000  0.66640000  0.54116000  1.0
  O  O16  1  0.96562000  0.62150000  0.41923000  1.0
  O  O17  1  0.53574000  0.02341000  0.75564000  1.0
  O  O18  1  0.68460000  0.03229000  0.72924000  1.0
  O  O19  1  0.90973000  0.53691000  0.54043000  1.0
  O  O20  1  0.76416000  0.54675000  0.43045000  1.0
  O  O21  1  0.55872000  0.83355000  0.45727000  1.0
  O  O22  1  0.54053000  0.87510000  0.57787000  1.0
  O  O23  1  0.78015000  0.47558000  0.24472000  1.0
  O  O24  1  0.95391000  0.46261000  0.26813000  1.0
