# generated using pymatgen
data_CeH5C14(NO4)2
_symmetry_space_group_name_H-M   'P 1'
_cell_length_a   12.13400000
_cell_length_b   12.39100000
_cell_length_c   12.72000000
_cell_angle_alpha   90.00000000
_cell_angle_beta   90.00000000
_cell_angle_gamma   114.77700000
_symmetry_Int_Tables_number   1
_chemical_formula_structural   CeH5C14(NO4)2
_chemical_formula_sum   'Ce4 H20 C56 N8 O32'
_cell_volume   1736.43037945
_cell_formula_units_Z   4
loop_
 _symmetry_equiv_pos_site_id
 _symmetry_equiv_pos_as_xyz
  1  'x, y, z'
loop_
 _atom_site_type_symbol
 _atom_site_label
 _atom_site_symmetry_multiplicity
 _atom_site_fract_x
 _atom_site_fract_y
 _atom_site_fract_z
 _atom_site_occupancy
  Ce  Ce1  1  0.54490000  0.85365000  0.54661000  1.0
  Ce  Ce2  1  0.45510000  0.64635000  0.04661000  1.0
  Ce  Ce3  1  0.45510000  0.14635000  0.45339000  1.0
  Ce  Ce4  1  0.54490000  0.35365000  0.95339000  1.0
  H  H1  1  0.62100000  0.67300000  0.72200000  1.0
  H  H2  1  0.06790000  0.75350000  0.64540000  1.0
  H  H3  1  0.20160000  0.57440000  0.83640000  1.0
  H  H4  1  0.90540000  0.67310000  0.71630000  1.0
  H  H5  1  0.02050000  0.45150000  0.86900000  1.0
  H  H6  1  0.37900000  0.82700000  0.22200000  1.0
  H  H7  1  0.93210000  0.74650000  0.14540000  1.0
  H  H8  1  0.79840000  0.92560000  0.33640000  1.0
  H  H9  1  0.09460000  0.82690000  0.21630000  1.0
  H  H10  1  0.97950000  0.04850000  0.36900000  1.0
  H  H11  1  0.37900000  0.32700000  0.27800000  1.0
  H  H12  1  0.93210000  0.24650000  0.35460000  1.0
  H  H13  1  0.79840000  0.42560000  0.16360000  1.0
  H  H14  1  0.09460000  0.32690000  0.28370000  1.0
  H  H15  1  0.97950000  0.54850000  0.13100000  1.0
  H  H16  1  0.62100000  0.17300000  0.77800000  1.0
  H  H17  1  0.06790000  0.25350000  0.85460000  1.0
  H  H18  1  0.20160000  0.07440000  0.66360000  1.0
  H  H19  1  0.90540000  0.17310000  0.78370000  1.0
  H  H20  1  0.02050000  0.95150000  0.63100000  1.0
  C  C1  1  0.27850000  0.89430000  0.55120000  1.0
  C  C2  1  0.43490000  0.67720000  0.76750000  1.0
  C  C3  1  0.66700000  0.55630000  0.76600000  1.0
  C  C4  1  0.80180000  0.30270000  0.95400000  1.0
  C  C5  1  0.24790000  0.79480000  0.62840000  1.0
  C  C6  1  0.13220000  0.73500000  0.66920000  1.0
  C  C7  1  0.11070000  0.64740000  0.74530000  1.0
  C  C8  1  0.21050000  0.62910000  0.78120000  1.0
  C  C9  1  0.32260000  0.69210000  0.73470000  1.0
  C  C10  1  0.77490000  0.53150000  0.79070000  1.0
  C  C11  1  0.89070000  0.60430000  0.75720000  1.0
  C  C12  1  0.98580000  0.57430000  0.78480000  1.0
  C  C13  1  0.95830000  0.47440000  0.84780000  1.0
  C  C14  1  0.83880000  0.40820000  0.87970000  1.0
  C  C15  1  0.72150000  0.60570000  0.05120000  1.0
  C  C16  1  0.56510000  0.82280000  0.26750000  1.0
  C  C17  1  0.33300000  0.94370000  0.26600000  1.0
  C  C18  1  0.19820000  0.19730000  0.45400000  1.0
  C  C19  1  0.75210000  0.70520000  0.12840000  1.0
  C  C20  1  0.86780000  0.76500000  0.16920000  1.0
  C  C21  1  0.88930000  0.85260000  0.24530000  1.0
  C  C22  1  0.78950000  0.87090000  0.28120000  1.0
  C  C23  1  0.67740000  0.80790000  0.23470000  1.0
  C  C24  1  0.22510000  0.96850000  0.29070000  1.0
  C  C25  1  0.10930000  0.89570000  0.25720000  1.0
  C  C26  1  0.01420000  0.92570000  0.28480000  1.0
  C  C27  1  0.04170000  0.02560000  0.34780000  1.0
  C  C28  1  0.16120000  0.09180000  0.37970000  1.0
  C  C29  1  0.72150000  0.10570000  0.44880000  1.0
  C  C30  1  0.56510000  0.32280000  0.23250000  1.0
  C  C31  1  0.33300000  0.44370000  0.23400000  1.0
  C  C32  1  0.19820000  0.69730000  0.04600000  1.0
  C  C33  1  0.75210000  0.20520000  0.37160000  1.0
  C  C34  1  0.86780000  0.26500000  0.33080000  1.0
  C  C35  1  0.88930000  0.35260000  0.25470000  1.0
  C  C36  1  0.78950000  0.37090000  0.21880000  1.0
  C  C37  1  0.67740000  0.30790000  0.26530000  1.0
  C  C38  1  0.22510000  0.46850000  0.20930000  1.0
  C  C39  1  0.10930000  0.39570000  0.24280000  1.0
  C  C40  1  0.01420000  0.42570000  0.21520000  1.0
  C  C41  1  0.04170000  0.52560000  0.15220000  1.0
  C  C42  1  0.16120000  0.59180000  0.12030000  1.0
  C  C43  1  0.27850000  0.39430000  0.94880000  1.0
  C  C44  1  0.43490000  0.17720000  0.73250000  1.0
  C  C45  1  0.66700000  0.05630000  0.73400000  1.0
  C  C46  1  0.80180000  0.80270000  0.54600000  1.0
  C  C47  1  0.24790000  0.29480000  0.87160000  1.0
  C  C48  1  0.13220000  0.23500000  0.83080000  1.0
  C  C49  1  0.11070000  0.14740000  0.75470000  1.0
  C  C50  1  0.21050000  0.12910000  0.71880000  1.0
  C  C51  1  0.32260000  0.19210000  0.76530000  1.0
  C  C52  1  0.77490000  0.03150000  0.70930000  1.0
  C  C53  1  0.89070000  0.10430000  0.74280000  1.0
  C  C54  1  0.98580000  0.07430000  0.71520000  1.0
  C  C55  1  0.95830000  0.97440000  0.65220000  1.0
  C  C56  1  0.83880000  0.90820000  0.62030000  1.0
  N  N1  1  0.34118000  0.77060000  0.65733000  1.0
  N  N2  1  0.74833000  0.43510000  0.84981000  1.0
  N  N3  1  0.65882000  0.72940000  0.15733000  1.0
  N  N4  1  0.25167000  0.06490000  0.34981000  1.0
  N  N5  1  0.65882000  0.22940000  0.34267000  1.0
  N  N6  1  0.25167000  0.56490000  0.15019000  1.0
  N  N7  1  0.34118000  0.27060000  0.84267000  1.0
  N  N8  1  0.74833000  0.93510000  0.65019000  1.0
  O  O1  1  0.38098000  0.92562000  0.50257000  1.0
  O  O2  1  0.21048000  0.94401000  0.54093000  1.0
  O  O3  1  0.52007000  0.71271000  0.69933000  1.0
  O  O4  1  0.43818000  0.63356000  0.85340000  1.0
  O  O5  1  0.56332000  0.48081000  0.78408000  1.0
  O  O6  1  0.69464000  0.66090000  0.72780000  1.0
  O  O7  1  0.69334000  0.26386000  0.98901000  1.0
  O  O8  1  0.87807000  0.26470000  0.97429000  1.0
  O  O9  1  0.61902000  0.57438000  0.00257000  1.0
  O  O10  1  0.78952000  0.55599000  0.04093000  1.0
  O  O11  1  0.47993000  0.78729000  0.19933000  1.0
  O  O12  1  0.56182000  0.86644000  0.35340000  1.0
  O  O13  1  0.43668000  0.01919000  0.28408000  1.0
  O  O14  1  0.30536000  0.83910000  0.22780000  1.0
  O  O15  1  0.30666000  0.23614000  0.48901000  1.0
  O  O16  1  0.12193000  0.23530000  0.47429000  1.0
  O  O17  1  0.61902000  0.07438000  0.49743000  1.0
  O  O18  1  0.78952000  0.05599000  0.45907000  1.0
  O  O19  1  0.47993000  0.28729000  0.30067000  1.0
  O  O20  1  0.56182000  0.36644000  0.14660000  1.0
  O  O21  1  0.43668000  0.51919000  0.21592000  1.0
  O  O22  1  0.30536000  0.33910000  0.27220000  1.0
  O  O23  1  0.30666000  0.73614000  0.01099000  1.0
  O  O24  1  0.12193000  0.73530000  0.02571000  1.0
  O  O25  1  0.38098000  0.42562000  0.99743000  1.0
  O  O26  1  0.21048000  0.44401000  0.95907000  1.0
  O  O27  1  0.52007000  0.21271000  0.80067000  1.0
  O  O28  1  0.43818000  0.13356000  0.64660000  1.0
  O  O29  1  0.56332000  0.98081000  0.71592000  1.0
  O  O30  1  0.69464000  0.16090000  0.77220000  1.0
  O  O31  1  0.69334000  0.76386000  0.51099000  1.0
  O  O32  1  0.87807000  0.76470000  0.52571000  1.0
