# generated using pymatgen
data_Zn2P3H7(CO3)3
_symmetry_space_group_name_H-M   'P 1'
_cell_length_a   8.72346000
_cell_length_b   9.83173000
_cell_length_c   17.68065000
_cell_angle_alpha   90.00000000
_cell_angle_beta   90.00000000
_cell_angle_gamma   108.94401000
_symmetry_Int_Tables_number   1
_chemical_formula_structural   Zn2P3H7(CO3)3
_chemical_formula_sum   'Zn8 P12 H28 C12 O36'
_cell_volume   1434.27658856
_cell_formula_units_Z   4
loop_
 _symmetry_equiv_pos_site_id
 _symmetry_equiv_pos_as_xyz
  1  'x, y, z'
loop_
 _atom_site_type_symbol
 _atom_site_label
 _atom_site_symmetry_multiplicity
 _atom_site_fract_x
 _atom_site_fract_y
 _atom_site_fract_z
 _atom_site_occupancy
  Zn  Zn0  1  0.89856000  0.08860000  0.83511000  1
  Zn  Zn1  1  0.89744000  0.19790000  0.16111000  1
  Zn  Zn2  1  0.10144000  0.41140000  0.33511000  1
  Zn  Zn3  1  0.10256000  0.30210000  0.66111000  1
  Zn  Zn4  1  0.10145000  0.91140000  0.16489000  1
  Zn  Zn5  1  0.10257000  0.80211000  0.83889000  1
  Zn  Zn6  1  0.89856000  0.58861000  0.66489000  1
  Zn  Zn7  1  0.89744000  0.69790000  0.33889000  1
  P  P8  1  0.75661000  0.00840000  0.00441000  1
  P  P9  1  0.23333000  0.09987000  0.75852000  1
  P  P10  1  0.76716000  0.28753000  0.73833000  1
  P  P11  1  0.24339000  0.49160000  0.50441000  1
  P  P12  1  0.76667000  0.40013000  0.25852000  1
  P  P13  1  0.23284000  0.21247000  0.23833000  1
  P  P14  1  0.24339000  0.99161000  0.99560000  1
  P  P15  1  0.76667000  0.90014000  0.24148000  1
  P  P16  1  0.23284000  0.71247000  0.26167000  1
  P  P17  1  0.75661000  0.50840000  0.49559000  1
  P  P18  1  0.23333000  0.59987000  0.74149000  1
  P  P19  1  0.76716000  0.78753000  0.76167000  1
  H  H20  1  0.78429000  0.85302000  0.08883000  1
  H  H21  1  0.58466000  0.10499000  0.93584000  1
  H  H22  1  0.51821000  0.91423000  0.92897000  1
  H  H23  1  0.44359000  0.32152000  0.77442000  1
  H  H24  1  0.47327000  0.18558000  0.83262000  1
  H  H25  1  0.53232000  0.21206000  0.65925000  1
  H  H26  1  0.55420000  0.07078000  0.71540000  1
  H  H27  1  0.21572000  0.64699000  0.58883000  1
  H  H28  1  0.41534000  0.39501000  0.43584000  1
  H  H29  1  0.48180000  0.58577000  0.42897000  1
  H  H30  1  0.55641000  0.17848000  0.27442000  1
  H  H31  1  0.52673000  0.31442000  0.33262000  1
  H  H32  1  0.46768000  0.28794000  0.15925000  1
  H  H33  1  0.44580000  0.42922000  0.21539000  1
  H  H34  1  0.21572000  0.14699000  0.91117000  1
  H  H35  1  0.41534000  0.89501000  0.06416000  1
  H  H36  1  0.48179000  0.08577000  0.07103000  1
  H  H37  1  0.55641000  0.67848000  0.22558000  1
  H  H38  1  0.52674000  0.81442000  0.16738000  1
  H  H39  1  0.46769000  0.78794000  0.34075000  1
  H  H40  1  0.44581000  0.92923000  0.28461000  1
  H  H41  1  0.78429000  0.35302000  0.41117000  1
  H  H42  1  0.58466000  0.60500000  0.56416000  1
  H  H43  1  0.51821000  0.41423000  0.57103000  1
  H  H44  1  0.44360000  0.82152000  0.72558000  1
  H  H45  1  0.47327000  0.68559000  0.66738000  1
  H  H46  1  0.53232000  0.71207000  0.84076000  1
  H  H47  1  0.55420000  0.57078000  0.78461000  1
  C  C48  1  0.56193000  0.00514000  0.96841000  1
  C  C49  1  0.44158000  0.20916000  0.77496000  1
  C  C50  1  0.55926000  0.18385000  0.71679000  1
  C  C51  1  0.43807000  0.49487000  0.46841000  1
  C  C52  1  0.55842000  0.29085000  0.27496000  1
  C  C53  1  0.44075000  0.31615000  0.21679000  1
  C  C54  1  0.43807000  0.99487000  0.03159000  1
  C  C55  1  0.55842000  0.79085000  0.22505000  1
  C  C56  1  0.44075000  0.81615000  0.28321000  1
  C  C57  1  0.56193000  0.50514000  0.53159000  1
  C  C58  1  0.44159000  0.70916000  0.72505000  1
  C  C59  1  0.55926000  0.68385000  0.78321000  1
  O  O60  1  0.71983000  0.85376000  0.04157000  1
  O  O61  1  0.81018000  0.12763000  0.06359000  1
  O  O62  1  0.87715000  0.02656000  0.93929000  1
  O  O63  1  0.17459000  0.13806000  0.68198000  1
  O  O64  1  0.13542000  0.13390000  0.82622000  1
  O  O65  1  0.22076000  0.93939000  0.75965000  1
  O  O66  1  0.87124000  0.25800000  0.67362000  1
  O  O67  1  0.81037000  0.24241000  0.81736000  1
  O  O68  1  0.78088000  0.44875000  0.74188000  1
  O  O69  1  0.28017000  0.64625000  0.54157000  1
  O  O70  1  0.18982000  0.37238000  0.56359000  1
  O  O71  1  0.12285000  0.47344000  0.43929000  1
  O  O72  1  0.82541000  0.36194000  0.18198000  1
  O  O73  1  0.86458000  0.36610000  0.32622000  1
  O  O74  1  0.77924000  0.56061000  0.25965000  1
  O  O75  1  0.12876000  0.24200000  0.17362000  1
  O  O76  1  0.18963000  0.25759000  0.31736000  1
  O  O77  1  0.21912000  0.05125000  0.24188000  1
  O  O78  1  0.28017000  0.14625000  0.95843000  1
  O  O79  1  0.18982000  0.87238000  0.93641000  1
  O  O80  1  0.12285000  0.97344000  0.06071000  1
  O  O81  1  0.82541000  0.86195000  0.31802000  1
  O  O82  1  0.86458000  0.86610000  0.17378000  1
  O  O83  1  0.77924000  0.06061000  0.24035000  1
  O  O84  1  0.12876000  0.74200000  0.32638000  1
  O  O85  1  0.18963000  0.75759000  0.18265000  1
  O  O86  1  0.21912000  0.55125000  0.25812000  1
  O  O87  1  0.71983000  0.35376000  0.45843000  1
  O  O88  1  0.81019000  0.62763000  0.43641000  1
  O  O89  1  0.87716000  0.52656000  0.56071000  1
  O  O90  1  0.17460000  0.63806000  0.81802000  1
  O  O91  1  0.13542000  0.63391000  0.67378000  1
  O  O92  1  0.22076000  0.43939000  0.74035000  1
  O  O93  1  0.87124000  0.75800000  0.82638000  1
  O  O94  1  0.81037000  0.74241000  0.68265000  1
  O  O95  1  0.78088000  0.94875000  0.75812000  1
