# generated using pymatgen
data_H9C12N2O3
_symmetry_space_group_name_H-M   'P 1'
_cell_length_a   34.88454249
_cell_length_b   34.88454249
_cell_length_c   34.88454249
_cell_angle_alpha   109.47122063
_cell_angle_beta   109.47122063
_cell_angle_gamma   109.47122063
_symmetry_Int_Tables_number   1
_chemical_formula_structural   H9C12N2O3
_chemical_formula_sum   'H216 C288 N48 O72'
_cell_volume   32679.63552413
_cell_formula_units_Z   24
loop_
 _symmetry_equiv_pos_site_id
 _symmetry_equiv_pos_as_xyz
  1  'x, y, z'
loop_
 _atom_site_type_symbol
 _atom_site_label
 _atom_site_symmetry_multiplicity
 _atom_site_fract_x
 _atom_site_fract_y
 _atom_site_fract_z
 _atom_site_occupancy
  C  1  1  0.66782650  0.34068450  0.31464100  1
  C  2  1  0.66807000  0.32460800  0.27122700  1
  C  3  1  0.66754800  0.34853100  0.24533900  1
  C  4  1  0.66739800  0.39128550  0.26366150  1
  C  5  1  0.66735900  0.40964250  0.30647250  1
  C  6  1  0.66776850  0.38419300  0.33083750  1
  C  9  1  0.66781950  0.31461350  0.34067600  1
  C  10  1  0.66773750  0.27103450  0.32440800  1
  C  11  1  0.66730100  0.24515800  0.34834100  1
  C  12  1  0.66734500  0.26355900  0.39119100  1
  C  13  1  0.66755450  0.30649200  0.40970750  1
  C  14  1  0.66808150  0.33094100  0.38434550  1
  C  21  1  0.35732500  0.65937850  0.68541650  1
  C  22  1  0.35708400  0.61572100  0.66909900  1
  C  23  1  0.35758000  0.59034400  0.69353600  1
  C  24  1  0.35776000  0.60884000  0.73645500  1
  C  25  1  0.35778450  0.65167950  0.75483900  1
  C  26  1  0.35738050  0.67563400  0.72898150  1
  C  29  1  0.35732250  0.68541850  0.65934900  1
  C  30  1  0.35735400  0.66921650  0.61582750  1
  C  31  1  0.35775950  0.69358500  0.59038050  1
  C  32  1  0.35775550  0.73641300  0.60876550  1
  C  33  1  0.35758950  0.75472000  0.65150950  1
  C  34  1  0.35709650  0.72884300  0.67544350  1
  C  41  1  0.98652050  0.65935150  0.31454800  1
  C  42  1  0.95918450  0.67542700  0.33087250  1
  C  43  1  0.90937300  0.65150850  0.30642450  1
  C  44  1  0.88493950  0.60876000  0.26351450  1
  C  45  1  0.90939150  0.59040000  0.24511850  1
  C  46  1  0.95920550  0.61584600  0.27097750  1
  C  49  1  0.03862700  0.68541900  0.34061300  1
  C  50  1  0.06593800  0.72901200  0.38409600  1
  C  51  1  0.11575100  0.75488100  0.40953700  1
  C  52  1  0.14019300  0.73646300  0.39118500  1
  C  53  1  0.11577550  0.69352350  0.34847300  1
  C  54  1  0.06596200  0.66907550  0.32455450  1
  C  61  1  0.03865500  0.34058800  0.68536300  1
  C  62  1  0.06599450  0.38424500  0.72878050  1
  C  63  1  0.11580750  0.40962250  0.75464800  1
  C  64  1  0.14023100  0.39112750  0.73633250  1
  C  65  1  0.11577450  0.34828700  0.69351750  1
  C  66  1  0.06596200  0.32433400  0.66916000  1
  C  69  1  0.98654750  0.31454850  0.65932400  1
  C  70  1  0.95922950  0.33076150  0.67555300  1
  C  71  1  0.90941600  0.30639600  0.65159600  1
  C  72  1  0.88497050  0.26356000  0.60877150  1
  C  73  1  0.90940200  0.24523800  0.59030400  1
  C  74  1  0.95921250  0.27111250  0.61568600  1
  C  81  1  0.35317500  0.68533700  0.02603700  1
  C  82  1  0.39680900  0.72877400  0.05337600  1
  C  83  1  0.42217600  0.75465450  0.10318850  1
  C  84  1  0.40371550  0.73631650  0.12761800  1
  C  85  1  0.36088600  0.69348350  0.10315850  1
  C  86  1  0.33694200  0.66911450  0.05334650  1
  C  89  1  0.32713600  0.65930150  0.97392950  1
  C  90  1  0.34334150  0.67555800  0.94662250  1
  C  91  1  0.31896800  0.65162850  0.89681050  1
  C  92  1  0.27615400  0.60878500  0.87236200  1
  C  93  1  0.25783150  0.59028250  0.89677700  1
  C  94  1  0.28371350  0.61564950  0.94658800  1
  C  101  1  0.67192200  0.31459100  0.97396300  1
  C  102  1  0.68799700  0.33090650  0.94661950  1
  C  103  1  0.66405000  0.30646950  0.89680650  1
  C  104  1  0.62131050  0.26355050  0.87238500  1
  C  105  1  0.60295650  0.24516950  0.89684500  1
  C  106  1  0.62841300  0.27102800  0.94665600  1
  C  109  1  0.69799300  0.34065900  0.02607100  1
  C  110  1  0.74154050  0.38418800  0.05338550  1
  C  111  1  0.76739750  0.40963400  0.10320050  1
  C  112  1  0.74901800  0.39124750  0.12764750  1
  C  113  1  0.70611500  0.34849800  0.10321500  1
  C  114  1  0.68168500  0.32456150  0.05340450  1
  C  121  1  0.67197350  0.68545400  0.34480450  1
  C  122  1  0.62833700  0.66916100  0.34460600  1
  C  123  1  0.60297700  0.69361300  0.34512800  1
  C  124  1  0.62144800  0.73650900  0.34526400  1
  C  125  1  0.66428050  0.75488000  0.34526550  1
  C  126  1  0.68821600  0.72900250  0.34483050  1
  C  129  1  0.69800250  0.65937450  0.34479700  1
  C  130  1  0.68179600  0.61586550  0.34485150  1
  C  131  1  0.70616350  0.59042100  0.34528650  1
  C  132  1  0.74897000  0.60877400  0.34524100  1
  C  133  1  0.76729200  0.65150700  0.34505500  1
  C  134  1  0.74141700  0.67544550  0.34455250  1
  C  141  1  0.35329250  0.31463850  0.65522600  1
  C  142  1  0.33721900  0.27122500  0.65547500  1
  C  143  1  0.36116300  0.24535600  0.65498500  1
  C  144  1  0.40390150  0.26367050  0.65480000  1
  C  145  1  0.42225500  0.30648050  0.65476450  1
  C  146  1  0.39679900  0.33083600  0.65516600  1
  C  149  1  0.32722300  0.34067550  0.65522350  1
  C  150  1  0.28367400  0.32444300  0.65520200  1
  C  151  1  0.25781550  0.34840050  0.65479200  1
  C  152  1  0.27619800  0.39122800  0.65478600  1
  C  153  1  0.31910000  0.40969650  0.65493550  1
  C  154  1  0.34352900  0.38431600  0.65543100  1
  C  161  1  0.32713850  0.97397100  0.65931550  1
  C  162  1  0.34342650  0.94662650  0.67541300  1
  C  163  1  0.31897600  0.89681450  0.65147950  1
  C  164  1  0.27608500  0.87238850  0.60871450  1
  C  165  1  0.25772150  0.89685150  0.59033900  1
  C  166  1  0.28359950  0.94666400  0.61578250  1
  C  169  1  0.35321100  0.02607750  0.68538850  1
  C  170  1  0.39672650  0.05338250  0.72894800  1
  C  171  1  0.42216550  0.10319500  0.75483350  1
  C  172  1  0.40380300  0.12764550  0.73644350  1
  C  173  1  0.36106500  0.10323350  0.69352850  1
  C  174  1  0.33713000  0.05342050  0.66908250  1
  C  181  1  0.69794600  0.02603150  0.34062550  1
  C  182  1  0.74136350  0.05337500  0.38428450  1
  C  183  1  0.76723100  0.10318750  0.40965750  1
  C  184  1  0.74891200  0.12760950  0.39116050  1
  C  185  1  0.70609600  0.10315100  0.34832300  1
  C  186  1  0.68174200  0.05333850  0.32436950  1
  C  189  1  0.67190800  0.97392500  0.31458400  1
  C  190  1  0.68815200  0.94660950  0.33078750  1
  C  191  1  0.66419000  0.89679300  0.30641800  1
  C  192  1  0.62135400  0.87234700  0.26359400  1
  C  193  1  0.60287600  0.89678150  0.24528750  1
  C  194  1  0.62825900  0.94659250  0.27116350  1
  C  201  1  0.32716900  0.65519750  0.34065950  1
  C  202  1  0.28375450  0.65544050  0.32458000  1
  C  203  1  0.25786050  0.65491100  0.34849850  1
  C  204  1  0.27618350  0.65476400  0.39125350  1
  C  205  1  0.31899600  0.65472950  0.40961550  1
  C  206  1  0.34336300  0.65513850  0.38416750  1
  C  209  1  0.35320850  0.65519450  0.31459200  1
  C  210  1  0.33692800  0.65508250  0.27099650  1
  C  211  1  0.36087600  0.65465300  0.24513000  1
  C  212  1  0.40373350  0.65472000  0.26354850  1
  C  213  1  0.42225950  0.65496000  0.30649750  1
  C  214  1  0.39689350  0.65548950  0.33094200  1
  C  221  1  0.69806700  0.34478250  0.65940650  1
  C  222  1  0.68175300  0.34454450  0.61575050  1
  C  223  1  0.70618850  0.34503400  0.59037250  1
  C  224  1  0.74910800  0.34521350  0.60887050  1
  C  225  1  0.76748950  0.34523750  0.65170800  1
  C  226  1  0.74163050  0.34483450  0.67566300  1
  C  229  1  0.67200000  0.34478200  0.68544600  1
  C  230  1  0.62846750  0.34479600  0.66923050  1
  C  231  1  0.60302100  0.34520650  0.69360050  1
  C  232  1  0.62141000  0.34521550  0.73643350  1
  C  233  1  0.66416350  0.34506900  0.75475550  1
  C  234  1  0.68810000  0.34457800  0.72888000  1
  C  481  1  0.68781100  0.54562900  0.34269600  1
  C  483  1  0.70933500  0.49467350  0.36660750  1
  C  484  1  0.66994000  0.45442950  0.32482450  1
  C  486  1  0.64602850  0.50538350  0.30329900  1
  C  489  1  0.57037600  0.49106650  0.25949950  1
  C  493  1  0.75310950  0.50896800  0.44225550  1
  C  497  1  0.33731600  0.66739300  0.87036900  1
  C  499  1  0.31580400  0.66979700  0.79790400  1
  C  500  1  0.35522400  0.66746900  0.79705100  1
  C  502  1  0.37910600  0.66980200  0.87191300  1
  C  505  1  0.45475950  0.70165900  0.93325050  1
  C  509  1  0.27202600  0.70166700  0.76842300  1
  C  513  1  0.80960450  0.45443500  0.12965350  1
  C  515  1  0.88447950  0.50536000  0.20207850  1
  C  516  1  0.88295100  0.54560900  0.20291500  1
  C  518  1  0.81045650  0.49465500  0.12805650  1
  C  521  1  0.78097850  0.50897450  0.06672200  1
  C  525  1  0.94584200  0.49107550  0.23154750  1
  C  529  1  0.21560500  0.33264400  0.65737800  1
  C  531  1  0.14072750  0.33017950  0.63342100  1
  C  532  1  0.14219800  0.33249950  0.67516750  1
  C  534  1  0.21474350  0.33018800  0.69673850  1
  C  537  1  0.24422750  0.29836400  0.74057350  1
  C  541  1  0.07934600  0.29826200  0.55777600  1
  C  545  1  0.34510950  0.65719200  0.20290050  1
  C  547  1  0.34273950  0.63332750  0.12803600  1
  C  548  1  0.34512650  0.67511500  0.12959250  1
  C  550  1  0.34272500  0.69659800  0.20206100  1
  C  553  1  0.31084400  0.74037500  0.23152900  1
  C  557  1  0.31090250  0.55768850  0.06668500  1
  C  561  1  0.46695600  0.12963250  0.79703650  1
  C  563  1  0.51791250  0.20209700  0.87190850  1
  C  564  1  0.55818500  0.20295500  0.87042400  1
  C  566  1  0.50720300  0.12809450  0.79789350  1
  C  569  1  0.52151450  0.06675700  0.76839950  1
  C  573  1  0.50363100  0.23156800  0.93327300  1
  C  577  1  0.67995350  0.87034050  0.32476000  1
  C  579  1  0.68238350  0.79790450  0.30324500  1
  C  580  1  0.68004300  0.79708000  0.34266900  1
  C  582  1  0.68242950  0.87194850  0.36658800  1
  C  585  1  0.71431550  0.93328350  0.44225200  1
  C  589  1  0.71423850  0.76841100  0.25945550  1
  C  593  1  0.55822300  0.34261850  0.67525550  1
  C  595  1  0.50730400  0.36657800  0.69674900  1
  C  596  1  0.46702700  0.32482900  0.65732400  1
  C  598  1  0.51800100  0.30325650  0.63344050  1
  C  601  1  0.50365100  0.25941700  0.55778400  1
  C  605  1  0.52156850  0.44222450  0.74047400  1
  C  609  1  0.14221300  0.79711200  0.45430500  1
  C  611  1  0.21470950  0.87197450  0.50530600  1
  C  612  1  0.21553050  0.87042200  0.54553650  1
  C  614  1  0.14065600  0.79795600  0.49454700  1
  C  617  1  0.07929550  0.76850450  0.50884300  1
  C  621  1  0.24423800  0.93332000  0.49101600  1
  C  625  1  0.66986750  0.20294650  0.33257100  1
  C  627  1  0.64597900  0.12807600  0.33018500  1
  C  628  1  0.68773950  0.12956850  0.33253000  1
  C  630  1  0.70926550  0.20209200  0.33019250  1
  C  633  1  0.75306200  0.23158650  0.29833950  1
  C  637  1  0.57033800  0.06671500  0.29831300  1
  C  641  1  0.35517150  0.67524150  0.54558200  1
  C  643  1  0.37911850  0.69674600  0.49465750  1
  C  644  1  0.33735050  0.65732400  0.45440950  1
  C  646  1  0.31581150  0.63341700  0.50536250  1
  C  649  1  0.27202350  0.55775650  0.49103700  1
  C  653  1  0.45476450  0.74052000  0.50894850  1
  C  657  1  0.88296350  0.32473950  0.66735300  1
  C  659  1  0.81054950  0.30324850  0.66981800  1
  C  660  1  0.80970050  0.34267550  0.66749700  1
  C  662  1  0.88455800  0.36655550  0.66980950  1
  C  665  1  0.94586500  0.44221500  0.70163000  1
  C  669  1  0.78108650  0.25952100  0.70173550  1
  C  865  1  0.33740900  0.45446300  0.65748800  1
  C  867  1  0.31570000  0.50528550  0.63341950  1
  C  868  1  0.35500800  0.54555600  0.67523400  1
  C  870  1  0.37914600  0.49478650  0.69687250  1
  C  873  1  0.45518300  0.51027800  0.74146300  1
  C  877  1  0.27101050  0.48968600  0.55735450  1
  C  881  1  0.68780000  0.33274050  0.12967050  1
  C  883  1  0.70948050  0.33036950  0.20219300  1
  C  884  1  0.67013850  0.33280800  0.20313850  1
  C  886  1  0.64605200  0.33036200  0.12823600  1
  C  889  1  0.57001150  0.29893250  0.06770100  1
  C  893  1  0.75413250  0.29897600  0.23130750  1
  C  897  1  0.21563350  0.54548800  0.87029550  1
  C  899  1  0.14073950  0.49468000  0.79780950  1
  C  900  1  0.14229450  0.45441850  0.79686000  1
  C  902  1  0.21471250  0.50519600  0.87176750  1
  C  905  1  0.24380550  0.48965650  0.93227600  1
  C  909  1  0.08025350  0.51025650  0.76872600  1
  C  913  1  0.80948750  0.66722300  0.34245350  1
  C  915  1  0.88437200  0.66962600  0.36650300  1
  C  916  1  0.88289950  0.66723400  0.32473850  1
  C  918  1  0.81042500  0.66967100  0.30311200  1
  C  921  1  0.78133150  0.70109050  0.25847700  1
  C  925  1  0.94488500  0.70099900  0.44254200  1
  C  929  1  0.67991950  0.34251550  0.79696800  1
  C  931  1  0.68228300  0.36658550  0.87186250  1
  C  932  1  0.67977800  0.32477150  0.87031750  1
  C  934  1  0.68227250  0.30313100  0.79790750  1
  C  937  1  0.71371750  0.25853950  0.76880500  1
  C  941  1  0.71366100  0.44264800  0.93233000  1
  C  945  1  0.55810300  0.87032800  0.20308100  1
  C  947  1  0.50724800  0.79781350  0.12818550  1
  C  948  1  0.46695100  0.79686650  0.12966350  1
  C  950  1  0.51779250  0.87176850  0.20214200  1
  C  953  1  0.50228350  0.93229700  0.23126150  1
  C  957  1  0.52278000  0.76870100  0.06767200  1
  C  961  1  0.34535050  0.12971550  0.67521600  1
  C  963  1  0.34294650  0.20220450  0.69689300  1
  C  964  1  0.34544300  0.20314800  0.65757500  1
  C  966  1  0.34295050  0.12824000  0.63344850  1
  C  969  1  0.31152650  0.06772900  0.55739750  1
  C  973  1  0.31154950  0.23129350  0.74155500  1
  C  977  1  0.46706700  0.65758600  0.32483500  1
  C  979  1  0.51792400  0.63354200  0.30322400  1
  C  980  1  0.55820500  0.67533750  0.34257750  1
  C  982  1  0.50733950  0.69695100  0.36661550  1
  C  985  1  0.52287950  0.74163250  0.44265600  1
  C  989  1  0.50239500  0.55749100  0.25860400  1
  C  993  1  0.88294550  0.20302500  0.54553750  1
  C  995  1  0.81041250  0.12813350  0.49471700  1
  C  996  1  0.80944900  0.12967600  0.45444600  1
  C  998  1  0.88435650  0.20208600  0.50521350  1
  C  1001  1  0.94490650  0.23118450  0.48972800  1
  C  1005  1  0.78132500  0.06767300  0.51032400  1
  C  1009  1  0.35501450  0.79692150  0.66726200  1
  C  1011  1  0.37903100  0.87181500  0.66963400  1
  C  1012  1  0.33724850  0.87031750  0.66720700  1
  C  1014  1  0.31564500  0.79785550  0.66965350  1
  C  1017  1  0.27102950  0.76873500  0.70107350  1
  C  1021  1  0.45507400  0.93233450  0.70103350  1
  C  1025  1  0.67015650  0.32480600  0.45450450  1
  C  1027  1  0.64606600  0.30313700  0.50531400  1
  C  1028  1  0.68788300  0.34245100  0.54557700  1
  C  1030  1  0.70952650  0.36657100  0.49479650  1
  C  1033  1  0.75415650  0.44261600  0.51032250  1
  C  1037  1  0.57000200  0.25848900  0.48974000  1
  C  1041  1  0.14225100  0.67520000  0.33275700  1
  C  1043  1  0.21471950  0.69684500  0.33032550  1
  C  1044  1  0.21566200  0.65750500  0.33277300  1
  C  1046  1  0.14076450  0.63342750  0.33034800  1
  C  1049  1  0.08026200  0.55738350  0.29896450  1
  C  1053  1  0.24381650  0.74147950  0.29890800  1
  H  7  1  0.66851150  0.29428250  0.25689800  1
  H  16  1  0.66854450  0.36172000  0.39912550  1
  H  17  1  0.64213450  0.40955150  0.22016400  1
  H  18  1  0.64209050  0.22003250  0.40943200  1
  H  19  1  0.66787350  0.39877450  0.36144200  1
  H  20  1  0.66784150  0.25655900  0.29390750  1
  H  27  1  0.35665750  0.60096000  0.63833750  1
  H  36  1  0.35667650  0.74317750  0.70577900  1
  H  37  1  0.38300700  0.59060050  0.77998550  1
  H  38  1  0.38300750  0.77991350  0.59049900  1
  H  39  1  0.35726100  0.70612650  0.74345250  1
  H  40  1  0.35722700  0.63860100  0.60123300  1
  H  47  1  0.97518600  0.70574800  0.36164900  1
  H  56  1  0.04996250  0.63828750  0.29425100  1
  H  57  1  0.82318350  0.59051350  0.21998900  1
  H  58  1  0.20196150  0.77998650  0.40945000  1
  H  59  1  0.97522550  0.60126600  0.25649650  1
  H  60  1  0.04991750  0.74350450  0.39866400  1
  H  67  1  0.04999750  0.39900400  0.74312050  1
  H  76  1  0.97521250  0.25676550  0.60093800  1
  H  77  1  0.20200250  0.40937250  0.77982200  1
  H  78  1  0.82320000  0.22006550  0.59052950  1
  H  79  1  0.04993950  0.29384650  0.63854600  1
  H  80  1  0.97525150  0.36138750  0.70603100  1
  H  87  1  0.41156000  0.74312700  0.03738100  1
  H  96  1  0.26937550  0.60088600  0.96258450  1
  H  97  1  0.42192700  0.77980900  0.18937200  1
  H  98  1  0.23266200  0.59053500  0.81058700  1
  H  99  1  0.30646650  0.63848800  0.03732150  1
  H  100  1  0.37396300  0.70603800  0.96264800  1
  H  107  1  0.71833350  0.36166500  0.96261750  1
  H  116  1  0.65093450  0.29421900  0.03740650  1
  H  117  1  0.60302550  0.22002200  0.81061450  1
  H  118  1  0.79254550  0.40952250  0.18941600  1
  H  119  1  0.61382500  0.25656200  0.96268000  1
  H  120  1  0.75599900  0.39878650  0.03736350  1
  H  127  1  0.61358250  0.63841450  0.34420600  1
  H  136  1  0.75575350  0.70577700  0.34412050  1
  H  137  1  0.60324500  0.78005500  0.37056000  1
  H  138  1  0.79245250  0.59047650  0.37046800  1
  H  139  1  0.71869250  0.74345350  0.34468100  1
  H  140  1  0.65118150  0.60127750  0.34472400  1
  H  147  1  0.30688650  0.25689050  0.65590400  1
  H  156  1  0.37428050  0.39906850  0.65584000  1
  H  157  1  0.42218000  0.22017700  0.62955400  1
  H  158  1  0.23267050  0.40946850  0.62953200  1
  H  159  1  0.41138700  0.36144500  0.65528400  1
  H  160  1  0.26921250  0.29396150  0.65534100  1
  H  167  1  0.37416650  0.96261650  0.70576600  1
  H  176  1  0.30679500  0.03742850  0.63832550  1
  H  177  1  0.23253150  0.81064200  0.59046450  1
  H  178  1  0.42208750  0.18941850  0.77997100  1
  H  179  1  0.26915600  0.96269250  0.60117650  1
  H  180  1  0.41132300  0.03735350  0.74339950  1
  H  187  1  0.75570000  0.03737850  0.39904750  1
  H  196  1  0.61349800  0.96259200  0.25682900  1
  H  197  1  0.79239750  0.18938000  0.40939850  1
  H  198  1  0.60310200  0.81057800  0.22009200  1
  H  199  1  0.65113250  0.03731600  0.29387750  1
  H  200  1  0.71864150  0.96263100  0.36139850  1
  H  207  1  0.26943400  0.65589100  0.29425800  1
  H  216  1  0.41168300  0.65598200  0.36173400  1
  H  217  1  0.23268900  0.62950050  0.40952250  1
  H  218  1  0.42197900  0.62945500  0.22003100  1
  H  219  1  0.37396400  0.65524100  0.39874900  1
  H  220  1  0.30641400  0.65515650  0.25650150  1
  H  227  1  0.65099500  0.34412400  0.60099000  1
  H  236  1  0.71844600  0.34417400  0.74322800  1
  H  237  1  0.79263450  0.37045400  0.59062550  1
  H  238  1  0.60313650  0.37046850  0.77992900  1
  H  239  1  0.75609650  0.34470850  0.70615000  1
  H  240  1  0.61386550  0.34465100  0.63860750  1
  H  490  1  0.55040700  0.49451200  0.23057600  1
  H  491  1  0.56966100  0.51165200  0.29043500  1
  H  492  1  0.55332250  0.45400950  0.24947400  1
  H  494  1  0.78203300  0.50552350  0.46223050  1
  H  495  1  0.72216600  0.48836550  0.44295250  1
  H  496  1  0.76312900  0.54602400  0.45932100  1
  H  506  1  0.47473250  0.69270800  0.95666550  1
  H  507  1  0.45546500  0.73330350  0.95455250  1
  H  508  1  0.47181850  0.70869900  0.91325350  1
  H  510  1  0.24310050  0.69271750  0.73605700  1
  H  511  1  0.30296800  0.73330250  0.77875750  1
  H  512  1  0.26201450  0.70872050  0.79546600  1
  H  522  1  0.74860900  0.50552150  0.04329950  1
  H  523  1  0.79134400  0.48840150  0.04543150  1
  H  524  1  0.80800300  0.54603900  0.08673200  1
  H  526  1  0.96927150  0.49452600  0.26391250  1
  H  527  1  0.96712800  0.51167000  0.22119300  1
  H  528  1  0.92584650  0.45401750  0.20451400  1
  H  538  1  0.27659950  0.30732750  0.76950200  1
  H  539  1  0.23387250  0.26670000  0.70964750  1
  H  540  1  0.21719950  0.29135200  0.75060750  1
  H  542  1  0.05591700  0.30719350  0.53778750  1
  H  543  1  0.05806200  0.26664050  0.55711050  1
  H  544  1  0.09932650  0.29119550  0.54070300  1
  H  554  1  0.31978400  0.76929050  0.26389650  1
  H  555  1  0.27919250  0.70943050  0.22116300  1
  H  556  1  0.30382600  0.75041300  0.20450400  1
  H  558  1  0.31986500  0.53773250  0.04326850  1
  H  559  1  0.27925150  0.55697350  0.04538900  1
  H  560  1  0.30387350  0.54061750  0.08667700  1
  H  570  1  0.51807200  0.04334550  0.73602950  1
  H  571  1  0.50092050  0.04545200  0.77874050  1
  H  572  1  0.55857300  0.08675400  0.79543600  1
  H  574  1  0.50706900  0.26392950  0.95669550  1
  H  575  1  0.52424650  0.22123300  0.95456650  1
  H  576  1  0.46657800  0.20452150  0.91328850  1
  H  586  1  0.70538150  0.95671250  0.46223500  1
  H  587  1  0.74596850  0.95457000  0.44296150  1
  H  588  1  0.72133100  0.91326900  0.45929800  1
  H  590  1  0.70528500  0.73603900  0.23053400  1
  H  591  1  0.74588650  0.77876150  0.29039400  1
  H  592  1  0.72127050  0.79544100  0.24942650  1
  H  602  1  0.50709400  0.23048800  0.53781900  1
  H  603  1  0.52422100  0.29034350  0.55704550  1
  H  604  1  0.46659000  0.24938400  0.54073800  1
  H  606  1  0.51812850  0.46221200  0.76939250  1
  H  607  1  0.50094600  0.44288700  0.70951600  1
  H  608  1  0.55861950  0.45929550  0.75047700  1
  H  618  1  0.05586000  0.73614100  0.50539300  1
  H  619  1  0.05801650  0.77886800  0.48825550  1
  H  620  1  0.09929700  0.79553350  0.54590350  1
  H  622  1  0.27661850  0.95673250  0.49447700  1
  H  623  1  0.23388150  0.95462150  0.51159100  1
  H  624  1  0.21721850  0.91332700  0.45395150  1
  H  634  1  0.78198450  0.26395600  0.30729550  1
  H  635  1  0.72212050  0.22124300  0.26669750  1
  H  636  1  0.76308500  0.20455000  0.29129700  1
  H  638  1  0.55036300  0.04329700  0.30726200  1
  H  639  1  0.56964850  0.04541750  0.26667900  1
  H  640  1  0.55326600  0.08669900  0.29125600  1
  H  650  1  0.24310850  0.53778000  0.49448850  1
  H  651  1  0.30296500  0.55704050  0.51160850  1
  H  652  1  0.26198550  0.54070750  0.45397400  1
  H  654  1  0.47473550  0.76943750  0.50549800  1
  H  655  1  0.45546650  0.70957650  0.48836000  1
  H  656  1  0.47182550  0.75054950  0.54600900  1
  H  666  1  0.96927300  0.46218100  0.69266700  1
  H  667  1  0.96717150  0.44295450  0.73329400  1
  H  668  1  0.92584750  0.45926000  0.70863750  1
  H  670  1  0.74872450  0.23060150  0.69280200  1
  H  671  1  0.79142150  0.29047700  0.73335750  1
  H  672  1  0.80813150  0.24951350  0.70880100  1
  H  874  1  0.47514000  0.50670250  0.77028450  1
  H  875  1  0.45663400  0.49053550  0.71071950  1
  H  876  1  0.47175200  0.54749400  0.75199900  1
  H  878  1  0.24218800  0.49326700  0.53741000  1
  H  879  1  0.30172700  0.50935550  0.55582750  1
  H  880  1  0.26043500  0.45245850  0.54083050  1
  H  890  1  0.55006100  0.30780000  0.04417000  1
  H  891  1  0.56854850  0.26672800  0.04651050  1
  H  892  1  0.55344650  0.29291350  0.08835500  1
  H  894  1  0.78295050  0.30785400  0.26371550  1
  H  895  1  0.72340250  0.26675500  0.22027950  1
  H  896  1  0.76469650  0.29298600  0.20464850  1
  H  906  1  0.27621000  0.49325150  0.95581850  1
  H  907  1  0.23275700  0.50934050  0.95345850  1
  H  908  1  0.21715650  0.45242900  0.91159350  1
  H  910  1  0.05671300  0.50666200  0.73632300  1
  H  911  1  0.05907600  0.49059450  0.77979250  1
  H  912  1  0.10095450  0.54748850  0.79536900  1
  H  922  1  0.74892600  0.69222850  0.22967050  1
  H  923  1  0.79238800  0.73332150  0.28921050  1
  H  924  1  0.80797650  0.70705000  0.24789250  1
  H  926  1  0.96841300  0.69211250  0.46246950  1
  H  927  1  0.96607900  0.73322900  0.44404700  1
  H  928  1  0.92421500  0.70697800  0.45909900  1
  H  938  1  0.70485250  0.22971850  0.73640900  1
  H  939  1  0.74591300  0.28928450  0.77980850  1
  H  940  1  0.71975250  0.24800600  0.79548750  1
  H  942  1  0.70478600  0.46259350  0.95585750  1
  H  943  1  0.74590400  0.44417200  0.95352400  1
  H  944  1  0.71961150  0.45917350  0.91162800  1
  H  954  1  0.50586900  0.95582650  0.26366450  1
  H  955  1  0.52200050  0.95349000  0.22024250  1
  H  956  1  0.46506150  0.91163950  0.20459500  1
  H  958  1  0.51919000  0.73629450  0.04414050  1
  H  959  1  0.50307550  0.77972850  0.04647900  1
  H  960  1  0.56000400  0.79536050  0.08834050  1
  H  970  1  0.32038450  0.04418150  0.53744800  1
  H  971  1  0.27929600  0.04655150  0.55590150  1
  H  972  1  0.30556250  0.08841250  0.54085400  1
  H  974  1  0.32041300  0.26370150  0.77036150  1
  H  975  1  0.27930450  0.22023000  0.71082650  1
  H  976  1  0.30560800  0.20465550  0.75214650  1
  H  986  1  0.51925950  0.77043400  0.46257450  1
  H  987  1  0.50322100  0.71090950  0.44418250  1
  H  988  1  0.56011350  0.75224000  0.45920550  1
  H  990  1  0.50600000  0.53754600  0.22980100  1
  H  991  1  0.52207900  0.55600000  0.28934100  1
  H  992  1  0.46516600  0.54093800  0.24801800  1
  H  1002  1  0.96843800  0.26358100  0.49330200  1
  H  1003  1  0.96609750  0.22018450  0.50947400  1
  H  1004  1  0.92425950  0.20450100  0.45251150  1
  H  1006  1  0.74892200  0.04414750  0.50674350  1
  H  1007  1  0.79237400  0.04647500  0.49065900  1
  H  1008  1  0.80797500  0.08837800  0.54755200  1
  H  1018  1  0.24221900  0.73632750  0.69220350  1
  H  1019  1  0.30176950  0.77976250  0.73328600  1
  H  1020  1  0.26046600  0.79539450  0.70707750  1
  H  1022  1  0.47500950  0.95586900  0.69215850  1
  H  1023  1  0.45656350  0.95352300  0.73325650  1
  H  1024  1  0.47163450  0.91166950  0.70702000  1
  H  1034  1  0.78296650  0.46256050  0.50672500  1
  H  1035  1  0.72342150  0.44410650  0.49063300  1
  H  1036  1  0.76473250  0.45916650  0.54755000  1
  H  1038  1  0.55005300  0.22968200  0.49333700  1
  H  1039  1  0.56849100  0.28921950  0.50940750  1
  H  1040  1  0.55347200  0.24790250  0.45251150  1
  H  1050  1  0.05672750  0.53744900  0.30784250  1
  H  1051  1  0.05907250  0.55587200  0.26672950  1
  H  1052  1  0.10094350  0.54083500  0.29300250  1
  H  1054  1  0.27622250  0.77029400  0.30777650  1
  H  1055  1  0.23277550  0.71074700  0.26668250  1
  H  1056  1  0.21716350  0.75205300  0.29293350  1
  N  482  1  0.71716650  0.53760150  0.37205100  1
  N  485  1  0.64058800  0.46245650  0.29546850  1
  N  498  1  0.30796050  0.66738600  0.83298550  1
  N  501  1  0.38454800  0.66744000  0.83443500  1
  N  514  1  0.84698400  0.46242900  0.16700500  1
  N  517  1  0.84556800  0.53758200  0.16553300  1
  N  530  1  0.17822850  0.33261400  0.62799050  1
  N  533  1  0.17961300  0.33253350  0.70452550  1
  N  546  1  0.34512300  0.62787100  0.16551300  1
  N  549  1  0.34512100  0.70445100  0.16697800  1
  N  562  1  0.47498400  0.16701150  0.83441750  1
  N  565  1  0.55012250  0.16557500  0.83300750  1
  N  578  1  0.67996000  0.83297750  0.29538950  1
  N  581  1  0.68006550  0.83447150  0.37203600  1
  N  594  1  0.55023450  0.37200800  0.70461250  1
  N  597  1  0.47508400  0.29546900  0.62800000  1
  N  610  1  0.17961750  0.83449700  0.46237350  1
  N  613  1  0.17813300  0.83304200  0.53748500  1
  N  626  1  0.64053650  0.16556000  0.33258150  1
  N  629  1  0.71708550  0.16698650  0.33256600  1
  N  642  1  0.38455250  0.70460400  0.53758850  1
  N  645  1  0.30799850  0.62796350  0.46243600  1
  N  658  1  0.84561500  0.29538250  0.66738250  1
  N  661  1  0.84708300  0.37199850  0.66746350  1
  N  866  1  0.30801250  0.46242250  0.62808800  1
  N  869  1  0.38446450  0.53766250  0.70464000  1
  N  882  1  0.71719500  0.33274800  0.16703600  1
  N  885  1  0.64072050  0.33278100  0.16578150  1
  N  898  1  0.17826900  0.53755450  0.83296750  1
  N  901  1  0.17959650  0.46231850  0.83421300  1
  N  914  1  0.84684250  0.66722800  0.37185450  1
  N  917  1  0.84555800  0.66727100  0.29536800  1
  N  930  1  0.67992450  0.37191550  0.83432900  1
  N  933  1  0.67982450  0.29536400  0.83301650  1
  N  946  1  0.55012150  0.83296250  0.16571800  1
  N  949  1  0.47491500  0.83422750  0.16701250  1
  N  962  1  0.34531800  0.16704600  0.70460900  1
  N  965  1  0.34538900  0.16579150  0.62812050  1
  N  978  1  0.47503700  0.62817950  0.29546650  1
  N  981  1  0.55022100  0.70470550  0.37196550  1
  N  994  1  0.84558850  0.16566500  0.53757950  1
  N  997  1  0.84679750  0.16697600  0.46233950  1
  N  1010  1  0.38438600  0.83428800  0.66725300  1
  N  1013  1  0.30788250  0.83297550  0.66723700  1
  N  1026  1  0.64072300  0.29541750  0.46243850  1
  N  1029  1  0.71728950  0.37190000  0.53767650  1
  N  1042  1  0.17958050  0.70458400  0.33271850  1
  N  1045  1  0.17830450  0.62809300  0.33275450  1
  O  8  1  0.67366950  0.41828550  0.24298500  1
  O  15  1  0.67362500  0.24284350  0.41815050  1
  O  28  1  0.35147800  0.58187350  0.75716350  1
  O  35  1  0.35147600  0.75708750  0.58176550  1
  O  48  1  0.83726300  0.58177000  0.24278200  1
  O  55  1  0.18787200  0.75718050  0.41817850  1
  O  68  1  0.18790350  0.41809600  0.75701450  1
  O  75  1  0.83729450  0.24288700  0.58181750  1
  O  88  1  0.43065950  0.75700350  0.17529400  1
  O  95  1  0.25547750  0.58182150  0.82468600  1
  O  108  1  0.59431750  0.24284350  0.82471100  1
  O  115  1  0.76973900  0.41824950  0.17532250  1
  O  128  1  0.59451300  0.75725300  0.33901700  1
  O  135  1  0.76963650  0.58176800  0.33894150  1
  O  148  1  0.43089300  0.24298850  0.66108550  1
  O  155  1  0.25547450  0.41818000  0.66106450  1
  O  168  1  0.25533700  0.82471000  0.58172700  1
  O  175  1  0.43080350  0.17532150  0.75715700  1
  O  188  1  0.76959400  0.17528350  0.41812750  1
  O  195  1  0.59440150  0.82467400  0.24292350  1
  O  208  1  0.25550650  0.66103500  0.41825150  1
  O  215  1  0.43069400  0.66099100  0.24283200  1
  O  228  1  0.76981250  0.33892550  0.58190200  1
  O  235  1  0.59440900  0.33893550  0.75710850  1
  O  487  1  0.61749400  0.50813150  0.26759950  1
  O  488  1  0.74503250  0.49192650  0.39514700  1
  O  503  1  0.40764650  0.66263400  0.90318950  1
  O  504  1  0.28009850  0.66263350  0.75946100  1
  O  519  1  0.77200800  0.49190150  0.09676650  1
  O  520  1  0.91578200  0.50812050  0.24052450  1
  O  535  1  0.25319100  0.33736650  0.73244850  1
  O  536  1  0.10943000  0.33731900  0.60487000  1
  O  551  1  0.34986950  0.73228750  0.24050600  1
  O  552  1  0.34991400  0.60480700  0.09675200  1
  O  567  1  0.50446300  0.09682200  0.75944500  1
  O  568  1  0.52065100  0.24053450  0.90319450  1
  O  583  1  0.67528950  0.90324650  0.39514000  1
  O  584  1  0.67521650  0.75945050  0.26754900  1
  O  599  1  0.52074000  0.26754550  0.60491150  1
  O  600  1  0.50455850  0.39513150  0.73244000  1
  O  615  1  0.10934850  0.75951850  0.49179200  1
  O  616  1  0.25317450  0.90325400  0.50807350  1
  O  631  1  0.74497450  0.24054000  0.33736550  1
  O  632  1  0.61744300  0.09679400  0.33735000  1
  O  647  1  0.28012050  0.60487250  0.50811500  1
  O  648  1  0.40765100  0.73243400  0.49189600  1
  O  663  1  0.91582700  0.39508700  0.66262900  1
  O  664  1  0.77211150  0.26755800  0.66267950  1
  O  871  1  0.40776600  0.49209950  0.73258150  1
  O  872  1  0.27998050  0.50796500  0.60480350  1
  O  887  1  0.61743500  0.33745600  0.09693200  1
  O  888  1  0.74519900  0.33747750  0.24059650  1
  O  903  1  0.25311500  0.50790200  0.90308500  1
  O  904  1  0.10942550  0.49198500  0.75940950  1
  O  919  1  0.77202200  0.66258950  0.26741550  1
  O  920  1  0.91567300  0.66251100  0.39509900  1
  O  935  1  0.67518350  0.26742100  0.75950950  1
  O  936  1  0.67518100  0.39520150  0.90315850  1
  O  951  1  0.52048400  0.90306900  0.24054700  1
  O  952  1  0.50456050  0.75940950  0.09688500  1
  O  967  1  0.35002950  0.09691750  0.60483200  1
  O  968  1  0.35003350  0.24060450  0.73259500  1
  O  983  1  0.50461650  0.73265000  0.39520350  1
  O  984  1  0.52063250  0.60492500  0.26753150  1
  O  999  1  0.91566450  0.24048200  0.50790050  1
  O  1000  1  0.77201450  0.09683850  0.49204000  1
  O  1015  1  0.27994200  0.75944850  0.66255850  1
  O  1016  1  0.40764050  0.90311750  0.66252900  1
  O  1031  1  0.74522650  0.39518200  0.49209050  1
  O  1032  1  0.61744250  0.26743600  0.50800950  1
  O  1047  1  0.10945850  0.60482700  0.33745250  1
  O  1048  1  0.25312250  0.73255000  0.33741150  1
