# generated using pymatgen
data_ZnH4C6(N3O2)2
_symmetry_space_group_name_H-M   'P 1'
_cell_length_a   11.18932000
_cell_length_b   17.71306710
_cell_length_c   17.72344829
_cell_angle_alpha   78.90247086
_cell_angle_beta   71.68669021
_cell_angle_gamma   71.62224895
_symmetry_Int_Tables_number   1
_chemical_formula_structural   ZnH4C6(N3O2)2
_chemical_formula_sum   'Zn10 H40 C60 N60 O40'
_cell_volume   3147.68720912
_cell_formula_units_Z   10
loop_
 _symmetry_equiv_pos_site_id
 _symmetry_equiv_pos_as_xyz
  1  'x, y, z'
loop_
 _atom_site_type_symbol
 _atom_site_label
 _atom_site_symmetry_multiplicity
 _atom_site_fract_x
 _atom_site_fract_y
 _atom_site_fract_z
 _atom_site_occupancy
  Zn  Zn0  1  0.09383000  0.92773000  0.32332000  1
  Zn  Zn1  1  0.65539000  0.32289000  0.92757000  1
  Zn  Zn2  1  0.40593000  0.17734000  0.57217000  1
  Zn  Zn3  1  0.84512000  0.57220000  0.17686000  1
  Zn  Zn4  1  0.90618000  0.07227000  0.67668000  1
  Zn  Zn5  1  0.34462000  0.67711000  0.07243000  1
  Zn  Zn6  1  0.59409000  0.82265000  0.42783000  1
  Zn  Zn7  1  0.15490000  0.42779000  0.82314000  1
  Zn  Zn8  1  0.75027000  0.24963000  0.25020000  1
  Zn  Zn9  1  0.24974000  0.75037000  0.74980000  1
  H  H10  1  0.98644000  0.16311000  0.10604000  1
  H  H11  1  0.15698000  0.01558000  0.13895000  1
  H  H12  1  0.01416000  0.76884000  0.34141000  1
  H  H13  1  0.73581000  0.83141000  0.55278000  1
  H  H14  1  0.96238000  0.88307000  0.50514000  1
  H  H15  1  0.74424000  0.10568000  0.16287000  1
  H  H16  1  0.68826000  0.13917000  0.01542000  1
  H  H17  1  0.87535000  0.34165000  0.76877000  1
  H  H18  1  0.88041000  0.55255000  0.83107000  1
  H  H19  1  0.64973000  0.50507000  0.88336000  1
  H  H20  1  0.51354000  0.39422000  0.33705000  1
  H  H21  1  0.34316000  0.36084000  0.48417000  1
  H  H22  1  0.48622000  0.15869000  0.73138000  1
  H  H23  1  0.76383000  0.94728000  0.66859000  1
  H  H24  1  0.53747000  0.99513000  0.61681000  1
  H  H25  1  0.75579000  0.33712000  0.39417000  1
  H  H26  1  0.81146000  0.48463000  0.36096000  1
  H  H27  1  0.62528000  0.73097000  0.15826000  1
  H  H28  1  0.61917000  0.66886000  0.94767000  1
  H  H29  1  0.85007000  0.61646000  0.99499000  1
  H  H30  1  0.01356000  0.83689000  0.89396000  1
  H  H31  1  0.84303000  0.98442000  0.86105000  1
  H  H32  1  0.98584000  0.23117000  0.65859000  1
  H  H33  1  0.26421000  0.16858000  0.44722000  1
  H  H34  1  0.03763000  0.11692000  0.49486000  1
  H  H35  1  0.25578000  0.89431000  0.83712000  1
  H  H36  1  0.31176000  0.86083000  0.98457000  1
  H  H37  1  0.12465000  0.65835000  0.23123000  1
  H  H38  1  0.11960000  0.44745000  0.16893000  1
  H  H39  1  0.35027000  0.49494000  0.11664000  1
  H  H40  1  0.48648000  0.60577000  0.66295000  1
  H  H41  1  0.65686000  0.63915000  0.51583000  1
  H  H42  1  0.51379000  0.84131000  0.26862000  1
  H  H43  1  0.23618000  0.05271000  0.33142000  1
  H  H44  1  0.46254000  0.00487000  0.38319000  1
  H  H45  1  0.24421000  0.66288000  0.60583000  1
  H  H46  1  0.18855000  0.51537000  0.63904000  1
  H  H47  1  0.37473000  0.26903000  0.84174000  1
  H  H48  1  0.38081000  0.33115000  0.05234000  1
  H  H49  1  0.14993000  0.38354000  0.00501000  1
  C  C50  1  0.99673000  0.12989000  0.16288000  1
  C  C51  1  0.08202000  0.05593000  0.17942000  1
  C  C52  1  0.96076000  0.10218000  0.29009000  1
  C  C53  1  0.09054000  0.76984000  0.28599000  1
  C  C54  1  0.81737000  0.90302000  0.37102000  1
  C  C55  1  0.78288000  0.85800000  0.49535000  1
  C  C56  1  0.89651000  0.88300000  0.47159000  1
  C  C57  1  0.71055000  0.16274000  0.12988000  1
  C  C58  1  0.68261000  0.17949000  0.05595000  1
  C  C59  1  0.64721000  0.29013000  0.10250000  1
  C  C60  1  0.85376000  0.28601000  0.76973000  1
  C  C61  1  0.90881000  0.37084000  0.90342000  1
  C  C62  1  0.86391000  0.49519000  0.85799000  1
  C  C63  1  0.74912000  0.47135000  0.88324000  1
  C  C64  1  0.50374000  0.33722000  0.37008000  1
  C  C65  1  0.41841000  0.32050000  0.44380000  1
  C  C66  1  0.54022000  0.20985000  0.39747000  1
  C  C67  1  0.40960000  0.21409000  0.73028000  1
  C  C68  1  0.68311000  0.12909000  0.59656000  1
  C  C69  1  0.71699000  0.00475000  0.64179000  1
  C  C70  1  0.60339000  0.02873000  0.61669000  1
  C  C71  1  0.78952000  0.37013000  0.33721000  1
  C  C72  1  0.81745000  0.44408000  0.32056000  1
  C  C73  1  0.85329000  0.39743000  0.20998000  1
  C  C74  1  0.64676000  0.73019000  0.21387000  1
  C  C75  1  0.59136000  0.59662000  0.12923000  1
  C  C76  1  0.63580000  0.64188000  0.00497000  1
  C  C77  1  0.75077000  0.61655000  0.02870000  1
  C  C78  1  0.00328000  0.87010000  0.83712000  1
  C  C79  1  0.91800000  0.94406000  0.82058000  1
  C  C80  1  0.03926000  0.89781000  0.70991000  1
  C  C81  1  0.90947000  0.23016000  0.71401000  1
  C  C82  1  0.18264000  0.09698000  0.62898000  1
  C  C83  1  0.21712000  0.14200000  0.50465000  1
  C  C84  1  0.10349000  0.11700000  0.52842000  1
  C  C85  1  0.28946000  0.83726000  0.87012000  1
  C  C86  1  0.31740000  0.82051000  0.94405000  1
  C  C87  1  0.35280000  0.70987000  0.89750000  1
  C  C88  1  0.14623000  0.71400000  0.23027000  1
  C  C89  1  0.09121000  0.62915000  0.09658000  1
  C  C90  1  0.13610000  0.50481000  0.14201000  1
  C  C91  1  0.25089000  0.52865000  0.11676000  1
  C  C92  1  0.49628000  0.66277000  0.62992000  1
  C  C93  1  0.58160000  0.67950000  0.55620000  1
  C  C94  1  0.45979000  0.79015000  0.60253000  1
  C  C95  1  0.59042000  0.78590000  0.26972000  1
  C  C96  1  0.31690000  0.87091000  0.40344000  1
  C  C97  1  0.28301000  0.99525000  0.35822000  1
  C  C98  1  0.39662000  0.97127000  0.38331000  1
  C  C99  1  0.21049000  0.62987000  0.66279000  1
  C  C100  1  0.18257000  0.55591000  0.67944000  1
  C  C101  1  0.14673000  0.60256000  0.79002000  1
  C  C102  1  0.35326000  0.26980000  0.78613000  1
  C  C103  1  0.40865000  0.40338000  0.87077000  1
  C  C104  1  0.36420000  0.35812000  0.99503000  1
  C  C105  1  0.24924000  0.38345000  0.97130000  1
  C  C106  1  0.24281000  0.80747000  0.19270000  1
  C  C107  1  0.75719000  0.19254000  0.80730000  1
  C  C108  1  0.25701000  0.30730000  0.69251000  1
  C  C109  1  0.74302000  0.69269000  0.30748000  1
  N  N110  1  0.91972000  0.15844000  0.23366000  1
  N  N111  1  0.05839000  0.03858000  0.26031000  1
  N  N112  1  0.91174000  0.11165000  0.37285000  1
  N  N113  1  0.15172000  0.82934000  0.26164000  1
  N  N114  1  0.91853000  0.91085000  0.39235000  1
  N  N115  1  0.73321000  0.87093000  0.43129000  1
  N  N116  1  0.79825000  0.92753000  0.29328000  1
  N  N117  1  0.68843000  0.23349000  0.15864000  1
  N  N118  1  0.64286000  0.26048000  0.03877000  1
  N  N119  1  0.60367000  0.37289000  0.11244000  1
  N  N120  1  0.75768000  0.26154000  0.82912000  1
  N  N121  1  0.77847000  0.39207000  0.91137000  1
  N  N122  1  0.96458000  0.43120000  0.87105000  1
  N  N123  1  0.98193000  0.29313000  0.92773000  1
  N  N124  1  0.58115000  0.26645000  0.34151000  1
  N  N125  1  0.44227000  0.23951000  0.46097000  1
  N  N126  1  0.58929000  0.12715000  0.38737000  1
  N  N127  1  0.34863000  0.23845000  0.67067000  1
  N  N128  1  0.58171000  0.10801000  0.58864000  1
  N  N129  1  0.76698000  0.06865000  0.62877000  1
  N  N130  1  0.70277000  0.20680000  0.57248000  1
  N  N131  1  0.81186000  0.34133000  0.26649000  1
  N  N132  1  0.85752000  0.46120000  0.23966000  1
  N  N133  1  0.89737000  0.38730000  0.12732000  1
  N  N134  1  0.74315000  0.67089000  0.23836000  1
  N  N135  1  0.72172000  0.58850000  0.10791000  1
  N  N136  1  0.53524000  0.62899000  0.06899000  1
  N  N137  1  0.51880000  0.57252000  0.20700000  1
  N  N138  1  0.08030000  0.84156000  0.76633000  1
  N  N139  1  0.94162000  0.96142000  0.73969000  1
  N  N140  1  0.08827000  0.88835000  0.62715000  1
  N  N141  1  0.84828000  0.17066000  0.73837000  1
  N  N142  1  0.08148000  0.08915000  0.60765000  1
  N  N143  1  0.26680000  0.12907000  0.56871000  1
  N  N144  1  0.20176000  0.07247000  0.70672000  1
  N  N145  1  0.31158000  0.76650000  0.84136000  1
  N  N146  1  0.35715000  0.73952000  0.96123000  1
  N  N147  1  0.39633000  0.62711000  0.88757000  1
  N  N148  1  0.24233000  0.73846000  0.17088000  1
  N  N149  1  0.22153000  0.60794000  0.08863000  1
  N  N150  1  0.03544000  0.56880000  0.12894000  1
  N  N151  1  0.01808000  0.70686000  0.07227000  1
  N  N152  1  0.41887000  0.73354000  0.65849000  1
  N  N153  1  0.55774000  0.76049000  0.53903000  1
  N  N154  1  0.41072000  0.87285000  0.61263000  1
  N  N155  1  0.65137000  0.76155000  0.32933000  1
  N  N156  1  0.41832000  0.89198000  0.41136000  1
  N  N157  1  0.23303000  0.93135000  0.37123000  1
  N  N158  1  0.29724000  0.79320000  0.42752000  1
  N  N159  1  0.18815000  0.65867000  0.73351000  1
  N  N160  1  0.14249000  0.53880000  0.76034000  1
  N  N161  1  0.10264000  0.61270000  0.87268000  1
  N  N162  1  0.25686000  0.32911000  0.76164000  1
  N  N163  1  0.27830000  0.41149000  0.89209000  1
  N  N164  1  0.46477000  0.37101000  0.93101000  1
  N  N165  1  0.48121000  0.42748000  0.79300000  1
  N  N166  1  0.33794000  0.84894000  0.15105000  1
  N  N167  1  0.66207000  0.15106000  0.84895000  1
  N  N168  1  0.16253000  0.34879000  0.65046000  1
  N  N169  1  0.83748000  0.65121000  0.34954000  1
  O  O170  1  0.82525000  0.17462000  0.39392000  1
  O  O171  1  0.95913000  0.05729000  0.42045000  1
  O  O172  1  0.88635000  0.95070000  0.23962000  1
  O  O173  1  0.33450000  0.90988000  0.17863000  1
  O  O174  1  0.69374000  0.92467000  0.28389000  1
  O  O175  1  0.60688000  0.39379000  0.17532000  1
  O  O176  1  0.56196000  0.42070000  0.05859000  1
  O  O177  1  0.92524000  0.23901000  0.95073000  1
  O  O178  1  0.57827000  0.17853000  0.91018000  1
  O  O179  1  0.09858000  0.28418000  0.92480000  1
  O  O180  1  0.67754000  0.10627000  0.32507000  1
  O  O181  1  0.54026000  0.07937000  0.44047000  1
  O  O182  1  0.61479000  0.26083000  0.54949000  1
  O  O183  1  0.16893000  0.32169000  0.58852000  1
  O  O184  1  0.80738000  0.21594000  0.57553000  1
  O  O185  1  0.89340000  0.32462000  0.10638000  1
  O  O186  1  0.94051000  0.44069000  0.07963000  1
  O  O187  1  0.57613000  0.54957000  0.26088000  1
  O  O188  1  0.92340000  0.59072000  0.32178000  1
  O  O189  1  0.40208000  0.57557000  0.21618000  1
  O  O190  1  0.17476000  0.82538000  0.60608000  1
  O  O191  1  0.04088000  0.94271000  0.57955000  1
  O  O192  1  0.11367000  0.04930000  0.76038000  1
  O  O193  1  0.66551000  0.09012000  0.82137000  1
  O  O194  1  0.30627000  0.07533000  0.71611000  1
  O  O195  1  0.39313000  0.60621000  0.82468000  1
  O  O196  1  0.43805000  0.57930000  0.94141000  1
  O  O197  1  0.07476000  0.76099000  0.04927000  1
  O  O198  1  0.42174000  0.82147000  0.08982000  1
  O  O199  1  0.90143000  0.71582000  0.07520000  1
  O  O200  1  0.32247000  0.89373000  0.67493000  1
  O  O201  1  0.45976000  0.92062000  0.55953000  1
  O  O202  1  0.38522000  0.73917000  0.45051000  1
  O  O203  1  0.83109000  0.67830000  0.41148000  1
  O  O204  1  0.19263000  0.78406000  0.42447000  1
  O  O205  1  0.10662000  0.67537000  0.89362000  1
  O  O206  1  0.05951000  0.55930000  0.92037000  1
  O  O207  1  0.42389000  0.45042000  0.73912000  1
  O  O208  1  0.07661000  0.40928000  0.67822000  1
  O  O209  1  0.59793000  0.42443000  0.78382000  1
