# generated using pymatgen
data_Zn3P2H4C4O13
_symmetry_space_group_name_H-M   'P 1'
_cell_length_a   4.82813000
_cell_length_b   13.14196000
_cell_length_c   22.74151000
_cell_angle_alpha   90.03067000
_cell_angle_beta   90.15186000
_cell_angle_gamma   82.25648000
_symmetry_Int_Tables_number   1
_chemical_formula_structural   Zn3P2H4C4O13
_chemical_formula_sum   'Zn12 P8 H16 C16 O52'
_cell_volume   1429.81031168
_cell_formula_units_Z   4
loop_
 _symmetry_equiv_pos_site_id
 _symmetry_equiv_pos_as_xyz
  1  'x, y, z'
loop_
 _atom_site_type_symbol
 _atom_site_label
 _atom_site_symmetry_multiplicity
 _atom_site_fract_x
 _atom_site_fract_y
 _atom_site_fract_z
 _atom_site_occupancy
  Zn  Zn0  1  0.67375000  0.82459000  0.63216000  1
  Zn  Zn1  1  0.60371000  0.03782000  0.56715000  1
  Zn  Zn2  1  0.89653000  0.15347000  0.69181000  1
  Zn  Zn3  1  0.83645000  0.67529000  0.13215000  1
  Zn  Zn4  1  0.89596000  0.46219000  0.06715000  1
  Zn  Zn5  1  0.60381000  0.34661000  0.19198000  1
  Zn  Zn6  1  0.32626000  0.17541000  0.36783000  1
  Zn  Zn7  1  0.39630000  0.96217000  0.43285000  1
  Zn  Zn8  1  0.10348000  0.84652000  0.30819000  1
  Zn  Zn9  1  0.16356000  0.32471000  0.86785000  1
  Zn  Zn10  1  0.10405000  0.53781000  0.93285000  1
  Zn  Zn11  1  0.39620000  0.65338000  0.80802000  1
  P  P12  1  0.42024000  0.02775000  0.70466000  1
  P  P13  1  0.18298000  0.85235000  0.54575000  1
  P  P14  1  0.08074000  0.47242000  0.20471000  1
  P  P15  1  0.32178000  0.64750000  0.04551000  1
  P  P16  1  0.57977000  0.97225000  0.29534000  1
  P  P17  1  0.81703000  0.14765000  0.45425000  1
  P  P18  1  0.91927000  0.52758000  0.79529000  1
  P  P19  1  0.67823000  0.35249000  0.95449000  1
  H  H20  1  0.83574000  0.94350000  0.75585000  1
  H  H21  1  0.54196000  0.97560000  0.80404000  1
  H  H22  1  0.00093000  0.71136000  0.50091000  1
  H  H23  1  0.32289000  0.73971000  0.46796000  1
  H  H24  1  0.66631000  0.55782000  0.25547000  1
  H  H25  1  0.95797000  0.52388000  0.30402000  1
  H  H26  1  0.49960000  0.78897000  0.00066000  1
  H  H27  1  0.17786000  0.75968000  0.96780000  1
  H  H28  1  0.16427000  0.05650000  0.24415000  1
  H  H29  1  0.45805000  0.02440000  0.19596000  1
  H  H30  1  0.99908000  0.28864000  0.49909000  1
  H  H31  1  0.67712000  0.26028000  0.53204000  1
  H  H32  1  0.33370000  0.44218000  0.74452000  1
  H  H33  1  0.04203000  0.47611000  0.69597000  1
  H  H34  1  0.50041000  0.21103000  0.99934000  1
  H  H35  1  0.82215000  0.24032000  0.03220000  1
  C  C36  1  0.60894000  0.94395000  0.76112000  1
  C  C37  1  0.11494000  0.77156000  0.48365000  1
  C  C38  1  0.94256000  0.82938000  0.43581000  1
  C  C39  1  0.54528000  0.83552000  0.75799000  1
  C  C40  1  0.89337000  0.55631000  0.26110000  1
  C  C41  1  0.38677000  0.72836000  0.98340000  1
  C  C42  1  0.55875000  0.67069000  0.93566000  1
  C  C43  1  0.95996000  0.66448000  0.25874000  1
  C  C44  1  0.39107000  0.05605000  0.23888000  1
  C  C45  1  0.88507000  0.22844000  0.51635000  1
  C  C46  1  0.05743000  0.17062000  0.56419000  1
  C  C47  1  0.45473000  0.16448000  0.24201000  1
  C  C48  1  0.10664000  0.44368000  0.73890000  1
  C  C49  1  0.61325000  0.27164000  0.01659000  1
  C  C50  1  0.44122000  0.32930000  0.06434000  1
  C  C51  1  0.04005000  0.33552000  0.74126000  1
  O  O52  1  0.48784000  0.97389000  0.64464000  1
  O  O53  1  0.11243000  0.02910000  0.72317000  1
  O  O54  1  0.49900000  0.13744000  0.70235000  1
  O  O55  1  0.90559000  0.89457000  0.57697000  1
  O  O56  1  0.31840000  0.94365000  0.52043000  1
  O  O57  1  0.37304000  0.77823000  0.58581000  1
  O  O58  1  0.68704000  0.82354000  0.43464000  1
  O  O59  1  0.06873000  0.88456000  0.39880000  1
  O  O60  1  0.41471000  0.80188000  0.80102000  1
  O  O61  1  0.62534000  0.77756000  0.71414000  1
  O  O62  1  0.08393000  0.64151000  0.65779000  1
  O  O63  1  0.16075000  0.71176000  0.69008000  1
  O  O64  1  0.91777000  0.67185000  0.61306000  1
  O  O65  1  0.01316000  0.52598000  0.14454000  1
  O  O66  1  0.38878000  0.47109000  0.22328000  1
  O  O67  1  0.00161000  0.36283000  0.20223000  1
  O  O68  1  0.59862000  0.60517000  0.07695000  1
  O  O69  1  0.18275000  0.55675000  0.02037000  1
  O  O70  1  0.13652000  0.72200000  0.08600000  1
  O  O71  1  0.81430000  0.67648000  0.93460000  1
  O  O72  1  0.43158000  0.61553000  0.89867000  1
  O  O73  1  0.08379000  0.69786000  0.30305000  1
  O  O74  1  0.88782000  0.72233000  0.21434000  1
  O  O75  1  0.42865000  0.85924000  0.15460000  1
  O  O76  1  0.34946000  0.78983000  0.18700000  1
  O  O77  1  0.59676000  0.82786000  0.11050000  1
  O  O78  1  0.51217000  0.02611000  0.35536000  1
  O  O79  1  0.88758000  0.97089000  0.27683000  1
  O  O80  1  0.50101000  0.86255000  0.29765000  1
  O  O81  1  0.09442000  0.10542000  0.42303000  1
  O  O82  1  0.68161000  0.05634000  0.47957000  1
  O  O83  1  0.62697000  0.22176000  0.41419000  1
  O  O84  1  0.31298000  0.17646000  0.56536000  1
  O  O85  1  0.93128000  0.11544000  0.60120000  1
  O  O86  1  0.58531000  0.19811000  0.19897000  1
  O  O87  1  0.37467000  0.22243000  0.28585000  1
  O  O88  1  0.91608000  0.35848000  0.34220000  1
  O  O89  1  0.83926000  0.28824000  0.30992000  1
  O  O90  1  0.08224000  0.32814000  0.38694000  1
  O  O91  1  0.98685000  0.47402000  0.85546000  1
  O  O92  1  0.61124000  0.52891000  0.77672000  1
  O  O93  1  0.99840000  0.63716000  0.79777000  1
  O  O94  1  0.40139000  0.39482000  0.92304000  1
  O  O95  1  0.81726000  0.44325000  0.97963000  1
  O  O96  1  0.86350000  0.27799000  0.91400000  1
  O  O97  1  0.18575000  0.32351000  0.06540000  1
  O  O98  1  0.56843000  0.38446000  0.10133000  1
  O  O99  1  0.91622000  0.30214000  0.69695000  1
  O  O100  1  0.11219000  0.27766000  0.78566000  1
  O  O101  1  0.57136000  0.14076000  0.84539000  1
  O  O102  1  0.65055000  0.21016000  0.81299000  1
  O  O103  1  0.40324000  0.17214000  0.88950000  1
