# generated using pymatgen
data_ZnH11(C11O2)2
_symmetry_space_group_name_H-M   'P 1'
_cell_length_a   6.72912500
_cell_length_b   11.40497000
_cell_length_c   15.67643000
_cell_angle_alpha   90.00000000
_cell_angle_beta   90.00000000
_cell_angle_gamma   100.79997000
_symmetry_Int_Tables_number   1
_chemical_formula_structural   ZnH11(C11O2)2
_chemical_formula_sum   'Zn2 H22 C44 O8'
_cell_volume   1181.78496720
_cell_formula_units_Z   2
loop_
 _symmetry_equiv_pos_site_id
 _symmetry_equiv_pos_as_xyz
  1  'x, y, z'
loop_
 _atom_site_type_symbol
 _atom_site_label
 _atom_site_symmetry_multiplicity
 _atom_site_fract_x
 _atom_site_fract_y
 _atom_site_fract_z
 _atom_site_occupancy
  C  C1  1  0.29430000  0.87633500  0.62115000  1.0
  C  C2  1  0.18074000  0.81768000  0.69609000  1.0
  C  C3  1  0.27084000  0.74495000  0.75037000  1.0
  C  C4  1  0.17059000  0.69687000  0.82371000  1.0
  C  C5  1  0.29430000  0.87633500  0.37885000  1.0
  C  C6  1  0.18074000  0.81768000  0.30391000  1.0
  C  C7  1  0.27084000  0.74495000  0.24963000  1.0
  C  C8  1  0.17059000  0.69687000  0.17629000  1.0
  C  C9  1  0.70570000  0.12367000  0.62115000  1.0
  C  C10  1  0.81926000  0.18232000  0.69609000  1.0
  C  C11  1  0.72916000  0.25505000  0.75037000  1.0
  C  C12  1  0.82942000  0.30313000  0.82371000  1.0
  C  C13  1  0.70570000  0.12367000  0.37885000  1.0
  C  C14  1  0.81926000  0.18232000  0.30391000  1.0
  C  C15  1  0.72916000  0.25505000  0.24963000  1.0
  C  C16  1  0.82942000  0.30313000  0.17629000  1.0
  C  C17  1  0.97534000  0.71643000  0.84252000  1.0
  C  C18  1  0.88408000  0.78741500  0.78693000  1.0
  C  C19  1  0.98661000  0.83906000  0.71503000  1.0
  C  C20  1  0.87288000  0.66644000  0.92180000  1.0
  C  C21  1  0.96464000  0.70226000  0.00000000  1.0
  C  C22  1  0.68540000  0.58527000  0.92067000  1.0
  C  C23  1  0.59268000  0.54275000  0.00000000  1.0
  C  C24  1  0.58866000  0.54068000  0.84278000  1.0
  C  C25  1  0.02467000  0.28356500  0.84252000  1.0
  C  C26  1  0.11592000  0.21258000  0.78693000  1.0
  C  C27  1  0.01340000  0.16094000  0.71503000  1.0
  C  C28  1  0.12713000  0.33355500  0.92180000  1.0
  C  C29  1  0.03536000  0.29774000  0.00000000  1.0
  C  C30  1  0.31460000  0.41472000  0.92067000  1.0
  C  C31  1  0.40734000  0.45725000  0.00000000  1.0
  C  C32  1  0.41134000  0.45931000  0.84278000  1.0
  C  C33  1  0.02468000  0.28356500  0.15747000  1.0
  C  C34  1  0.11592000  0.21258000  0.21307000  1.0
  C  C35  1  0.01340000  0.16094000  0.28497000  1.0
  C  C36  1  0.12713000  0.33355500  0.07819000  1.0
  C  C37  1  0.31460000  0.41472000  0.07933000  1.0
  C  C38  1  0.41134000  0.45931000  0.15722000  1.0
  C  C39  1  0.97534000  0.71643000  0.15747000  1.0
  C  C40  1  0.88408000  0.78741500  0.21307000  1.0
  C  C41  1  0.98661000  0.83906000  0.28497000  1.0
  C  C42  1  0.87288000  0.66644000  0.07819000  1.0
  C  C43  1  0.68540000  0.58527000  0.07933000  1.0
  C  C44  1  0.58866000  0.54068000  0.15722000  1.0
  H  H1  1  0.42020000  0.72780500  0.73470000  1.0
  H  H2  1  0.24194000  0.64210000  0.86639000  1.0
  H  H3  1  0.10822000  0.76481000  0.00000000  1.0
  H  H4  1  0.42020000  0.72780500  0.26529000  1.0
  H  H5  1  0.24194000  0.64210000  0.13361000  1.0
  H  H6  1  0.57980000  0.27219500  0.73470000  1.0
  H  H7  1  0.75806000  0.35790000  0.86639000  1.0
  H  H8  1  0.89178000  0.23518000  0.00000000  1.0
  H  H9  1  0.57980000  0.27219500  0.26529000  1.0
  H  H10  1  0.75806000  0.35790000  0.13361000  1.0
  H  H11  1  0.73432000  0.80485000  0.80178000  1.0
  H  H12  1  0.91800000  0.89694000  0.67362000  1.0
  H  H13  1  0.66028000  0.57178000  0.78266000  1.0
  H  H14  1  0.26568000  0.19515000  0.80178000  1.0
  H  H15  1  0.08200000  0.10306000  0.67362000  1.0
  H  H16  1  0.33972000  0.42822000  0.78266000  1.0
  H  H17  1  0.26568000  0.19515000  0.19822000  1.0
  H  H18  1  0.08200000  0.10306000  0.32638000  1.0
  H  H19  1  0.33972000  0.42822000  0.21734000  1.0
  H  H20  1  0.73432000  0.80485000  0.19822000  1.0
  H  H21  1  0.91800000  0.89694000  0.32638000  1.0
  H  H22  1  0.66028000  0.57178000  0.21734000  1.0
  O  O1  1  0.44857000  0.83481000  0.59529000  1.0
  O  O2  1  0.23086000  0.96574000  0.58878000  1.0
  O  O3  1  0.44857000  0.83481000  0.40471000  1.0
  O  O4  1  0.23086000  0.96574000  0.41121000  1.0
  O  O5  1  0.55143000  0.16519000  0.59529000  1.0
  O  O6  1  0.76914000  0.03427000  0.58878000  1.0
  O  O7  1  0.55143000  0.16519000  0.40471000  1.0
  O  O8  1  0.76914000  0.03427000  0.41121000  1.0
  Zn  Zn1  1  0.61598000  0.92236000  0.50000000  1.0
  Zn  Zn2  1  0.38402000  0.07764000  0.50000000  1.0
