# generated using pymatgen
data_V2H15C31NO10
_symmetry_space_group_name_H-M   'P 1'
_cell_length_a   6.94257000
_cell_length_b   14.79736000
_cell_length_c   21.32298000
_cell_angle_alpha   74.77500000
_cell_angle_beta   89.94491000
_cell_angle_gamma   89.36125000
_symmetry_Int_Tables_number   1
_chemical_formula_structural   V2H15C31NO10
_chemical_formula_sum   'V4 H30 C62 N2 O20'
_cell_volume   2113.52662605
_cell_formula_units_Z   2
loop_
 _symmetry_equiv_pos_site_id
 _symmetry_equiv_pos_as_xyz
  1  'x, y, z'
loop_
 _atom_site_type_symbol
 _atom_site_label
 _atom_site_symmetry_multiplicity
 _atom_site_fract_x
 _atom_site_fract_y
 _atom_site_fract_z
 _atom_site_occupancy
  V  V0  1  0.20604000  0.99171000  0.74666000  1
  V  V1  1  0.79396000  0.00829000  0.25334000  1
  V  V2  1  0.70554000  0.00830000  0.75334000  1
  V  V3  1  0.29446000  0.99170000  0.24666000  1
  H  H4  1  0.00462000  0.61301000  0.63021000  1
  H  H5  1  0.99538000  0.38699000  0.36979000  1
  H  H6  1  0.00483000  0.73828000  0.41760000  1
  H  H7  1  0.99517000  0.26172000  0.58240000  1
  H  H8  1  0.01536000  0.69058000  0.22918000  1
  H  H9  1  0.98464000  0.30942000  0.77082000  1
  H  H10  1  0.99279000  0.47919000  0.72369000  1
  H  H11  1  0.00721000  0.52081000  0.27631000  1
  H  H12  1  0.01005000  0.68138000  0.51655000  1
  H  H13  1  0.98994000  0.31862000  0.48345000  1
  H  H14  1  0.84469000  0.14564000  0.93772000  1
  H  H15  1  0.15531000  0.85436000  0.06228000  1
  H  H16  1  0.67192000  0.00965000  0.04073000  1
  H  H17  1  0.32808000  0.99035000  0.95928000  1
  H  H18  1  0.81422000  0.86605000  0.98703000  1
  H  H19  1  0.18577000  0.13395000  0.01297000  1
  H  H20  1  0.37632000  0.85098000  0.48655000  1
  H  H21  1  0.62368000  0.14902000  0.51345000  1
  H  H22  1  0.83444000  0.01935000  0.46108000  1
  H  H23  1  0.16556000  0.98065000  0.53892000  1
  H  H24  1  0.65843000  0.39369000  0.87498000  1
  H  H25  1  0.34157000  0.60631000  0.12502000  1
  H  H26  1  0.57791000  0.26558000  0.08527000  1
  H  H27  1  0.42209000  0.73441000  0.91473000  1
  H  H28  1  0.40221000  0.30515000  0.26769000  1
  H  H29  1  0.59779000  0.69485000  0.73231000  1
  H  H30  1  0.65077000  0.52721000  0.78103000  1
  H  H31  1  0.34923000  0.47279000  0.21897000  1
  H  H32  1  0.61962000  0.32423000  0.98759000  1
  H  H33  1  0.38038000  0.67577000  0.01241000  1
  C  C34  1  0.48865000  0.99857000  0.63291000  1
  C  C35  1  0.51135000  0.00143000  0.36709000  1
  C  C36  1  0.48866000  0.82445000  0.79404000  1
  C  C37  1  0.51135000  0.17554000  0.20596000  1
  C  C38  1  0.98314000  0.00163000  0.86716000  1
  C  C39  1  0.01686000  0.99837000  0.13284000  1
  C  C40  1  0.98406000  0.17550000  0.70587000  1
  C  C41  1  0.01594000  0.82450000  0.29413000  1
  C  C42  1  0.99014000  0.27666000  0.67806000  1
  C  C43  1  0.00986000  0.72334000  0.32194000  1
  C  C44  1  0.99307000  0.43336000  0.69150000  1
  C  C45  1  0.00693000  0.56664000  0.30850000  1
  C  C46  1  0.98868000  0.33699000  0.71848000  1
  C  C47  1  0.01132000  0.66301000  0.28152000  1
  C  C48  1  0.99430000  0.31245000  0.61053000  1
  C  C49  1  0.00570000  0.68755000  0.38947000  1
  C  C50  1  0.99650000  0.41024000  0.58162000  1
  C  C51  1  0.00350000  0.58976000  0.41838000  1
  C  C52  1  0.99725000  0.47034000  0.62374000  1
  C  C53  1  0.00275000  0.52966000  0.37626000  1
  C  C54  1  0.99798000  0.45017000  0.51272000  1
  C  C55  1  0.00201000  0.54983000  0.48728000  1
  C  C56  1  0.00511000  0.60614000  0.53156000  1
  C  C57  1  0.99489000  0.39386000  0.46844000  1
  C  C58  1  0.00232000  0.56697000  0.59819000  1
  C  C59  1  0.99768000  0.43303000  0.40181000  1
  C  C60  1  0.82038000  0.00531000  0.02223000  1
  C  C61  1  0.17962000  0.99468000  0.97777000  1
  C  C62  1  0.91489000  0.07981000  0.96607000  1
  C  C63  1  0.08511000  0.92019000  0.03393000  1
  C  C64  1  0.99278000  0.00107000  0.93777000  1
  C  C65  1  0.00722000  0.99893000  0.06223000  1
  C  C66  1  0.89833000  0.92656000  0.99313000  1
  C  C67  1  0.10167000  0.07344000  0.00687000  1
  C  C68  1  0.60783000  0.92977000  0.53387000  1
  C  C69  1  0.39217000  0.07023000  0.46613000  1
  C  C70  1  0.43146000  0.91831000  0.49267000  1
  C  C71  1  0.56854000  0.08169000  0.50733000  1
  C  C72  1  0.50475000  0.00075000  0.43757000  1
  C  C73  1  0.49525000  0.99925000  0.56243000  1
  C  C74  1  0.68325000  0.01104000  0.47854000  1
  C  C75  1  0.31675000  0.98896000  0.52146000  1
  C  C76  1  0.50338000  0.72325000  0.82172000  1
  C  C77  1  0.49662000  0.27675000  0.17828000  1
  C  C78  1  0.59970000  0.57067000  0.81150000  1
  C  C79  1  0.40030000  0.42933000  0.18850000  1
  C  C80  1  0.56881000  0.66579000  0.78356000  1
  C  C81  1  0.43119000  0.33421000  0.21644000  1
  C  C82  1  0.46945000  0.68572000  0.88809000  1
  C  C83  1  0.53055000  0.31428000  0.11191000  1
  C  C84  1  0.50405000  0.58954000  0.91824000  1
  C  C85  1  0.49595000  0.41046000  0.08176000  1
  C  C86  1  0.56970000  0.53235000  0.87831000  1
  C  C87  1  0.43030000  0.46765000  0.12169000  1
  C  C88  1  0.47923000  0.54877000  0.98650000  1
  C  C89  1  0.52077000  0.45123000  0.01350000  1
  C  C90  1  0.58486000  0.39772000  0.97132000  1
  C  C91  1  0.41514000  0.60229000  0.02868000  1
  C  C92  1  0.60808000  0.43760000  0.90527000  1
  C  C93  1  0.39192000  0.56240000  0.09473000  1
  C  C94  1  0.72816000  0.85256000  0.57170000  1
  C  C95  1  0.27184000  0.14744000  0.42830000  1
  N  N96  1  0.82320000  0.79184000  0.60171000  1
  N  N97  1  0.17680000  0.20816000  0.39829000  1
  O  O98  1  0.64815000  0.86995000  0.78570000  1
  O  O99  1  0.35185000  0.13005000  0.21430000  1
  O  O100  1  0.32049000  0.99334000  0.65985000  1
  O  O101  1  0.67951000  0.00666000  0.34015000  1
  O  O102  1  0.14610000  0.13006000  0.71430000  1
  O  O103  1  0.85390000  0.86994000  0.28570000  1
  O  O104  1  0.31869000  0.86202000  0.78188000  1
  O  O105  1  0.68131000  0.13798000  0.21812000  1
  O  O106  1  0.14428000  0.99781000  0.83720000  1
  O  O107  1  0.85572000  0.00219000  0.16280000  1
  O  O108  1  0.64996000  0.00221000  0.66280000  1
  O  O109  1  0.35004000  0.99779000  0.33720000  1
  O  O110  1  0.47930000  0.04471000  0.76801000  1
  O  O111  1  0.52070000  0.95529000  0.23199000  1
  O  O112  1  0.81432000  0.00668000  0.84015000  1
  O  O113  1  0.18568000  0.99332000  0.15985000  1
  O  O114  1  0.81612000  0.13800000  0.71812000  1
  O  O115  1  0.18388000  0.86200000  0.28188000  1
  O  O116  1  0.98215000  0.95530000  0.73199000  1
  O  O117  1  0.01785000  0.04470000  0.26801000  1
