# generated using pymatgen
data_Cu23H64C105N41
_symmetry_space_group_name_H-M   'P 1'
_cell_length_a   17.21342000
_cell_length_b   19.80743000
_cell_length_c   21.20784000
_cell_angle_alpha   90.00000000
_cell_angle_beta   100.62068000
_cell_angle_gamma   90.00000000
_symmetry_Int_Tables_number   1
_chemical_formula_structural   Cu23H64C105N41
_chemical_formula_sum   'Cu46 H128 C210 N82'
_cell_volume   7107.01648456
_cell_formula_units_Z   2
loop_
 _symmetry_equiv_pos_site_id
 _symmetry_equiv_pos_as_xyz
  1  'x, y, z'
loop_
 _atom_site_type_symbol
 _atom_site_label
 _atom_site_symmetry_multiplicity
 _atom_site_fract_x
 _atom_site_fract_y
 _atom_site_fract_z
 _atom_site_occupancy
  Cu  Cu0  1  0.00352000  0.00186000  0.65722000  1
  Cu  Cu1  1  0.99994000  0.75308000  0.65825000  1
  Cu  Cu2  1  0.24957000  0.62597000  0.66090000  1
  Cu  Cu3  1  0.75378000  0.62401000  0.66017000  1
  Cu  Cu4  1  0.00879000  0.24855000  0.67439000  1
  Cu  Cu5  1  0.88699000  0.99814000  0.55597000  1
  Cu  Cu6  1  0.37669000  0.64210000  0.57152000  1
  Cu  Cu7  1  0.49648000  0.00186000  0.34278000  1
  Cu  Cu8  1  0.50006000  0.75308000  0.34175000  1
  Cu  Cu9  1  0.25043000  0.62597000  0.33910000  1
  Cu  Cu10  1  0.74622000  0.62401000  0.33984000  1
  Cu  Cu11  1  0.49122000  0.24855000  0.32561000  1
  Cu  Cu12  1  0.61302000  0.99814000  0.44403000  1
  Cu  Cu13  1  0.12331000  0.64210000  0.42848000  1
  Cu  Cu14  1  0.99648000  0.99814000  0.34278000  1
  Cu  Cu15  1  0.00006000  0.24692000  0.34175000  1
  Cu  Cu16  1  0.75043000  0.37403000  0.33910000  1
  Cu  Cu17  1  0.24622000  0.37599000  0.33984000  1
  Cu  Cu18  1  0.99122000  0.75146000  0.32561000  1
  Cu  Cu19  1  0.11302000  0.00186000  0.44403000  1
  Cu  Cu20  1  0.62331000  0.35790000  0.42848000  1
  Cu  Cu21  1  0.50352000  0.99814000  0.65723000  1
  Cu  Cu22  1  0.49994000  0.24692000  0.65825000  1
  Cu  Cu23  1  0.74957000  0.37403000  0.66090000  1
  Cu  Cu24  1  0.25378000  0.37599000  0.66017000  1
  Cu  Cu25  1  0.50878000  0.75146000  0.67439000  1
  Cu  Cu26  1  0.38699000  0.00186000  0.55597000  1
  Cu  Cu27  1  0.87669000  0.35790000  0.57152000  1
  Cu  Cu28  1  0.99367000  0.74998000  0.99735000  1
  Cu  Cu29  1  0.89313000  0.99277000  0.89023000  1
  Cu  Cu30  1  0.11187000  0.00925000  0.77400000  1
  Cu  Cu31  1  0.50633000  0.74998000  0.00265000  1
  Cu  Cu32  1  0.60687000  0.99277000  0.10977000  1
  Cu  Cu33  1  0.38813000  0.00925000  0.22600000  1
  Cu  Cu34  1  0.00633000  0.25002000  0.00265000  1
  Cu  Cu35  1  0.10687000  0.00724000  0.10977000  1
  Cu  Cu36  1  0.88813000  0.99076000  0.22600000  1
  Cu  Cu37  1  0.49367000  0.25002000  0.99735000  1
  Cu  Cu38  1  0.39313000  0.00724000  0.89023000  1
  Cu  Cu39  1  0.61187000  0.99076000  0.77400000  1
  Cu  Cu40  1  0.75000000  0.61653000  0.00000000  1
  Cu  Cu41  1  0.75000000  0.36620000  0.00000000  1
  Cu  Cu42  1  0.25000000  0.38347000  0.00000000  1
  Cu  Cu43  1  0.25000000  0.63381000  0.00000000  1
  Cu  Cu44  1  0.00000000  0.00000000  0.00000000  1
  Cu  Cu45  1  0.50000000  0.00000000  0.00000000  1
  H  H46  1  0.86840000  0.84563000  0.58108000  1
  H  H47  1  0.75744000  0.77199000  0.60163000  1
  H  H48  1  0.62777000  0.82662000  0.60966000  1
  H  H49  1  0.61456000  0.95110000  0.59721000  1
  H  H50  1  0.61573000  0.05679000  0.59385000  1
  H  H51  1  0.63339000  0.18141000  0.60145000  1
  H  H52  1  0.76423000  0.23135000  0.59078000  1
  H  H53  1  0.87342000  0.15284000  0.57394000  1
  H  H54  1  0.41742000  0.77905000  0.51113000  1
  H  H55  1  0.53810000  0.82675000  0.47910000  1
  H  H56  1  0.65531000  0.74875000  0.48019000  1
  H  H57  1  0.64652000  0.63062000  0.51581000  1
  H  H58  1  0.63174000  0.53413000  0.54546000  1
  H  H59  1  0.61035000  0.42220000  0.59179000  1
  H  H60  1  0.48544000  0.40129000  0.63378000  1
  H  H61  1  0.38626000  0.49472000  0.62699000  1
  H  H62  1  0.63161000  0.84563000  0.41893000  1
  H  H63  1  0.74256000  0.77199000  0.39837000  1
  H  H64  1  0.87223000  0.82662000  0.39034000  1
  H  H65  1  0.88545000  0.95110000  0.40279000  1
  H  H66  1  0.88428000  0.05679000  0.40615000  1
  H  H67  1  0.86661000  0.18141000  0.39855000  1
  H  H68  1  0.73577000  0.23135000  0.40922000  1
  H  H69  1  0.62659000  0.15284000  0.42606000  1
  H  H70  1  0.08258000  0.77905000  0.48887000  1
  H  H71  1  0.96190000  0.82675000  0.52090000  1
  H  H72  1  0.84469000  0.74875000  0.51981000  1
  H  H73  1  0.85348000  0.63062000  0.48419000  1
  H  H74  1  0.86826000  0.53413000  0.45454000  1
  H  H75  1  0.88965000  0.42220000  0.40821000  1
  H  H76  1  0.01456000  0.40129000  0.36622000  1
  H  H77  1  0.11375000  0.49472000  0.37301000  1
  H  H78  1  0.13161000  0.15438000  0.41893000  1
  H  H79  1  0.24256000  0.22802000  0.39837000  1
  H  H80  1  0.37223000  0.17338000  0.39034000  1
  H  H81  1  0.38545000  0.04890000  0.40279000  1
  H  H82  1  0.38428000  0.94322000  0.40615000  1
  H  H83  1  0.36661000  0.81859000  0.39855000  1
  H  H84  1  0.23578000  0.76865000  0.40922000  1
  H  H85  1  0.12659000  0.84716000  0.42606000  1
  H  H86  1  0.58258000  0.22096000  0.48887000  1
  H  H87  1  0.46190000  0.17325000  0.52090000  1
  H  H88  1  0.34469000  0.25125000  0.51982000  1
  H  H89  1  0.35348000  0.36939000  0.48419000  1
  H  H90  1  0.36826000  0.46588000  0.45454000  1
  H  H91  1  0.38965000  0.57781000  0.40821000  1
  H  H92  1  0.51456000  0.59871000  0.36622000  1
  H  H93  1  0.61374000  0.50528000  0.37301000  1
  H  H94  1  0.36840000  0.15438000  0.58108000  1
  H  H95  1  0.25744000  0.22802000  0.60163000  1
  H  H96  1  0.12777000  0.17338000  0.60966000  1
  H  H97  1  0.11456000  0.04890000  0.59721000  1
  H  H98  1  0.11573000  0.94322000  0.59385000  1
  H  H99  1  0.13339000  0.81859000  0.60145000  1
  H  H100  1  0.26423000  0.76865000  0.59078000  1
  H  H101  1  0.37342000  0.84716000  0.57394000  1
  H  H102  1  0.91742000  0.22096000  0.51113000  1
  H  H103  1  0.03810000  0.17325000  0.47910000  1
  H  H104  1  0.15531000  0.25125000  0.48018000  1
  H  H105  1  0.14653000  0.36939000  0.51581000  1
  H  H106  1  0.13174000  0.46588000  0.54546000  1
  H  H107  1  0.11035000  0.57781000  0.59179000  1
  H  H108  1  0.98544000  0.59871000  0.63378000  1
  H  H109  1  0.88626000  0.50528000  0.62699000  1
  H  H110  1  0.87299000  0.14877000  0.90148000  1
  H  H111  1  0.76224000  0.22527000  0.91677000  1
  H  H112  1  0.63417000  0.17313000  0.93335000  1
  H  H113  1  0.62189000  0.04815000  0.93249000  1
  H  H114  1  0.62076000  0.94384000  0.93277000  1
  H  H115  1  0.62965000  0.81875000  0.93497000  1
  H  H116  1  0.75676000  0.76355000  0.92005000  1
  H  H117  1  0.86915000  0.83716000  0.90341000  1
  H  H118  1  0.13274000  0.85380000  0.76437000  1
  H  H119  1  0.24444000  0.77774000  0.75069000  1
  H  H120  1  0.37190000  0.83070000  0.73264000  1
  H  H121  1  0.38249000  0.95534000  0.73111000  1
  H  H122  1  0.38483000  0.05964000  0.73488000  1
  H  H123  1  0.37845000  0.18461000  0.73986000  1
  H  H124  1  0.25198000  0.23948000  0.75754000  1
  H  H125  1  0.13764000  0.16566000  0.76827000  1
  H  H126  1  0.62702000  0.14877000  0.09852000  1
  H  H127  1  0.73777000  0.22527000  0.08323000  1
  H  H128  1  0.86583000  0.17313000  0.06665000  1
  H  H129  1  0.87811000  0.04815000  0.06751000  1
  H  H130  1  0.87925000  0.94384000  0.06723000  1
  H  H131  1  0.87035000  0.81875000  0.06503000  1
  H  H132  1  0.74325000  0.76355000  0.07995000  1
  H  H133  1  0.63085000  0.83716000  0.09659000  1
  H  H134  1  0.36726000  0.85380000  0.23563000  1
  H  H135  1  0.25557000  0.77774000  0.24931000  1
  H  H136  1  0.12810000  0.83070000  0.26736000  1
  H  H137  1  0.11751000  0.95534000  0.26889000  1
  H  H138  1  0.11517000  0.05964000  0.26512000  1
  H  H139  1  0.12156000  0.18461000  0.26014000  1
  H  H140  1  0.24802000  0.23948000  0.24246000  1
  H  H141  1  0.36236000  0.16566000  0.23173000  1
  H  H142  1  0.12702000  0.85123000  0.09852000  1
  H  H143  1  0.23777000  0.77473000  0.08323000  1
  H  H144  1  0.36583000  0.82688000  0.06665000  1
  H  H145  1  0.37811000  0.95185000  0.06751000  1
  H  H146  1  0.37925000  0.05617000  0.06723000  1
  H  H147  1  0.37035000  0.18126000  0.06503000  1
  H  H148  1  0.24325000  0.23645000  0.07995000  1
  H  H149  1  0.13085000  0.16284000  0.09659000  1
  H  H150  1  0.86726000  0.14621000  0.23563000  1
  H  H151  1  0.75557000  0.22227000  0.24931000  1
  H  H152  1  0.62810000  0.16930000  0.26736000  1
  H  H153  1  0.61751000  0.04467000  0.26889000  1
  H  H154  1  0.61517000  0.94037000  0.26512000  1
  H  H155  1  0.62156000  0.81540000  0.26014000  1
  H  H156  1  0.74802000  0.76052000  0.24246000  1
  H  H157  1  0.86236000  0.83434000  0.23173000  1
  H  H158  1  0.37299000  0.85123000  0.90148000  1
  H  H159  1  0.26224000  0.77473000  0.91677000  1
  H  H160  1  0.13417000  0.82688000  0.93335000  1
  H  H161  1  0.12189000  0.95185000  0.93249000  1
  H  H162  1  0.12076000  0.05617000  0.93277000  1
  H  H163  1  0.12965000  0.18126000  0.93497000  1
  H  H164  1  0.25676000  0.23645000  0.92005000  1
  H  H165  1  0.36915000  0.16284000  0.90341000  1
  H  H166  1  0.63274000  0.14621000  0.76437000  1
  H  H167  1  0.74443000  0.22227000  0.75069000  1
  H  H168  1  0.87190000  0.16930000  0.73264000  1
  H  H169  1  0.88249000  0.04467000  0.73111000  1
  H  H170  1  0.88483000  0.94037000  0.73488000  1
  H  H171  1  0.87845000  0.81540000  0.73986000  1
  H  H172  1  0.75198000  0.76052000  0.75754000  1
  H  H173  1  0.63764000  0.83434000  0.76827000  1
  C  C174  1  0.00532000  0.15337000  0.67069000  1
  C  C175  1  0.00611000  0.90951000  0.66268000  1
  C  C176  1  0.90575000  0.70582000  0.65734000  1
  C  C177  1  0.16010000  0.68190000  0.65741000  1
  C  C178  1  0.25578000  0.53084000  0.65658000  1
  C  C179  1  0.10506000  0.29655000  0.67610000  1
  C  C180  1  0.91233000  0.29695000  0.67060000  1
  C  C181  1  0.97288000  0.99917000  0.51641000  1
  C  C182  1  0.81067000  0.86661000  0.58335000  1
  C  C183  1  0.74859000  0.82606000  0.59457000  1
  C  C184  1  0.67705000  0.85667000  0.59966000  1
  C  C185  1  0.67013000  0.92652000  0.59387000  1
  C  C186  1  0.73539000  0.96445000  0.58402000  1
  C  C187  1  0.73655000  0.03892000  0.58247000  1
  C  C188  1  0.67224000  0.07934000  0.58997000  1
  C  C189  1  0.68150000  0.14917000  0.59271000  1
  C  C190  1  0.75415000  0.17720000  0.58667000  1
  C  C191  1  0.81506000  0.13412000  0.57765000  1
  C  C192  1  0.46981000  0.74811000  0.51235000  1
  C  C193  1  0.53699000  0.77402000  0.49342000  1
  C  C194  1  0.60146000  0.73089000  0.49450000  1
  C  C195  1  0.59665000  0.66451000  0.51457000  1
  C  C196  1  0.52790000  0.64219000  0.53457000  1
  C  C197  1  0.51966000  0.57402000  0.56075000  1
  C  C198  1  0.57755000  0.52423000  0.56313000  1
  C  C199  1  0.56560000  0.46138000  0.58906000  1
  C  C200  1  0.49653000  0.44964000  0.61273000  1
  C  C201  1  0.44104000  0.50142000  0.60905000  1
  C  C202  1  0.49468000  0.15337000  0.32932000  1
  C  C203  1  0.49389000  0.90951000  0.33732000  1
  C  C204  1  0.59426000  0.70582000  0.34266000  1
  C  C205  1  0.33990000  0.68190000  0.34259000  1
  C  C206  1  0.24422000  0.53084000  0.34342000  1
  C  C207  1  0.39494000  0.29655000  0.32390000  1
  C  C208  1  0.58768000  0.29695000  0.32940000  1
  C  C209  1  0.52712000  0.99917000  0.48359000  1
  C  C210  1  0.68933000  0.86661000  0.41665000  1
  C  C211  1  0.75141000  0.82606000  0.40543000  1
  C  C212  1  0.82296000  0.85667000  0.40034000  1
  C  C213  1  0.82987000  0.92652000  0.40613000  1
  C  C214  1  0.76461000  0.96445000  0.41598000  1
  C  C215  1  0.76345000  0.03892000  0.41753000  1
  C  C216  1  0.82776000  0.07934000  0.41003000  1
  C  C217  1  0.81850000  0.14917000  0.40729000  1
  C  C218  1  0.74585000  0.17720000  0.41333000  1
  C  C219  1  0.68494000  0.13412000  0.42235000  1
  C  C220  1  0.03020000  0.74811000  0.48765000  1
  C  C221  1  0.96302000  0.77402000  0.50658000  1
  C  C222  1  0.89854000  0.73089000  0.50550000  1
  C  C223  1  0.90335000  0.66451000  0.48543000  1
  C  C224  1  0.97210000  0.64219000  0.46543000  1
  C  C225  1  0.98034000  0.57402000  0.43925000  1
  C  C226  1  0.92245000  0.52423000  0.43687000  1
  C  C227  1  0.93440000  0.46138000  0.41094000  1
  C  C228  1  0.00347000  0.44964000  0.38727000  1
  C  C229  1  0.05897000  0.50142000  0.39095000  1
  C  C230  1  0.99468000  0.84663000  0.32932000  1
  C  C231  1  0.99389000  0.09049000  0.33732000  1
  C  C232  1  0.09426000  0.29418000  0.34266000  1
  C  C233  1  0.83990000  0.31810000  0.34259000  1
  C  C234  1  0.74422000  0.46916000  0.34342000  1
  C  C235  1  0.89494000  0.70345000  0.32390000  1
  C  C236  1  0.08768000  0.70306000  0.32940000  1
  C  C237  1  0.02712000  0.00083000  0.48359000  1
  C  C238  1  0.18933000  0.13339000  0.41665000  1
  C  C239  1  0.25141000  0.17394000  0.40543000  1
  C  C240  1  0.32296000  0.14333000  0.40034000  1
  C  C241  1  0.32987000  0.07348000  0.40613000  1
  C  C242  1  0.26461000  0.03556000  0.41598000  1
  C  C243  1  0.26345000  0.96108000  0.41753000  1
  C  C244  1  0.32776000  0.92066000  0.41003000  1
  C  C245  1  0.31850000  0.85083000  0.40729000  1
  C  C246  1  0.24585000  0.82281000  0.41333000  1
  C  C247  1  0.18494000  0.86588000  0.42235000  1
  C  C248  1  0.53019000  0.25189000  0.48765000  1
  C  C249  1  0.46301000  0.22598000  0.50658000  1
  C  C250  1  0.39854000  0.26911000  0.50550000  1
  C  C251  1  0.40335000  0.33549000  0.48543000  1
  C  C252  1  0.47210000  0.35781000  0.46543000  1
  C  C253  1  0.48034000  0.42599000  0.43925000  1
  C  C254  1  0.42245000  0.47577000  0.43687000  1
  C  C255  1  0.43440000  0.53862000  0.41094000  1
  C  C256  1  0.50347000  0.55036000  0.38727000  1
  C  C257  1  0.55896000  0.49858000  0.39095000  1
  C  C258  1  0.50532000  0.84663000  0.67068000  1
  C  C259  1  0.50611000  0.09049000  0.66268000  1
  C  C260  1  0.40575000  0.29418000  0.65734000  1
  C  C261  1  0.66010000  0.31810000  0.65742000  1
  C  C262  1  0.75578000  0.46916000  0.65658000  1
  C  C263  1  0.60506000  0.70345000  0.67610000  1
  C  C264  1  0.41233000  0.70306000  0.67060000  1
  C  C265  1  0.47288000  0.00083000  0.51641000  1
  C  C266  1  0.31067000  0.13339000  0.58335000  1
  C  C267  1  0.24859000  0.17394000  0.59457000  1
  C  C268  1  0.17705000  0.14333000  0.59966000  1
  C  C269  1  0.17013000  0.07348000  0.59387000  1
  C  C270  1  0.23539000  0.03556000  0.58402000  1
  C  C271  1  0.23655000  0.96108000  0.58247000  1
  C  C272  1  0.17224000  0.92066000  0.58997000  1
  C  C273  1  0.18150000  0.85083000  0.59271000  1
  C  C274  1  0.25415000  0.82281000  0.58667000  1
  C  C275  1  0.31506000  0.86588000  0.57765000  1
  C  C276  1  0.96981000  0.25189000  0.51235000  1
  C  C277  1  0.03699000  0.22598000  0.49342000  1
  C  C278  1  0.10147000  0.26911000  0.49450000  1
  C  C279  1  0.09665000  0.33549000  0.51457000  1
  C  C280  1  0.02790000  0.35781000  0.53457000  1
  C  C281  1  0.01967000  0.42599000  0.56075000  1
  C  C282  1  0.07755000  0.47577000  0.56313000  1
  C  C283  1  0.06561000  0.53862000  0.58906000  1
  C  C284  1  0.99654000  0.55036000  0.61273000  1
  C  C285  1  0.94104000  0.49858000  0.60905000  1
  C  C286  1  0.89885000  0.70452000  0.99952000  1
  C  C287  1  0.99863000  0.90688000  0.99878000  1
  C  C288  1  0.15484000  0.68343000  0.99567000  1
  C  C289  1  0.97695000  0.99857000  0.84771000  1
  C  C290  1  0.81627000  0.12856000  0.90803000  1
  C  C291  1  0.75428000  0.17079000  0.91642000  1
  C  C292  1  0.68341000  0.14164000  0.92557000  1
  C  C293  1  0.67691000  0.07151000  0.92574000  1
  C  C294  1  0.74160000  0.03196000  0.91724000  1
  C  C295  1  0.74077000  0.95721000  0.91739000  1
  C  C296  1  0.67509000  0.91918000  0.92621000  1
  C  C297  1  0.67976000  0.84896000  0.92686000  1
  C  C298  1  0.74996000  0.81815000  0.91846000  1
  C  C299  1  0.81297000  0.85890000  0.90944000  1
  C  C300  1  0.18925000  0.87426000  0.75762000  1
  C  C301  1  0.25172000  0.83227000  0.74986000  1
  C  C302  1  0.32207000  0.86175000  0.73992000  1
  C  C303  1  0.32785000  0.93191000  0.73869000  1
  C  C304  1  0.26430000  0.04596000  0.74902000  1
  C  C305  1  0.26311000  0.97122000  0.74753000  1
  C  C306  1  0.33081000  0.08411000  0.74250000  1
  C  C307  1  0.32746000  0.15433000  0.74578000  1
  C  C308  1  0.25768000  0.18488000  0.75552000  1
  C  C309  1  0.19354000  0.14394000  0.76145000  1
  C  C310  1  0.60116000  0.70452000  0.00048000  1
  C  C311  1  0.50137000  0.90688000  0.00122000  1
  C  C312  1  0.34516000  0.68343000  0.00433000  1
  C  C313  1  0.52305000  0.99857000  0.15229000  1
  C  C314  1  0.68373000  0.12856000  0.09198000  1
  C  C315  1  0.74572000  0.17079000  0.08358000  1
  C  C316  1  0.81659000  0.14164000  0.07443000  1
  C  C317  1  0.82309000  0.07151000  0.07426000  1
  C  C318  1  0.75840000  0.03196000  0.08276000  1
  C  C319  1  0.75923000  0.95721000  0.08261000  1
  C  C320  1  0.82491000  0.91918000  0.07379000  1
  C  C321  1  0.82024000  0.84896000  0.07314000  1
  C  C322  1  0.75004000  0.81815000  0.08154000  1
  C  C323  1  0.68703000  0.85890000  0.09056000  1
  C  C324  1  0.31075000  0.87426000  0.24238000  1
  C  C325  1  0.24828000  0.83227000  0.25015000  1
  C  C326  1  0.17793000  0.86175000  0.26008000  1
  C  C327  1  0.17215000  0.93191000  0.26131000  1
  C  C328  1  0.23570000  0.04596000  0.25098000  1
  C  C329  1  0.23689000  0.97122000  0.25247000  1
  C  C330  1  0.16919000  0.08411000  0.25750000  1
  C  C331  1  0.17255000  0.15433000  0.25422000  1
  C  C332  1  0.24232000  0.18488000  0.24448000  1
  C  C333  1  0.30646000  0.14394000  0.23855000  1
  C  C334  1  0.10116000  0.29548000  0.00048000  1
  C  C335  1  0.00137000  0.09312000  0.00122000  1
  C  C336  1  0.84516000  0.31658000  0.00433000  1
  C  C337  1  0.02305000  0.00144000  0.15229000  1
  C  C338  1  0.18373000  0.87144000  0.09198000  1
  C  C339  1  0.24572000  0.82921000  0.08358000  1
  C  C340  1  0.31659000  0.85837000  0.07443000  1
  C  C341  1  0.32309000  0.92849000  0.07426000  1
  C  C342  1  0.25840000  0.96804000  0.08276000  1
  C  C343  1  0.25923000  0.04279000  0.08261000  1
  C  C344  1  0.32491000  0.08082000  0.07379000  1
  C  C345  1  0.32024000  0.15105000  0.07314000  1
  C  C346  1  0.25004000  0.18186000  0.08154000  1
  C  C347  1  0.18703000  0.14110000  0.09056000  1
  C  C348  1  0.81075000  0.12574000  0.24238000  1
  C  C349  1  0.74828000  0.16773000  0.25015000  1
  C  C350  1  0.67793000  0.13825000  0.26008000  1
  C  C351  1  0.67215000  0.06809000  0.26131000  1
  C  C352  1  0.73570000  0.95405000  0.25098000  1
  C  C353  1  0.73689000  0.02878000  0.25247000  1
  C  C354  1  0.66919000  0.91589000  0.25750000  1
  C  C355  1  0.67255000  0.84568000  0.25422000  1
  C  C356  1  0.74232000  0.81512000  0.24448000  1
  C  C357  1  0.80646000  0.85606000  0.23855000  1
  C  C358  1  0.39884000  0.29548000  0.99952000  1
  C  C359  1  0.49863000  0.09312000  0.99878000  1
  C  C360  1  0.65484000  0.31658000  0.99567000  1
  C  C361  1  0.47695000  0.00144000  0.84771000  1
  C  C362  1  0.31627000  0.87144000  0.90803000  1
  C  C363  1  0.25428000  0.82922000  0.91642000  1
  C  C364  1  0.18341000  0.85837000  0.92557000  1
  C  C365  1  0.17691000  0.92849000  0.92574000  1
  C  C366  1  0.24160000  0.96804000  0.91724000  1
  C  C367  1  0.24077000  0.04279000  0.91739000  1
  C  C368  1  0.17509000  0.08082000  0.92621000  1
  C  C369  1  0.17976000  0.15105000  0.92686000  1
  C  C370  1  0.24996000  0.18186000  0.91846000  1
  C  C371  1  0.31297000  0.14110000  0.90944000  1
  C  C372  1  0.68925000  0.12574000  0.75762000  1
  C  C373  1  0.75172000  0.16773000  0.74986000  1
  C  C374  1  0.82207000  0.13825000  0.73992000  1
  C  C375  1  0.82785000  0.06809000  0.73869000  1
  C  C376  1  0.76430000  0.95405000  0.74902000  1
  C  C377  1  0.76311000  0.02878000  0.74753000  1
  C  C378  1  0.83081000  0.91589000  0.74250000  1
  C  C379  1  0.82746000  0.84568000  0.74578000  1
  C  C380  1  0.75768000  0.81512000  0.75552000  1
  C  C381  1  0.69354000  0.85606000  0.76145000  1
  C  C382  1  0.75000000  0.52177000  0.00000000  1
  C  C383  1  0.25000000  0.47823000  0.00000000  1
  N  N384  1  0.80668000  0.06662000  0.57555000  1
  N  N385  1  0.80446000  0.93416000  0.57794000  1
  N  N386  1  0.46513000  0.68410000  0.53272000  1
  N  N387  1  0.45192000  0.56215000  0.58336000  1
  N  N388  1  0.00412000  0.09402000  0.66615000  1
  N  N389  1  0.00668000  0.85006000  0.66353000  1
  N  N390  1  0.10113000  0.71283000  0.65534000  1
  N  N391  1  0.85149000  0.32624000  0.66733000  1
  N  N392  1  0.25630000  0.47141000  0.65326000  1
  N  N393  1  0.84628000  0.67535000  0.65447000  1
  N  N394  1  0.16332000  0.32644000  0.67277000  1
  N  N395  1  0.27705000  0.64090000  0.52023000  1
  N  N396  1  0.69332000  0.06662000  0.42445000  1
  N  N397  1  0.69554000  0.93416000  0.42207000  1
  N  N398  1  0.03487000  0.68410000  0.46728000  1
  N  N399  1  0.04808000  0.56215000  0.41664000  1
  N  N400  1  0.49589000  0.09402000  0.33386000  1
  N  N401  1  0.49332000  0.85006000  0.33647000  1
  N  N402  1  0.39887000  0.71283000  0.34466000  1
  N  N403  1  0.64852000  0.32624000  0.33268000  1
  N  N404  1  0.24370000  0.47141000  0.34674000  1
  N  N405  1  0.65372000  0.67535000  0.34553000  1
  N  N406  1  0.33668000  0.32644000  0.32723000  1
  N  N407  1  0.22295000  0.64090000  0.47977000  1
  N  N408  1  0.19332000  0.93338000  0.42445000  1
  N  N409  1  0.19554000  0.06585000  0.42207000  1
  N  N410  1  0.53487000  0.31590000  0.46728000  1
  N  N411  1  0.54808000  0.43786000  0.41664000  1
  N  N412  1  0.99589000  0.90598000  0.33386000  1
  N  N413  1  0.99332000  0.14994000  0.33647000  1
  N  N414  1  0.89887000  0.28718000  0.34466000  1
  N  N415  1  0.14852000  0.67377000  0.33267000  1
  N  N416  1  0.74370000  0.52859000  0.34674000  1
  N  N417  1  0.15372000  0.32466000  0.34553000  1
  N  N418  1  0.83668000  0.67356000  0.32723000  1
  N  N419  1  0.72296000  0.35911000  0.47977000  1
  N  N420  1  0.30668000  0.93338000  0.57555000  1
  N  N421  1  0.30446000  0.06585000  0.57794000  1
  N  N422  1  0.96513000  0.31590000  0.53272000  1
  N  N423  1  0.95193000  0.43786000  0.58336000  1
  N  N424  1  0.50412000  0.90598000  0.66615000  1
  N  N425  1  0.50668000  0.14994000  0.66353000  1
  N  N426  1  0.60113000  0.28718000  0.65534000  1
  N  N427  1  0.35148000  0.67377000  0.66733000  1
  N  N428  1  0.75630000  0.52859000  0.65326000  1
  N  N429  1  0.34628000  0.32466000  0.65447000  1
  N  N430  1  0.66333000  0.67356000  0.67277000  1
  N  N431  1  0.77704000  0.35911000  0.52023000  1
  N  N432  1  0.81044000  0.06078000  0.90841000  1
  N  N433  1  0.80890000  0.92682000  0.90867000  1
  N  N434  1  0.19450000  0.94206000  0.75655000  1
  N  N435  1  0.19632000  0.07609000  0.75858000  1
  N  N436  1  0.84031000  0.67402000  0.00052000  1
  N  N437  1  0.99834000  0.84751000  0.99833000  1
  N  N438  1  0.09656000  0.71495000  0.99462000  1
  N  N439  1  0.02839000  0.00425000  0.81801000  1
  N  N440  1  0.68956000  0.06078000  0.09159000  1
  N  N441  1  0.69110000  0.92682000  0.09133000  1
  N  N442  1  0.30550000  0.94206000  0.24345000  1
  N  N443  1  0.30368000  0.07609000  0.24143000  1
  N  N444  1  0.65969000  0.67402000  0.99948000  1
  N  N445  1  0.50166000  0.84751000  0.00167000  1
  N  N446  1  0.40345000  0.71495000  0.00538000  1
  N  N447  1  0.47161000  0.00425000  0.18199000  1
  N  N448  1  0.18956000  0.93922000  0.09159000  1
  N  N449  1  0.19110000  0.07318000  0.09133000  1
  N  N450  1  0.80550000  0.05795000  0.24345000  1
  N  N451  1  0.80368000  0.92391000  0.24143000  1
  N  N452  1  0.15969000  0.32598000  0.99948000  1
  N  N453  1  0.00166000  0.15249000  0.00167000  1
  N  N454  1  0.90345000  0.28505000  0.00539000  1
  N  N455  1  0.97161000  0.99576000  0.18199000  1
  N  N456  1  0.31044000  0.93922000  0.90841000  1
  N  N457  1  0.30890000  0.07318000  0.90867000  1
  N  N458  1  0.69450000  0.05795000  0.75655000  1
  N  N459  1  0.69632000  0.92391000  0.75858000  1
  N  N460  1  0.34031000  0.32598000  0.00052000  1
  N  N461  1  0.49834000  0.15249000  0.99833000  1
  N  N462  1  0.59656000  0.28505000  0.99462000  1
  N  N463  1  0.52839000  0.99576000  0.81801000  1
  N  N464  1  0.75000000  0.46226000  0.00000000  1
  N  N465  1  0.25000000  0.53774000  0.00000000  1
