# generated using pymatgen
data_H4C5NO
_symmetry_space_group_name_H-M   'P 1'
_cell_length_a   14.25370000
_cell_length_b   26.68507500
_cell_length_c   26.68510000
_cell_angle_alpha   120.00009297
_cell_angle_beta   90.00000000
_cell_angle_gamma   90.00000000
_symmetry_Int_Tables_number   1
_chemical_formula_structural   H4C5NO
_chemical_formula_sum   'H96 C120 N24 O24'
_cell_volume   8790.12601371
_cell_formula_units_Z   24
loop_
 _symmetry_equiv_pos_site_id
 _symmetry_equiv_pos_as_xyz
  1  'x, y, z'
loop_
 _atom_site_type_symbol
 _atom_site_label
 _atom_site_symmetry_multiplicity
 _atom_site_fract_x
 _atom_site_fract_y
 _atom_site_fract_z
 _atom_site_occupancy
  C  1  1  0.65934000  0.55189800  0.46127500  1
  C  2  1  0.75017300  0.53654550  0.48340150  1
  C  3  1  0.67000200  0.52356450  0.39397150  1
  C  4  1  0.75900000  0.54612650  0.37621250  1
  C  7  1  0.84742900  0.53102700  0.40143400  1
  C  8  1  0.84208400  0.55868200  0.46902800  1
  C  13  1  0.83495500  0.62612050  0.49753950  1
  C  14  1  0.74627200  0.64419050  0.47520250  1
  C  17  1  0.75361100  0.61416300  0.40750100  1
  C  20  1  0.65723000  0.61970650  0.49061050  1
  C  23  1  0.65912200  0.93622100  0.46973200  1
  C  24  1  0.74993900  0.97371750  0.48510550  1
  C  25  1  0.66962300  0.89742450  0.49826750  1
  C  26  1  0.75866700  0.85712350  0.47591850  1
  C  29  1  0.84708000  0.89744650  0.49101350  1
  C  30  1  0.84188000  0.93721950  0.46318150  1
  C  35  1  0.83498400  0.89812750  0.39576250  1
  C  36  1  0.74632800  0.85770550  0.37767850  1
  C  39  1  0.75344800  0.82017150  0.40787550  1
  C  42  1  0.65723500  0.89758050  0.40193950  1
  C  45  1  0.65907900  0.56054100  0.08529200  1
  C  46  1  0.74987800  0.53833400  0.04778800  1
  C  47  1  0.66949000  0.62790400  0.12388800  1
  C  48  1  0.75858900  0.64603750  0.16415650  1
  C  51  1  0.84695900  0.62072000  0.12380500  1
  C  52  1  0.84185200  0.55307850  0.08427450  1
  C  57  1  0.83507800  0.52498050  0.12358450  1
  C  58  1  0.74645400  0.54741900  0.16402000  1
  C  61  1  0.75357400  0.61516050  0.20131550  1
  C  64  1  0.65730600  0.53164150  0.12415950  1
  C  67  1  0.15933500  0.48034650  0.54950850  1
  C  68  1  0.25016800  0.49573150  0.52740750  1
  C  69  1  0.16998500  0.50864250  0.61680850  1
  C  70  1  0.25898700  0.48605900  0.63454100  1
  C  73  1  0.34742000  0.50119100  0.60935300  1
  C  74  1  0.34208400  0.47358550  0.54176650  1
  C  79  1  0.33498100  0.40614600  0.51320200  1
  C  80  1  0.24631600  0.38803950  0.53551450  1
  C  83  1  0.25362000  0.41801075  0.60320875  1
  C  86  1  0.15724500  0.41253300  0.52013900  1
  C  89  1  0.15913200  0.09600350  0.54093150  1
  C  90  1  0.24993300  0.05850250  0.52561550  1
  C  91  1  0.16964100  0.13471850  0.51230750  1
  C  92  1  0.25869200  0.17502050  0.53460250  1
  C  95  1  0.34707700  0.13468000  0.51955900  1
  C  96  1  0.34187800  0.09500000  0.54749400  1
  C  101  1  0.33499000  0.13418250  0.61490250  1
  C  102  1  0.24634700  0.17460850  0.63292650  1
  C  105  1  0.25347900  0.21206300  0.60264200  1
  C  108  1  0.15724500  0.13473300  0.60871100  1
  C  111  1  0.15907300  0.47170300  0.92545200  1
  C  112  1  0.24988000  0.49388200  0.96295100  1
  C  113  1  0.16946600  0.40434200  0.88682500  1
  C  114  1  0.25856300  0.38620800  0.84655300  1
  C  117  1  0.34693600  0.41150250  0.88690850  1
  C  118  1  0.34184900  0.47914200  0.92646300  1
  C  123  1  0.33508000  0.50726350  0.88716950  1
  C  124  1  0.24643900  0.48485800  0.84674600  1
  C  127  1  0.25356300  0.41711700  0.80943000  1
  C  130  1  0.15731500  0.50064550  0.88662350  1
  C  133  1  0.07382800  0.50283650  0.53353850  1
  C  135  1  0.01833100  0.55195600  0.48353300  1
  C  136  1  0.92465200  0.54194400  0.49234200  1
  C  138  1  0.97913800  0.49543250  0.54512750  1
  C  140  1  0.94830300  0.46951450  0.57550450  1
  C  144  1  0.07358200  0.05755550  0.51870550  1
  C  146  1  0.01810200  0.95844250  0.46999350  1
  C  147  1  0.92442900  0.97726850  0.47990350  1
  C  149  1  0.97890000  0.07656500  0.52611000  1
  C  151  1  0.94821200  0.13298150  0.55191550  1
  C  155  1  0.07352600  0.48804800  0.96391500  1
  C  157  1  0.01805300  0.53857850  0.06303450  1
  C  158  1  0.92438000  0.52966700  0.04421200  1
  C  160  1  0.97883600  0.47642300  0.94493400  1
  C  162  1  0.94800200  0.44586450  0.88865050  1
  C  166  1  0.57383200  0.52942250  0.47725650  1
  C  168  1  0.51833200  0.48034000  0.52729600  1
  C  169  1  0.42465600  0.49034550  0.51847750  1
  C  171  1  0.47914200  0.53682050  0.46566050  1
  C  173  1  0.44830500  0.56270650  0.43525550  1
  C  177  1  0.57357900  0.97466750  0.49198650  1
  C  179  1  0.51809800  0.07377800  0.54072900  1
  C  180  1  0.42442500  0.05495400  0.53082100  1
  C  182  1  0.47889600  0.95565550  0.48461450  1
  C  184  1  0.44821300  0.89923750  0.45876250  1
  C  188  1  0.57353000  0.54418800  0.04682700  1
  C  190  1  0.51805600  0.49362500  0.94770500  1
  C  191  1  0.42437800  0.50253450  0.96652550  1
  C  193  1  0.47883800  0.55578350  0.06580450  1
  C  195  1  0.44801200  0.58640650  0.12208750  1
  C  199  1  0.75758200  0.52435150  0.31155850  1
  C  201  1  0.66350600  0.53513700  0.24204500  1
  C  202  1  0.74164900  0.52475050  0.20569550  1
  C  204  1  0.83339300  0.50600350  0.27137950  1
  C  206  1  0.91975000  0.48799550  0.27917850  1
  C  210  1  0.75718700  0.81455350  0.49805850  1
  C  212  1  0.66284000  0.73450650  0.48792850  1
  C  213  1  0.74120600  0.70859650  0.49820250  1
  C  215  1  0.83285100  0.79296750  0.51678350  1
  C  217  1  0.91934200  0.81875850  0.53455650  1
  C  221  1  0.75707400  0.71079700  0.20654000  1
  C  223  1  0.66322700  0.78026900  0.28719400  1
  C  224  1  0.74166800  0.81631500  0.31327200  1
  C  226  1  0.83302700  0.75085950  0.22859850  1
  C  228  1  0.91931500  0.74316300  0.20276600  1
  C  232  1  0.25755900  0.50781350  0.69918850  1
  C  234  1  0.16357300  0.49694950  0.76868150  1
  C  235  1  0.24175600  0.50753750  0.80506450  1
  C  237  1  0.33323300  0.52652300  0.73948900  1
  C  239  1  0.41952200  0.54463550  0.73161350  1
  C  243  1  0.25728200  0.21748350  0.51231050  1
  C  245  1  0.16298400  0.29753900  0.52249600  1
  C  246  1  0.24133500  0.32363150  0.51242550  1
  C  248  1  0.33313000  0.23928750  0.49397250  1
  C  250  1  0.41975800  0.21380300  0.47643200  1
  C  254  1  0.25701900  0.32145800  0.80412300  1
  C  256  1  0.16309600  0.25207750  0.72344450  1
  C  257  1  0.24153200  0.21608150  0.69731850  1
  C  259  1  0.33300900  0.28142250  0.78194750  1
  C  261  1  0.41932400  0.28908750  0.80774150  1
  H  5  1  0.60722600  0.53306000  0.37694500  1
  H  6  1  0.67368100  0.47637750  0.37390650  1
  H  9  1  0.85449000  0.48397900  0.38103200  1
  H  10  1  0.91039800  0.54751100  0.39124500  1
  H  11  1  0.75450700  0.48936600  0.46418200  1
  H  12  1  0.74500300  0.55539400  0.53050900  1
  H  15  1  0.89868700  0.64227400  0.48746600  1
  H  16  1  0.83157500  0.64618250  0.54473750  1
  H  18  1  0.81562000  0.63049250  0.39581450  1
  H  19  1  0.69255300  0.62703200  0.39160700  1
  H  21  1  0.65163600  0.63938400  0.53768500  1
  H  22  1  0.59449300  0.63209600  0.47634100  1
  H  27  1  0.60686200  0.87088550  0.48877050  1
  H  28  1  0.67314700  0.92467150  0.54544550  1
  H  31  1  0.85403100  0.92419550  0.53805950  1
  H  32  1  0.91007300  0.87077650  0.47464050  1
  H  33  1  0.75411500  0.00179250  0.53227850  1
  H  34  1  0.74489500  0.00185800  0.46611700  1
  H  37  1  0.89873600  0.87189550  0.37974850  1
  H  38  1  0.83174300  0.92515150  0.37557250  1
  H  40  1  0.81546000  0.79214700  0.39168300  1
  H  41  1  0.69237700  0.79142200  0.39501700  1
  H  43  1  0.65174900  0.92486350  0.38212850  1
  H  44  1  0.59452200  0.87089350  0.38953450  1
  H  49  1  0.60674900  0.64498300  0.15043900  1
  H  50  1  0.67289300  0.64768100  0.09649900  1
  H  53  1  0.85373900  0.64082050  0.09686950  1
  H  54  1  0.91001700  0.63116500  0.15043700  1
  H  55  1  0.75397300  0.55726500  0.01956400  1
  H  56  1  0.74488700  0.49118250  0.01979750  1
  H  59  1  0.89884800  0.53531900  0.14981600  1
  H  60  1  0.83187100  0.47775000  0.09671700  1
  H  62  1  0.81564400  0.62710600  0.22930100  1
  H  63  1  0.69256000  0.63112700  0.23010800  1
  H  65  1  0.65183400  0.48453100  0.09703800  1
  H  66  1  0.59461800  0.54601000  0.15086300  1
  H  71  1  0.10721600  0.49912600  0.63382300  1
  H  72  1  0.17366100  0.55583100  0.63690100  1
  H  75  1  0.35448500  0.54824350  0.62978950  1
  H  76  1  0.41038100  0.48469350  0.61953850  1
  H  77  1  0.25449700  0.54291650  0.54665650  1
  H  78  1  0.24500700  0.47691050  0.48030550  1
  H  81  1  0.39872100  0.38998450  0.52325650  1
  H  82  1  0.33160000  0.38611900  0.46600900  1
  H  84  1  0.31563200  0.40167950  0.61488850  1
  H  85  1  0.19256200  0.40509800  0.61905600  1
  H  87  1  0.15162900  0.39287950  0.47306850  1
  H  88  1  0.09453100  0.40012550  0.53441550  1
  H  93  1  0.10687500  0.16124550  0.52176850  1
  H  94  1  0.17315900  0.10741200  0.46513500  1
  H  97  1  0.35399300  0.10785100  0.47251800  1
  H  98  1  0.41009900  0.16132800  0.53587800  1
  H  99  1  0.25411100  0.03036950  0.47845150  1
  H  100  1  0.24487800  0.03042100  0.54467000  1
  H  103  1  0.39874800  0.16041400  0.63087600  1
  H  104  1  0.33174000  0.10722400  0.63516400  1
  H  106  1  0.31549800  0.24008000  0.61879600  1
  H  107  1  0.19241400  0.24081600  0.61546100  1
  H  109  1  0.15173700  0.10751450  0.62859150  1
  H  110  1  0.09454900  0.16143200  0.62107900  1
  H  115  1  0.10671800  0.38728150  0.86027550  1
  H  116  1  0.17285500  0.38454050  0.91419350  1
  H  119  1  0.35370800  0.39137800  0.91382200  1
  H  120  1  0.40999500  0.40106650  0.86027850  1
  H  121  1  0.25396300  0.47492850  0.99115650  1
  H  122  1  0.24489900  0.54103150  0.99096150  1
  H  125  1  0.39883900  0.49692550  0.86092950  1
  H  126  1  0.33189600  0.55449250  0.91405350  1
  H  128  1  0.31563800  0.40518100  0.78144500  1
  H  129  1  0.19255500  0.40115500  0.78063700  1
  H  131  1  0.15189200  0.54775700  0.91376900  1
  H  132  1  0.09460100  0.48632150  0.85994250  1
  H  139  1  0.03607600  0.57224100  0.46102500  1
  H  143  1  0.88019300  0.40348200  0.56224300  1
  H  150  1  0.03584500  0.91565050  0.44976250  1
  H  154  1  0.87896000  0.18480350  0.61763250  1
  H  161  1  0.03580700  0.56132250  0.10581750  1
  H  165  1  0.88017500  0.45892250  0.83564950  1
  H  172  1  0.53607900  0.46006500  0.54981200  1
  H  176  1  0.38016900  0.62871750  0.44847250  1
  H  183  1  0.53584000  0.11656950  0.56095250  1
  H  187  1  0.37897700  0.84744800  0.39302100  1
  H  194  1  0.53580700  0.47088100  0.90492200  1
  H  198  1  0.38015700  0.57344500  0.17514300  1
  H  205  1  0.60135500  0.55055050  0.23638150  1
  H  209  1  0.97827500  0.41955750  0.26681850  1
  H  216  1  0.60110900  0.71312700  0.47193700  1
  H  220  1  0.97651200  0.87424200  0.60382400  1
  H  227  1  0.60135400  0.78548250  0.30839850  1
  H  231  1  0.97638100  0.75426600  0.14540300  1
  H  238  1  0.10153300  0.48140200  0.77430300  1
  H  242  1  0.47599800  0.61415800  0.74561900  1
  H  249  1  0.10114300  0.31882700  0.53835700  1
  H  253  1  0.47815800  0.15682550  0.40830350  1
  H  260  1  0.10120300  0.24687500  0.70225700  1
  H  264  1  0.47644600  0.27795000  0.86506700  1
  N  134  1  0.08655400  0.53151000  0.50357800  1
  N  137  1  0.91156700  0.51481850  0.52348250  1
  N  145  1  0.08630900  0.99892950  0.49023950  1
  N  148  1  0.91133500  0.03551700  0.50684500  1
  N  156  1  0.08625700  0.51830750  0.02253850  1
  N  159  1  0.91126800  0.49828100  0.98596300  1
  N  167  1  0.58655700  0.50077300  0.50723900  1
  N  170  1  0.41156600  0.51744600  0.48731600  1
  N  178  1  0.58630800  0.03329250  0.52046850  1
  N  181  1  0.41132800  0.99670150  0.50387550  1
  N  189  1  0.58625600  0.51391400  0.98820100  1
  N  192  1  0.41127000  0.53393200  0.02477700  1
  N  200  1  0.67670400  0.53677500  0.29280400  1
  N  203  1  0.82201300  0.50970150  0.22256150  1
  N  211  1  0.67638900  0.78329900  0.48570000  1
  N  214  1  0.82154300  0.74050250  0.51320650  1
  N  222  1  0.67641500  0.72956000  0.23798200  1
  N  225  1  0.82189500  0.79949250  0.28126550  1
  N  233  1  0.17676900  0.49524800  0.71789500  1
  N  236  1  0.32197300  0.52283150  0.78832450  1
  N  244  1  0.17642900  0.24866950  0.52460450  1
  N  247  1  0.32174900  0.29178300  0.49766200  1
  N  255  1  0.17632000  0.30273200  0.77270700  1
  N  258  1  0.32184900  0.23283250  0.72924850  1
  O  141  1  0.91942000  0.50201850  0.62460350  1
  O  142  1  0.90868600  0.42221750  0.54692750  1
  O  152  1  0.91848500  0.14850600  0.51875500  1
  O  153  1  0.90834200  0.15105300  0.59899200  1
  O  163  1  0.91883600  0.39687000  0.87228700  1
  O  164  1  0.90865600  0.47433250  0.86971250  1
  O  174  1  0.41943800  0.53017950  0.38615750  1
  O  175  1  0.40866800  0.61000100  0.46380900  1
  O  185  1  0.41846900  0.88367300  0.49188800  1
  O  186  1  0.40835300  0.88119850  0.41168650  1
  O  196  1  0.41888200  0.63539950  0.13839950  1
  O  197  1  0.40863300  0.55799200  0.14107700  1
  O  207  1  0.98942300  0.51137550  0.27306050  1
  O  208  1  0.92509300  0.43706100  0.26739200  1
  O  218  1  0.98893000  0.78900550  0.51164450  1
  O  219  1  0.92366300  0.85724250  0.58583150  1
  O  229  1  0.98977300  0.75020850  0.23193450  1
  O  230  1  0.92360200  0.75385300  0.16277800  1
  O  240  1  0.48934900  0.52194850  0.73851550  1
  O  241  1  0.42333700  0.59595800  0.74452000  1
  O  251  1  0.48974900  0.24323500  0.49914000  1
  O  252  1  0.42503500  0.17396700  0.42573000  1
  O  262  1  0.48975600  0.28204400  0.77855100  1
  O  263  1  0.42365200  0.27838100  0.84771600  1
