# generated using pymatgen
data_LaH4(CO)6
_symmetry_space_group_name_H-M   'P 1'
_cell_length_a   8.22306000
_cell_length_b   12.15190000
_cell_length_c   13.56632000
_cell_angle_alpha   114.67255000
_cell_angle_beta   91.54317000
_cell_angle_gamma   97.94458000
_symmetry_Int_Tables_number   1
_chemical_formula_structural   LaH4(CO)6
_chemical_formula_sum   'La4 H16 C24 O24'
_cell_volume   1214.63928370
_cell_formula_units_Z   4
loop_
 _symmetry_equiv_pos_site_id
 _symmetry_equiv_pos_as_xyz
  1  'x, y, z'
loop_
 _atom_site_type_symbol
 _atom_site_label
 _atom_site_symmetry_multiplicity
 _atom_site_fract_x
 _atom_site_fract_y
 _atom_site_fract_z
 _atom_site_occupancy
  La  La0  1  0.95790000  0.63425000  0.29683000  1
  La  La1  1  0.47364000  0.64570000  0.25750000  1
  La  La2  1  0.04211000  0.36575000  0.70316000  1
  La  La3  1  0.52636000  0.35429000  0.74249000  1
  H  H4  1  0.72706000  0.28839000  0.14178000  1
  H  H5  1  0.60462000  0.23854000  0.01701000  1
  H  H6  1  0.95738000  0.39164000  0.07478000  1
  H  H7  1  0.90738000  0.23544000  0.98938000  1
  H  H8  1  0.29343000  0.05403000  0.36142000  1
  H  H9  1  0.09900000  0.96804000  0.36108000  1
  H  H10  1  0.38916000  0.04897000  0.53934000  1
  H  H11  1  0.19887000  0.96094000  0.53545000  1
  H  H12  1  0.27291000  0.71160000  0.85820000  1
  H  H13  1  0.39540000  0.76147000  0.98296000  1
  H  H14  1  0.04263000  0.60836000  0.92520000  1
  H  H15  1  0.09263000  0.76455000  0.01062000  1
  H  H16  1  0.70653000  0.94596000  0.63859000  1
  H  H17  1  0.90098000  0.03195000  0.63895000  1
  H  H18  1  0.61085000  0.95105000  0.46067000  1
  H  H19  1  0.80117000  0.03908000  0.46458000  1
  C  C20  1  0.62505000  0.42754000  0.12131000  1
  C  C21  1  0.70024000  0.31185000  0.07338000  1
  C  C22  1  0.85754000  0.32190000  0.01822000  1
  C  C23  1  0.83566000  0.35235000  0.92148000  1
  C  C24  1  0.14154000  0.45394000  0.32415000  1
  C  C25  1  0.23386000  0.40342000  0.38194000  1
  C  C26  1  0.30819000  0.37932000  0.44739000  1
  C  C27  1  0.37810000  0.36395000  0.53882000  1
  C  C28  1  0.30288000  0.86869000  0.33522000  1
  C  C29  1  0.23147000  0.98557000  0.38682000  1
  C  C30  1  0.25796000  0.03167000  0.51101000  1
  C  C31  1  0.18853000  0.14656000  0.57399000  1
  C  C32  1  0.37495000  0.57247000  0.87868000  1
  C  C33  1  0.29976000  0.68816000  0.92660000  1
  C  C34  1  0.14247000  0.67809000  0.98177000  1
  C  C35  1  0.16434000  0.64765000  0.07852000  1
  C  C36  1  0.85848000  0.54606000  0.67584000  1
  C  C37  1  0.76613000  0.59659000  0.61809000  1
  C  C38  1  0.69176000  0.62072000  0.55262000  1
  C  C39  1  0.62191000  0.63604000  0.46117000  1
  C  C40  1  0.69714000  0.13132000  0.66481000  1
  C  C41  1  0.76852000  0.01443000  0.61321000  1
  C  C42  1  0.74204000  0.96834000  0.48901000  1
  C  C43  1  0.81147000  0.85344000  0.42602000  1
  O  O44  1  0.72142000  0.53389000  0.15914000  1
  O  O45  1  0.47210000  0.42211000  0.12993000  1
  O  O46  1  0.22137000  0.52343000  0.28506000  1
  O  O47  1  0.98520000  0.43824000  0.31997000  1
  O  O48  1  0.23016000  0.77153000  0.34430000  1
  O  O49  1  0.43572000  0.86643000  0.29042000  1
  O  O50  1  0.69713000  0.37682000  0.90012000  1
  O  O51  1  0.95984000  0.35140000  0.86662000  1
  O  O52  1  0.24518000  0.21271000  0.67557000  1
  O  O53  1  0.07523000  0.17832000  0.53132000  1
  O  O54  1  0.48879000  0.29915000  0.53061000  1
  O  O55  1  0.31821000  0.42269000  0.62993000  1
  O  O56  1  0.27858000  0.46611000  0.84084000  1
  O  O57  1  0.52790000  0.57790000  0.87006000  1
  O  O58  1  0.77863000  0.47658000  0.71494000  1
  O  O59  1  0.01483000  0.56175000  0.68002000  1
  O  O60  1  0.76986000  0.22846000  0.65571000  1
  O  O61  1  0.56430000  0.13357000  0.70961000  1
  O  O62  1  0.30288000  0.62319000  0.09989000  1
  O  O63  1  0.04015000  0.64860000  0.13337000  1
  O  O64  1  0.75482000  0.78729000  0.32445000  1
  O  O65  1  0.92477000  0.82168000  0.46870000  1
  O  O66  1  0.51122000  0.70085000  0.46940000  1
  O  O67  1  0.68179000  0.57731000  0.37005000  1
