# generated using pymatgen
data_LiH4C6NO2
_symmetry_space_group_name_H-M   'P 1'
_cell_length_a   4.52317000
_cell_length_b   11.69963000
_cell_length_c   13.92709514
_cell_angle_alpha   87.19462412
_cell_angle_beta   81.23400414
_cell_angle_gamma   86.49088000
_symmetry_Int_Tables_number   1
_chemical_formula_structural   LiH4C6NO2
_chemical_formula_sum   'Li4 H16 C24 N4 O8'
_cell_volume   726.45246692
_cell_formula_units_Z   4
loop_
 _symmetry_equiv_pos_site_id
 _symmetry_equiv_pos_as_xyz
  1  'x, y, z'
loop_
 _atom_site_type_symbol
 _atom_site_label
 _atom_site_symmetry_multiplicity
 _atom_site_fract_x
 _atom_site_fract_y
 _atom_site_fract_z
 _atom_site_occupancy
  Li  Li0  1  0.25272000  0.01546000  0.07445000  1
  Li  Li1  1  0.26324000  0.49870000  0.43845000  1
  Li  Li2  1  0.74728000  0.98454000  0.92555000  1
  Li  Li3  1  0.73676000  0.50130000  0.56155000  1
  H  H4  1  0.54742000  0.16429000  0.36066000  1
  H  H5  1  0.80829000  0.02652000  0.23752000  1
  H  H6  1  0.50713000  0.23858000  0.15692000  1
  H  H7  1  0.29053000  0.37853000  0.28389000  1
  H  H8  1  0.25414000  0.72864000  0.10564000  1
  H  H9  1  0.09167000  0.57500000  0.23469000  1
  H  H10  1  0.70776000  0.67024000  0.40250000  1
  H  H11  1  0.91663000  0.81405000  0.27493000  1
  H  H12  1  0.45258000  0.83571000  0.63934000  1
  H  H13  1  0.19171000  0.97348000  0.76248000  1
  H  H14  1  0.49287000  0.76142000  0.84308000  1
  H  H15  1  0.70947000  0.62147000  0.71611000  1
  H  H16  1  0.74586000  0.27136000  0.89436000  1
  H  H17  1  0.90833000  0.42500000  0.76531000  1
  H  H18  1  0.29224000  0.32976000  0.59750000  1
  H  H19  1  0.08337000  0.18595000  0.72507000  1
  C  C20  1  0.73861000  0.36716000  0.40089000  1
  C  C21  1  0.89356000  0.28615000  0.32718000  1
  C  C22  1  0.75320000  0.18492000  0.31394000  1
  C  C23  1  0.90739000  0.10571000  0.24992000  1
  C  C24  1  0.30774000  0.22077000  0.20831000  1
  C  C25  1  0.17167000  0.30344000  0.27330000  1
  C  C26  1  0.72118000  0.86144000  0.09852000  1
  C  C27  1  0.61589000  0.77299000  0.17558000  1
  C  C28  1  0.37113000  0.71055000  0.16777000  1
  C  C29  1  0.26224000  0.63355000  0.24334000  1
  C  C30  1  0.61795000  0.68248000  0.33462000  1
  C  C31  1  0.74535000  0.75852000  0.26143000  1
  C  C32  1  0.26139000  0.63284000  0.59911000  1
  C  C33  1  0.10644000  0.71384000  0.67282000  1
  C  C34  1  0.24680000  0.81508000  0.68606000  1
  C  C35  1  0.09261000  0.89429000  0.75008000  1
  C  C36  1  0.69226000  0.77922000  0.79169000  1
  C  C37  1  0.82833000  0.69655000  0.72670000  1
  C  C38  1  0.27882000  0.13856000  0.90148000  1
  C  C39  1  0.38411000  0.22701000  0.82442000  1
  C  C40  1  0.62887000  0.28945000  0.83223000  1
  C  C41  1  0.73776000  0.36645000  0.75666000  1
  C  C42  1  0.38205000  0.31752000  0.66538000  1
  C  C43  1  0.25466000  0.24148000  0.73856000  1
  N  N44  1  0.17500000  0.12232000  0.19606000  1
  N  N45  1  0.38721000  0.61836000  0.32636000  1
  N  N46  1  0.82500000  0.87768000  0.80394000  1
  N  N47  1  0.61279000  0.38164000  0.67364000  1
  O  O48  1  0.47615000  0.34356000  0.43970000  1
  O  O49  1  0.87045000  0.45524000  0.42161000  1
  O  O50  1  0.94328000  0.91663000  0.11120000  1
  O  O51  1  0.56986000  0.87801000  0.02778000  1
  O  O52  1  0.52385000  0.65644000  0.56030000  1
  O  O53  1  0.12955000  0.54476000  0.57839000  1
  O  O54  1  0.05672000  0.08337000  0.88880000  1
  O  O55  1  0.43015000  0.12199000  0.97221000  1
