# generated using pymatgen
data_MgH8C12O5
_symmetry_space_group_name_H-M   'P 1'
_cell_length_a   7.17220000
_cell_length_b   12.81090000
_cell_length_c   17.31620000
_cell_angle_alpha   90.00000000
_cell_angle_beta   90.93300000
_cell_angle_gamma   90.00000000
_symmetry_Int_Tables_number   1
_chemical_formula_structural   MgH8C12O5
_chemical_formula_sum   'Mg4 H32 C48 O20'
_cell_volume   1590.84198161
_cell_formula_units_Z   4
loop_
 _symmetry_equiv_pos_site_id
 _symmetry_equiv_pos_as_xyz
  1  'x, y, z'
loop_
 _atom_site_type_symbol
 _atom_site_label
 _atom_site_symmetry_multiplicity
 _atom_site_fract_x
 _atom_site_fract_y
 _atom_site_fract_z
 _atom_site_occupancy
  Mg  Mg1  1  0.50000000  0.50000000  0.00000000  1.0
  Mg  Mg2  1  0.50000000  0.00000000  0.50000000  1.0
  Mg  Mg3  1  0.00000000  0.50000000  0.00000000  1.0
  Mg  Mg4  1  0.00000000  0.00000000  0.50000000  1.0
  H  H1  1  0.75860000  0.35230000  0.98030000  1.0
  H  H2  1  0.74890000  0.39100000  0.05150000  1.0
  H  H3  1  0.99910000  0.32340000  0.20020000  1.0
  H  H4  1  0.99040000  0.21840000  0.30910000  1.0
  H  H5  1  0.56210000  0.24310000  0.08780000  1.0
  H  H6  1  0.80570000  0.13500000  0.11720000  1.0
  H  H7  1  0.80800000  0.03900000  0.23140000  1.0
  H  H8  1  0.56470000  0.04940000  0.31370000  1.0
  H  H9  1  0.24140000  0.85230000  0.51970000  1.0
  H  H10  1  0.25110000  0.89100000  0.44850000  1.0
  H  H11  1  0.00090000  0.82340000  0.29980000  1.0
  H  H12  1  0.00960000  0.71840000  0.19090000  1.0
  H  H13  1  0.43790000  0.74310000  0.41220000  1.0
  H  H14  1  0.19430000  0.63500000  0.38280000  1.0
  H  H15  1  0.19200000  0.53900000  0.26860000  1.0
  H  H16  1  0.43530000  0.54940000  0.18630000  1.0
  H  H17  1  0.24140000  0.64770000  0.01970000  1.0
  H  H18  1  0.25110000  0.60900000  0.94850000  1.0
  H  H19  1  0.00090000  0.67660000  0.79980000  1.0
  H  H20  1  0.00960000  0.78160000  0.69090000  1.0
  H  H21  1  0.43790000  0.75690000  0.91220000  1.0
  H  H22  1  0.19430000  0.86500000  0.88280000  1.0
  H  H23  1  0.19200000  0.96100000  0.76860000  1.0
  H  H24  1  0.43530000  0.95060000  0.68630000  1.0
  H  H25  1  0.75860000  0.14770000  0.48030000  1.0
  H  H26  1  0.74890000  0.10900000  0.55150000  1.0
  H  H27  1  0.99910000  0.17660000  0.70020000  1.0
  H  H28  1  0.99040000  0.28160000  0.80910000  1.0
  H  H29  1  0.56210000  0.25690000  0.58780000  1.0
  H  H30  1  0.80570000  0.36500000  0.61720000  1.0
  H  H31  1  0.80800000  0.46100000  0.73140000  1.0
  H  H32  1  0.56470000  0.45060000  0.81370000  1.0
  C  C1  1  0.25710000  0.36354000  0.10175000  1.0
  C  C2  1  0.23890000  0.10445000  0.37877000  1.0
  C  C3  1  0.25560000  0.28494000  0.16699000  1.0
  C  C4  1  0.10220000  0.28266000  0.21314000  1.0
  C  C5  1  0.09770000  0.21981000  0.27971000  1.0
  C  C6  1  0.24850000  0.16061000  0.30203000  1.0
  C  C7  1  0.40830000  0.15625000  0.25359000  1.0
  C  C8  1  0.40980000  0.21744000  0.18448000  1.0
  C  C9  1  0.56160000  0.20563000  0.13380000  1.0
  C  C10  1  0.70680000  0.14072000  0.15099000  1.0
  C  C11  1  0.70770000  0.08256000  0.21955000  1.0
  C  C12  1  0.56280000  0.08942000  0.26884000  1.0
  C  C13  1  0.74290000  0.86354000  0.39825000  1.0
  C  C14  1  0.76110000  0.60445000  0.12123000  1.0
  C  C15  1  0.74440000  0.78494000  0.33301000  1.0
  C  C16  1  0.89780000  0.78266000  0.28686000  1.0
  C  C17  1  0.90230000  0.71981000  0.22029000  1.0
  C  C18  1  0.75150000  0.66061000  0.19797000  1.0
  C  C19  1  0.59170000  0.65625000  0.24641000  1.0
  C  C20  1  0.59020000  0.71744000  0.31552000  1.0
  C  C21  1  0.43840000  0.70563000  0.36620000  1.0
  C  C22  1  0.29320000  0.64072000  0.34901000  1.0
  C  C23  1  0.29230000  0.58256000  0.28045000  1.0
  C  C24  1  0.43720000  0.58942000  0.23116000  1.0
  C  C25  1  0.74290000  0.63646000  0.89825000  1.0
  C  C26  1  0.76110000  0.89555000  0.62123000  1.0
  C  C27  1  0.74440000  0.71506000  0.83301000  1.0
  C  C28  1  0.89780000  0.71734000  0.78686000  1.0
  C  C29  1  0.90230000  0.78019000  0.72029000  1.0
  C  C30  1  0.75150000  0.83939000  0.69797000  1.0
  C  C31  1  0.59170000  0.84375000  0.74641000  1.0
  C  C32  1  0.59020000  0.78256000  0.81552000  1.0
  C  C33  1  0.43840000  0.79437000  0.86620000  1.0
  C  C34  1  0.29320000  0.85928000  0.84901000  1.0
  C  C35  1  0.29230000  0.91744000  0.78045000  1.0
  C  C36  1  0.43720000  0.91058000  0.73116000  1.0
  C  C37  1  0.25710000  0.13646000  0.60175000  1.0
  C  C38  1  0.23890000  0.39555000  0.87877000  1.0
  C  C39  1  0.25560000  0.21506000  0.66699000  1.0
  C  C40  1  0.10220000  0.21734000  0.71314000  1.0
  C  C41  1  0.09770000  0.28019000  0.77971000  1.0
  C  C42  1  0.24850000  0.33939000  0.80203000  1.0
  C  C43  1  0.40830000  0.34375000  0.75359000  1.0
  C  C44  1  0.40980000  0.28256000  0.68448000  1.0
  C  C45  1  0.56160000  0.29437000  0.63380000  1.0
  C  C46  1  0.70680000  0.35928000  0.65099000  1.0
  C  C47  1  0.70770000  0.41744000  0.71955000  1.0
  C  C48  1  0.56280000  0.41058000  0.76884000  1.0
  O  O1  1  0.10440000  0.38175000  0.06817000  1.0
  O  O2  1  0.40913000  0.40769000  0.08749000  1.0
  O  O3  1  0.08254000  0.07144000  0.39912000  1.0
  O  O4  1  0.38757000  0.09719000  0.41828000  1.0
  O  O5  1  0.74973000  0.40901000  0.00547000  1.0
  O  O6  1  0.89560000  0.88175000  0.43183000  1.0
  O  O7  1  0.59087000  0.90769000  0.41251000  1.0
  O  O8  1  0.91746000  0.57144000  0.10088000  1.0
  O  O9  1  0.61243000  0.59719000  0.08172000  1.0
  O  O10  1  0.25027000  0.90901000  0.49453000  1.0
  O  O11  1  0.89560000  0.61825000  0.93183000  1.0
  O  O12  1  0.59087000  0.59231000  0.91251000  1.0
  O  O13  1  0.91746000  0.92856000  0.60088000  1.0
  O  O14  1  0.61243000  0.90281000  0.58172000  1.0
  O  O15  1  0.25027000  0.59099000  0.99453000  1.0
  O  O16  1  0.10440000  0.11825000  0.56817000  1.0
  O  O17  1  0.40913000  0.09231000  0.58749000  1.0
  O  O18  1  0.08254000  0.42856000  0.89912000  1.0
  O  O19  1  0.38757000  0.40281000  0.91828000  1.0
  O  O20  1  0.74973000  0.09099000  0.50547000  1.0
