# generated using pymatgen
data_H32C53(N2O)4
_symmetry_space_group_name_H-M   'P 1'
_cell_length_a   33.49495000
_cell_length_b   33.49500000
_cell_length_c   40.11360000
_cell_angle_alpha   90.00000000
_cell_angle_beta   90.00000000
_cell_angle_gamma   120.00014814
_symmetry_Int_Tables_number   1
_chemical_formula_structural   H32C53(N2O)4
_chemical_formula_sum   'H96 C159 N24 O12'
_cell_volume   38974.53468715
_cell_formula_units_Z   3
loop_
 _symmetry_equiv_pos_site_id
 _symmetry_equiv_pos_as_xyz
  1  'x, y, z'
loop_
 _atom_site_type_symbol
 _atom_site_label
 _atom_site_symmetry_multiplicity
 _atom_site_fract_x
 _atom_site_fract_y
 _atom_site_fract_z
 _atom_site_occupancy
  H  4  1  0.96937200  0.61504300  0.30882300  1
  H  32  1  0.57089700  0.65331300  0.93204800  1
  H  33  1  0.60986800  0.63598200  0.97553500  1
  H  34  1  0.63611700  0.60405700  0.02232200  1
  H  35  1  0.64794800  0.55973300  0.06463700  1
  H  36  1  0.51288200  0.44872000  0.04909100  1
  H  37  1  0.45047700  0.52453100  0.94727700  1
  H  38  1  0.46766600  0.54208200  0.04913900  1
  H  39  1  0.33260000  0.43104900  0.06464400  1
  H  40  1  0.34443000  0.38677900  0.02229000  1
  H  41  1  0.53010200  0.46636000  0.94727600  1
  H  42  1  0.37071600  0.35486900  0.97551300  1
  H  43  1  0.40970700  0.33756100  0.93202900  1
  H  46  1  0.56148500  0.45194500  0.09709000  1
  H  48  1  0.50567000  0.41351200  0.89202300  1
  H  50  1  0.41905000  0.53878500  0.09716000  1
  H  52  1  0.47494900  0.57739100  0.89203900  1
  H  72  1  0.06759500  0.41487800  0.26535900  1
  H  73  1  0.01128500  0.37587700  0.30883800  1
  H  74  1  0.95308500  0.34958600  0.35560800  1
  H  75  1  0.89697700  0.33774900  0.39796000  1
  H  76  1  0.92101700  0.47281900  0.38246400  1
  H  77  1  0.05918000  0.53526700  0.28060900  1
  H  78  1  0.05957900  0.51803700  0.38243700  1
  H  79  1  0.08367200  0.65312500  0.39794300  1
  H  80  1  0.02753600  0.64129800  0.35561800  1
  H  81  1  0.92139000  0.45563100  0.28060400  1
  H  82  1  0.91306900  0.57607000  0.26533700  1
  H  84  1  0.87570900  0.42420200  0.43049000  1
  H  86  1  0.89302200  0.48010800  0.22534300  1
  H  88  1  0.10496600  0.56665000  0.43042500  1
  H  90  1  0.08761200  0.51084800  0.22536500  1
  H  115  1  0.33238500  0.91816100  0.59871000  1
  H  116  1  0.34971100  0.97445300  0.64220100  1
  H  117  1  0.38165400  0.03267200  0.68896100  1
  H  118  1  0.42596600  0.08880900  0.73128600  1
  H  119  1  0.53696900  0.06473600  0.71576200  1
  H  120  1  0.46117900  0.92654200  0.61393400  1
  H  121  1  0.44357400  0.92613200  0.71575700  1
  H  122  1  0.55457900  0.90205800  0.73127600  1
  H  123  1  0.59888800  0.95819500  0.68894900  1
  H  124  1  0.51937800  0.06435800  0.61394900  1
  H  125  1  0.63082300  0.01640300  0.64218400  1
  H  126  1  0.64815900  0.07271800  0.59870700  1
  H  129  1  0.53374700  0.11011900  0.76375500  1
  H  131  1  0.57224300  0.09278800  0.55871100  1
  H  133  1  0.44679300  0.88074000  0.76374200  1
  H  135  1  0.40830600  0.89812400  0.55869100  1
  H  142  1  0.56214100  0.25507200  0.73784500  1
  H  147  1  0.50338100  0.14868300  0.80910900  1
  H  152  1  0.56038800  0.39757500  0.85607400  1
  H  153  1  0.50254300  0.28362400  0.92099700  1
  H  157  1  0.56448900  0.17652400  0.73201400  1
  H  158  1  0.50935600  0.16775500  0.72212700  1
  H  160  1  0.56214800  0.40638900  0.92248100  1
  H  161  1  0.51915000  0.35701700  0.94298100  1
  H  168  1  0.67806900  0.42358700  0.07116600  1
  H  173  1  0.63041200  0.48230200  0.14244300  1
  H  178  1  0.82237600  0.42539300  0.18937500  1
  H  179  1  0.76623200  0.48318800  0.25431300  1
  H  183  1  0.59714600  0.42120200  0.06534700  1
  H  184  1  0.64350800  0.47633800  0.05545800  1
  H  186  1  0.82941700  0.42360500  0.25578200  1
  H  187  1  0.82302400  0.46658500  0.27629100  1
  H  194  1  0.73070400  0.30772400  0.40456600  1
  H  199  1  0.83709700  0.35529400  0.47582100  1
  H  204  1  0.58818200  0.16346100  0.52278300  1
  H  205  1  0.70213900  0.21951600  0.58770100  1
  H  209  1  0.80928500  0.38862200  0.39875500  1
  H  210  1  0.81799800  0.34223200  0.38883100  1
  H  212  1  0.57937000  0.15638000  0.58918700  1
  H  213  1  0.62873800  0.16273800  0.60968100  1
  H  220  1  0.41846300  0.73580100  0.73782500  1
  H  225  1  0.47714900  0.84217900  0.80910000  1
  H  230  1  0.42024200  0.59331500  0.85605900  1
  H  231  1  0.47801000  0.70725600  0.92099200  1
  H  235  1  0.41606300  0.81433300  0.73200400  1
  H  236  1  0.47120300  0.82311900  0.72211200  1
  H  238  1  0.41843900  0.58449500  0.92246800  1
  H  239  1  0.46141400  0.63386900  0.94297800  1
  H  246  1  0.30256600  0.56729000  0.07121800  1
  H  251  1  0.35014200  0.50849600  0.14249300  1
  H  256  1  0.15828700  0.56556500  0.18941500  1
  H  257  1  0.21435900  0.50770300  0.25435600  1
  H  261  1  0.38346200  0.56960800  0.06541000  1
  H  262  1  0.33707200  0.51449700  0.05550300  1
  H  264  1  0.15121500  0.56732800  0.25581900  1
  H  265  1  0.15758400  0.52433400  0.27632800  1
  H  272  1  0.24992100  0.68321600  0.40452200  1
  H  277  1  0.14353100  0.63555900  0.47578400  1
  H  282  1  0.39240600  0.82748700  0.52275300  1
  H  283  1  0.27845000  0.77135000  0.58767400  1
  H  287  1  0.17137400  0.60230800  0.39868600  1
  H  288  1  0.16261700  0.64868100  0.38880400  1
  H  290  1  0.40121800  0.83454400  0.58916200  1
  H  291  1  0.35183900  0.82815400  0.60965900  1
  C  1  1  0.99028300  0.49543500  0.33212500  1
  C  2  1  0.97771900  0.55768300  0.31989400  1
  C  3  1  0.96947500  0.41811100  0.34464900  1
  C  5  1  0.96422500  0.51193500  0.31190200  1
  C  6  1  0.95898700  0.58148500  0.30319700  1
  C  7  1  0.96066400  0.45376100  0.35237000  1
  C  8  1  0.47377200  0.45289500  0.97854200  1
  C  9  1  0.42802500  0.42063400  0.98653100  1
  C  10  1  0.41295200  0.43891500  0.01132300  1
  C  11  1  0.44860900  0.48337200  0.01904900  1
  C  12  1  0.44166900  0.50961100  0.04353700  1
  C  13  1  0.39870400  0.49067300  0.06027900  1
  C  14  1  0.36356000  0.44533200  0.05246400  1
  C  15  1  0.37022500  0.41938100  0.02780200  1
  C  16  1  0.40425400  0.37807500  0.96986100  1
  C  17  1  0.42707500  0.36822900  0.94451500  1
  C  18  1  0.47332200  0.40011000  0.93621000  1
  C  19  1  0.49692400  0.44267000  0.95347000  1
  C  20  1  0.50677300  0.53800100  0.97858200  1
  C  21  1  0.55251400  0.57025900  0.98658600  1
  C  22  1  0.56759500  0.55193400  0.01134300  1
  C  23  1  0.53194500  0.50746200  0.01903700  1
  C  24  1  0.61032200  0.57144600  0.02781900  1
  C  25  1  0.61699200  0.54546300  0.05244900  1
  C  26  1  0.58184200  0.50012200  0.06025200  1
  C  27  1  0.53888100  0.48119600  0.04350500  1
  C  28  1  0.48363500  0.54823500  0.95350400  1
  C  29  1  0.50725500  0.59079200  0.93624200  1
  C  30  1  0.55350800  0.62265800  0.94454800  1
  C  31  1  0.57631000  0.61280700  0.96990500  1
  C  44  1  0.49027500  0.49543200  0.99879400  1
  C  53  1  0.01110700  0.57275900  0.34466400  1
  C  54  1  0.01990700  0.53710100  0.35237500  1
  C  55  1  0.05311000  0.54404200  0.37684500  1
  C  56  1  0.07716500  0.58701300  0.39357800  1
  C  57  1  0.06697900  0.62216300  0.38576500  1
  C  58  1  0.03432900  0.61549300  0.36113200  1
  C  59  1  0.92633500  0.55868200  0.27783900  1
  C  60  1  0.91193900  0.51242500  0.26954200  1
  C  61  1  0.93089300  0.48881500  0.28679600  1
  C  62  1  0.01633800  0.47894300  0.31188700  1
  C  63  1  0.00283400  0.43318800  0.31986200  1
  C  64  1  0.94627300  0.37537900  0.36112000  1
  C  65  1  0.91365500  0.36871000  0.38578000  1
  C  66  1  0.90345700  0.40385200  0.39360000  1
  C  67  1  0.92748600  0.44682100  0.37686000  1
  C  68  1  0.04971500  0.50209800  0.28681800  1
  C  69  1  0.06867000  0.47849900  0.26955200  1
  C  70  1  0.05429400  0.43224500  0.27784900  1
  C  71  1  0.02161100  0.40941400  0.30318200  1
  C  91  1  0.53282500  0.02148200  0.64521800  1
  C  92  1  0.56508600  0.00800300  0.65322000  1
  C  93  1  0.54677000  0.97460800  0.67798500  1
  C  94  1  0.50231100  0.96580500  0.68569500  1
  C  95  1  0.47604800  0.93260300  0.71016300  1
  C  96  1  0.49497300  0.90856300  0.72690800  1
  C  97  1  0.54031000  0.91874700  0.71909500  1
  C  98  1  0.56628600  0.95139300  0.69445800  1
  C  99  1  0.60762400  0.02674300  0.63652700  1
  C  100  1  0.61749200  0.05943000  0.61119400  1
  C  101  1  0.58562700  0.07381800  0.60289300  1
  C  102  1  0.54306400  0.05486600  0.62014900  1
  C  103  1  0.44772600  0.96940500  0.64521000  1
  C  104  1  0.41545600  0.98286800  0.65322500  1
  C  105  1  0.43376700  0.01625100  0.67799700  1
  C  106  1  0.47823200  0.02506000  0.68570300  1
  C  107  1  0.41425400  0.03946500  0.69447300  1
  C  108  1  0.44023500  0.07211700  0.71910500  1
  C  109  1  0.48557300  0.08230500  0.72691600  1
  C  110  1  0.50449400  0.05826100  0.71017300  1
  C  111  1  0.43748600  0.93602300  0.62013900  1
  C  112  1  0.39492500  0.91707600  0.60288300  1
  C  113  1  0.36305400  0.93145200  0.61119400  1
  C  114  1  0.37291700  0.96412600  0.63653500  1
  C  127  1  0.49027200  0.99543800  0.66545000  1
  C  136  1  0.53303400  0.19662100  0.76910900  1
  C  137  1  0.51695000  0.18224000  0.80195600  1
  C  139  1  0.53469600  0.25815100  0.81803300  1
  C  140  1  0.55168300  0.27515800  0.78558600  1
  C  141  1  0.55068500  0.24376800  0.76153300  1
  C  143  1  0.53424600  0.28796500  0.84274900  1
  C  144  1  0.51587200  0.29854200  0.89845200  1
  C  145  1  0.53137200  0.34569600  0.89279100  1
  C  146  1  0.54892200  0.36350800  0.86078600  1
  C  149  1  0.55066000  0.33515800  0.83532100  1
  C  150  1  0.56767400  0.35194100  0.80300000  1
  C  151  1  0.56822800  0.32221300  0.77835700  1
  C  156  1  0.52996400  0.16463100  0.74206300  1
  C  159  1  0.52844200  0.37543700  0.91915300  1
  C  162  1  0.64870200  0.45266000  0.10243700  1
  C  163  1  0.65040600  0.46874000  0.13528600  1
  C  165  1  0.70859100  0.45102000  0.15135300  1
  C  166  1  0.70861100  0.43403800  0.11890500  1
  C  167  1  0.67819600  0.43500800  0.09486100  1
  C  169  1  0.73887000  0.45148600  0.17606300  1
  C  170  1  0.76782100  0.46985700  0.23176700  1
  C  171  1  0.79949100  0.45437700  0.22610100  1
  C  172  1  0.79976400  0.43684400  0.19409200  1
  C  175  1  0.76966400  0.43509600  0.16862900  1
  C  176  1  0.76943800  0.41809100  0.13630600  1
  C  177  1  0.73914100  0.41752100  0.11166800  1
  C  182  1  0.61977900  0.45572900  0.07539400  1
  C  185  1  0.83216400  0.45731000  0.25246100  1
  C  188  1  0.78916000  0.33703200  0.43582300  1
  C  189  1  0.80353800  0.33531800  0.46866900  1
  C  191  1  0.72762100  0.27717600  0.48474600  1
  C  192  1  0.71061100  0.27717500  0.45230600  1
  C  193  1  0.74200400  0.30757200  0.42825400  1
  C  195  1  0.69780200  0.24690900  0.50946100  1
  C  196  1  0.68722100  0.21793600  0.56515800  1
  C  197  1  0.64006200  0.18630000  0.55949900  1
  C  198  1  0.62225100  0.18605000  0.52749500  1
  C  201  1  0.65060500  0.21614500  0.50203200  1
  C  202  1  0.63382300  0.21639300  0.46971400  1
  C  203  1  0.66355600  0.24667800  0.44507600  1
  C  208  1  0.82115200  0.36595600  0.40877900  1
  C  211  1  0.61031900  0.15362000  0.58585400  1
  C  214  1  0.44753600  0.79424700  0.76909200  1
  C  215  1  0.46358900  0.80862100  0.80194700  1
  C  217  1  0.44587900  0.73272400  0.81802000  1
  C  218  1  0.42890700  0.71571400  0.78557100  1
  C  219  1  0.42989000  0.74710000  0.76151900  1
  C  221  1  0.44633600  0.70291300  0.84273600  1
  C  222  1  0.46469200  0.69233800  0.89844600  1
  C  223  1  0.44921700  0.64518800  0.89278200  1
  C  224  1  0.43169100  0.62737700  0.86077200  1
  C  227  1  0.42994900  0.65572600  0.83530600  1
  C  228  1  0.41295300  0.63894400  0.80298100  1
  C  229  1  0.41238800  0.66866500  0.77833900  1
  C  234  1  0.45059300  0.82623400  0.74205000  1
  C  237  1  0.45214300  0.61545200  0.91914900  1
  C  240  1  0.33188400  0.53816400  0.10248700  1
  C  241  1  0.33016300  0.52207300  0.13533600  1
  C  243  1  0.27201500  0.53984600  0.15140100  1
  C  244  1  0.27200600  0.55683500  0.11895300  1
  C  245  1  0.30240200  0.55582900  0.09490600  1
  C  247  1  0.24174700  0.53940400  0.17611000  1
  C  248  1  0.21277800  0.52103400  0.23181000  1
  C  249  1  0.18113500  0.53654300  0.22614100  1
  C  250  1  0.18088300  0.55409400  0.19413400  1
  C  253  1  0.21098000  0.55582900  0.16867400  1
  C  254  1  0.21122200  0.57284200  0.13635300  1
  C  255  1  0.24150800  0.57339100  0.11171600  1
  C  260  1  0.36079900  0.53507900  0.07544600  1
  C  263  1  0.14845800  0.53362100  0.25249600  1
  C  266  1  0.19147200  0.65384900  0.43578500  1
  C  267  1  0.17709000  0.65554900  0.46863400  1
  C  269  1  0.25299700  0.71371600  0.48471400  1
  C  270  1  0.27000700  0.71374100  0.45226600  1
  C  271  1  0.23862200  0.68333800  0.42821400  1
  C  273  1  0.28280600  0.74398700  0.50942900  1
  C  274  1  0.29337800  0.77292700  0.56513500  1
  C  275  1  0.34052700  0.80460000  0.55947100  1
  C  276  1  0.35834200  0.80487200  0.52746500  1
  C  279  1  0.32999400  0.77477600  0.50200200  1
  C  280  1  0.34678100  0.77455300  0.46967900  1
  C  281  1  0.31705700  0.74426700  0.44503600  1
  C  286  1  0.15948500  0.62494400  0.40873500  1
  C  289  1  0.37026000  0.83728400  0.58583100  1
  N  45  1  0.59113800  0.47629600  0.08555300  1
  N  47  1  0.49327800  0.38809500  0.90984800  1
  N  49  1  0.38940200  0.51446700  0.08560000  1
  N  51  1  0.48732500  0.60281000  0.90986300  1
  N  83  1  0.87037000  0.39455200  0.41892600  1
  N  85  1  0.87998400  0.49248800  0.24316700  1
  N  87  1  0.11027200  0.59630500  0.41888800  1
  N  89  1  0.10063900  0.49845400  0.24319000  1
  N  128  1  0.50939600  0.11542200  0.75221900  1
  N  130  1  0.59765800  0.10580300  0.57653800  1
  N  132  1  0.47115000  0.87544200  0.75220800  1
  N  134  1  0.38289700  0.88509800  0.57652300  1
  N  138  1  0.51826300  0.21278400  0.82473500  1
  N  148  1  0.51768000  0.27185400  0.87376800  1
  N  164  1  0.67964500  0.46743800  0.15806200  1
  N  174  1  0.73931900  0.46804500  0.20708500  1
  N  190  1  0.77299200  0.30609200  0.49144700  1
  N  200  1  0.71391300  0.24643800  0.54047500  1
  N  216  1  0.46228800  0.77808600  0.82472500  1
  N  226  1  0.46288200  0.71902200  0.87375900  1
  N  242  1  0.30093500  0.52339900  0.15810900  1
  N  252  1  0.24128000  0.52283600  0.20713000  1
  N  268  1  0.20763000  0.68477900  0.49141500  1
  N  278  1  0.26669200  0.74443400  0.54044800  1
  O  154  1  0.58341600  0.39667200  0.79498700  1
  O  155  1  0.58448000  0.33955400  0.74763700  1
  O  180  1  0.79843800  0.40236500  0.12828600  1
  O  181  1  0.74022700  0.40126700  0.08094800  1
  O  206  1  0.58909000  0.18741800  0.46170200  1
  O  207  1  0.64621200  0.24560900  0.41435900  1
  O  232  1  0.39723400  0.59421800  0.79496600  1
  O  233  1  0.39615200  0.65132500  0.74761700  1
  O  258  1  0.18224700  0.58859700  0.12833400  1
  O  259  1  0.24043500  0.58964800  0.08099600  1
  O  284  1  0.39150800  0.80355000  0.46166700  1
  O  285  1  0.33440400  0.74536000  0.41431900  1
