# generated using pymatgen
data_H12C18N
_symmetry_space_group_name_H-M   'P 1'
_cell_length_a   17.32960000
_cell_length_b   43.32410000
_cell_length_c   43.32410000
_cell_angle_alpha   120.00000000
_cell_angle_beta   90.00000000
_cell_angle_gamma   90.00000000
_symmetry_Int_Tables_number   1
_chemical_formula_structural   H12C18N
_chemical_formula_sum   'H96 C144 N8'
_cell_volume   28169.44362894
_cell_formula_units_Z   8
loop_
 _symmetry_equiv_pos_site_id
 _symmetry_equiv_pos_as_xyz
  1  'x, y, z'
loop_
 _atom_site_type_symbol
 _atom_site_label
 _atom_site_symmetry_multiplicity
 _atom_site_fract_x
 _atom_site_fract_y
 _atom_site_fract_z
 _atom_site_occupancy
  C  2  1  0.68690000  0.30390400  0.68863800  1
  C  3  1  0.68705800  0.30357700  0.63166600  1
  C  4  1  0.68848100  0.24708400  0.63221700  1
  C  5  1  0.62377200  0.22765200  0.63283900  1
  C  6  1  0.62464400  0.19012300  0.61419600  1
  C  7  1  0.68999400  0.17086100  0.59414500  1
  C  8  1  0.75461200  0.19066400  0.59363300  1
  C  9  1  0.75399900  0.22821400  0.61248100  1
  C  10  1  0.75446300  0.30629600  0.70786900  1
  C  11  1  0.75420300  0.32503700  0.74541900  1
  C  12  1  0.68641500  0.34192000  0.76488200  1
  C  13  1  0.61887700  0.33930700  0.74524800  1
  C  14  1  0.61909100  0.32060300  0.70769300  1
  C  15  1  0.75109800  0.32450400  0.63342400  1
  C  16  1  0.75121300  0.34316900  0.61456000  1
  C  17  1  0.68777800  0.34109500  0.59296100  1
  C  18  1  0.62414000  0.31965000  0.59097400  1
  C  19  1  0.62358800  0.30133600  0.61022400  1
  C  33  1  0.18617400  0.60074100  0.27869400  1
  C  34  1  0.18566600  0.60011100  0.33508700  1
  C  35  1  0.18721200  0.65721800  0.33560500  1
  C  36  1  0.12282600  0.67662500  0.33460400  1
  C  37  1  0.12355200  0.71416700  0.35331100  1
  C  38  1  0.18841200  0.73349000  0.37381200  1
  C  39  1  0.25262600  0.71369700  0.37474700  1
  C  40  1  0.25216400  0.67614700  0.35584600  1
  C  41  1  0.12091000  0.58094300  0.25960500  1
  C  42  1  0.12078800  0.56218200  0.22206400  1
  C  43  1  0.18567200  0.56283000  0.20247200  1
  C  44  1  0.25075100  0.58297300  0.22195200  1
  C  45  1  0.25112000  0.60155100  0.25949000  1
  C  46  1  0.24874300  0.57851600  0.33293800  1
  C  47  1  0.24745300  0.55923500  0.35120500  1
  C  48  1  0.18345000  0.56132300  0.37251200  1
  C  49  1  0.12044800  0.58311800  0.37452300  1
  C  50  1  0.12131400  0.60205000  0.35592300  1
  C  64  1  0.75813300  0.42892500  0.51118000  1
  C  65  1  0.68724600  0.40080700  0.53831400  1
  C  66  1  0.61348200  0.43108400  0.51101400  1
  C  67  1  0.60940300  0.44043700  0.48399100  1
  C  68  1  0.53957500  0.45062800  0.47507100  1
  C  69  1  0.47027900  0.45184300  0.49280000  1
  C  70  1  0.47356700  0.44282000  0.51995600  1
  C  71  1  0.54381700  0.43305000  0.52906900  1
  C  72  1  0.80173900  0.45832700  0.53604800  1
  C  73  1  0.87189500  0.46721700  0.52608600  1
  C  74  1  0.89985300  0.44839200  0.49046200  1
  C  75  1  0.85483800  0.41875700  0.46585900  1
  C  76  1  0.78660800  0.40863300  0.47613900  1
  C  77  1  0.70619300  0.41715300  0.57483900  1
  C  78  1  0.70703400  0.39739400  0.59255800  1
  C  79  1  0.68751300  0.36075100  0.57450600  1
  C  80  1  0.66707300  0.34463600  0.53801200  1
  C  81  1  0.66731600  0.36433100  0.52012300  1
  C  95  1  0.69000100  0.05647000  0.53630300  1
  C  96  1  0.71708200  0.07582800  0.52025600  1
  C  97  1  0.71756400  0.11336800  0.53933100  1
  C  98  1  0.69039900  0.13269800  0.57491600  1
  C  99  1  0.66315600  0.11296200  0.59073200  1
  C  100  1  0.66321700  0.07542100  0.57177300  1
  C  108  1  0.75702400  0.42848200  0.93633800  1
  C  109  1  0.68609700  0.39928300  0.87938500  1
  C  110  1  0.61556000  0.42773800  0.93638000  1
  C  111  1  0.56800000  0.40148900  0.93670400  1
  C  112  1  0.49772200  0.41096700  0.95560100  1
  C  113  1  0.47257500  0.44691900  0.97458800  1
  C  114  1  0.52105100  0.47302600  0.97406700  1
  C  115  1  0.59145800  0.46361800  0.95533300  1
  C  116  1  0.80564100  0.45398900  0.93517600  1
  C  117  1  0.87604100  0.46368300  0.95397500  1
  C  118  1  0.90016500  0.44814300  0.97444500  1
  C  119  1  0.85059100  0.42263200  0.97546700  1
  C  120  1  0.78019900  0.41294300  0.95672400  1
  C  121  1  0.71989000  0.36514800  0.86022900  1
  C  122  1  0.72055000  0.34645600  0.82267500  1
  C  123  1  0.68621500  0.36100300  0.80305900  1
  C  124  1  0.65176900  0.39514800  0.82254700  1
  C  125  1  0.65236400  0.41413100  0.86009100  1
  C  139  1  0.25620700  0.47932200  0.46224800  1
  C  140  1  0.18300000  0.50639900  0.43196600  1
  C  141  1  0.11207800  0.47961900  0.46073000  1
  C  142  1  0.08167600  0.44507300  0.43954200  1
  C  143  1  0.01344600  0.43475500  0.44958900  1
  C  144  1  0.96993100  0.45901800  0.47997200  1
  C  145  1  0.99945800  0.49433700  0.49962700  1
  C  146  1  0.06985200  0.50422500  0.49081300  1
  C  147  1  0.32202500  0.50149500  0.47072400  1
  C  148  1  0.39259500  0.49236300  0.48024900  1
  C  149  1  0.39923400  0.46132500  0.48308900  1
  C  150  1  0.33333867  0.43948200  0.47544400  1
  C  151  1  0.26374000  0.44809800  0.46481100  1
  C  152  1  0.20417800  0.48840400  0.39565800  1
  C  153  1  0.20446600  0.50636700  0.37603500  1
  C  154  1  0.18310700  0.54275700  0.39207000  1
  C  155  1  0.16235900  0.56060700  0.42856700  1
  C  156  1  0.16280300  0.54278500  0.44822400  1
  C  170  1  0.26056300  0.90465800  0.45979000  1
  C  171  1  0.18966400  0.84793600  0.43124300  1
  C  172  1  0.11876800  0.90471000  0.45998100  1
  C  173  1  0.09623200  0.92521700  0.44448300  1
  C  174  1  0.02574800  0.94390800  0.45392500  1
  C  175  1  0.97551700  0.94270900  0.47914200  1
  C  176  1  0.99890400  0.92203100  0.49455400  1
  C  177  1  0.06938500  0.90332500  0.48513900  1
  C  178  1  0.28453400  0.92378400  0.49568100  1
  C  179  1  0.35502000  0.94248100  0.50502800  1
  C  180  1  0.40361900  0.94279200  0.47884900  1
  C  181  1  0.37867900  0.92354600  0.44288100  1
  C  182  1  0.30836300  0.90471000  0.43347200  1
  C  183  1  0.21599600  0.82864000  0.44747700  1
  C  184  1  0.21586200  0.79109600  0.42857400  1
  C  185  1  0.18896900  0.77167300  0.39294100  1
  C  186  1  0.16248300  0.79136200  0.37694200  1
  C  187  1  0.16303100  0.82891000  0.39575100  1
  C  200  1  0.25725100  0.47622100  0.03140100  1
  C  201  1  0.18597800  0.50522700  0.08808000  1
  C  202  1  0.11537000  0.47670000  0.03131800  1
  C  203  1  0.06726200  0.50307000  0.03153900  1
  C  204  1  0.99683300  0.49369600  0.01278000  1
  C  205  1  0.97211800  0.45770800  0.99333000  1
  C  206  1  0.02110400  0.43147700  0.99331800  1
  C  207  1  0.09163600  0.44079200  0.01196400  1
  C  208  1  0.30643000  0.45116500  0.03310200  1
  C  209  1  0.37698000  0.44151600  0.01443900  1
  C  210  1  0.40063900  0.45658700  0.99349100  1
  C  211  1  0.35057400  0.48168000  0.99196100  1
  C  212  1  0.28005400  0.49136300  0.01061300  1
  C  213  1  0.21300600  0.54065400  0.10711100  1
  C  214  1  0.21306100  0.55953100  0.14465500  1
  C  215  1  0.18563100  0.54366100  0.16431100  1
  C  216  1  0.15837700  0.50809100  0.14489200  1
  C  217  1  0.15877600  0.48911500  0.10735500  1
  C  459  1  0.76053300  0.99971000  0.50767000  1
  C  460  1  0.61871800  0.99977100  0.50751200  1
  C  461  1  0.59617900  0.97926600  0.52301200  1
  C  462  1  0.52567500  0.96059100  0.51358800  1
  C  463  1  0.47540700  0.96180800  0.48839200  1
  C  464  1  0.49878900  0.98249500  0.47298600  1
  C  465  1  0.56927600  0.00120100  0.48239900  1
  C  466  1  0.78454200  0.98059400  0.47178600  1
  C  467  1  0.85508500  0.96194700  0.46246200  1
  C  468  1  0.90369900  0.96168800  0.48866400  1
  C  469  1  0.87872800  0.98093200  0.52462700  1
  C  470  1  0.80834100  0.99971000  0.53401000  1
  H  20  1  0.80463500  0.32673300  0.75844500  1
  H  21  1  0.80433500  0.29456900  0.69454300  1
  H  22  1  0.56937300  0.31892600  0.69424100  1
  H  23  1  0.56829300  0.35055600  0.75815200  1
  H  24  1  0.57543100  0.24079700  0.64669800  1
  H  25  1  0.57615400  0.17697000  0.61478800  1
  H  26  1  0.79796100  0.32630700  0.64856700  1
  H  27  1  0.79877200  0.35798400  0.61639300  1
  H  28  1  0.57665500  0.31786800  0.57614600  1
  H  29  1  0.57652500  0.28638200  0.60862600  1
  H  30  1  0.80157200  0.24179500  0.61177100  1
  H  31  1  0.80344700  0.17789600  0.57994100  1
  H  51  1  0.07210300  0.54845100  0.20914600  1
  H  52  1  0.07311300  0.58014900  0.27301900  1
  H  53  1  0.29918500  0.61555400  0.27281900  1
  H  54  1  0.29935600  0.58372900  0.20895200  1
  H  55  1  0.07498800  0.66343500  0.32026000  1
  H  56  1  0.07536900  0.72728800  0.35233800  1
  H  57  1  0.29609000  0.57685300  0.31811100  1
  H  58  1  0.29473600  0.54433600  0.34951500  1
  H  59  1  0.07266800  0.58506800  0.38926100  1
  H  60  1  0.07482100  0.61738300  0.35770600  1
  H  61  1  0.29960400  0.66260500  0.35676000  1
  H  62  1  0.30119900  0.72647700  0.38870500  1
  H  82  1  0.90193900  0.48804900  0.54569400  1
  H  83  1  0.78232500  0.47370400  0.56156700  1
  H  84  1  0.75531500  0.38752600  0.45744400  1
  H  85  1  0.86953100  0.40446400  0.43956000  1
  H  86  1  0.65744400  0.44003400  0.47023900  1
  H  87  1  0.53962700  0.45655000  0.45497400  1
  H  88  1  0.71837900  0.44375200  0.58896100  1
  H  89  1  0.72012300  0.41034700  0.61914500  1
  H  90  1  0.65297700  0.31818000  0.52394100  1
  H  91  1  0.65255400  0.35203300  0.49376800  1
  H  92  1  0.54343100  0.42740500  0.54930800  1
  H  93  1  0.42491500  0.44392700  0.53384800  1
  H  101  1  0.51202800  0.94555500  0.52498600  1
  H  102  1  0.73630900  0.06261100  0.49450100  1
  H  103  1  0.73647900  0.12647700  0.52661900  1
  H  104  1  0.64411200  0.12577300  0.61653400  1
  H  105  1  0.64372000  0.06190400  0.58395700  1
  H  106  1  0.58439500  0.01598600  0.47092000  1
  H  126  1  0.91038600  0.48176600  0.95191600  1
  H  127  1  0.79004300  0.46549300  0.92047000  1
  H  128  1  0.74581200  0.39442300  0.95796400  1
  H  129  1  0.86474100  0.41111800  0.99034100  1
  H  130  1  0.58437700  0.37532100  0.92308600  1
  H  131  1  0.46421400  0.39110200  0.95470200  1
  H  132  1  0.74458200  0.35381300  0.87360900  1
  H  133  1  0.74514200  0.32168100  0.80975200  1
  H  134  1  0.62740800  0.40696300  0.80954100  1
  H  135  1  0.62779600  0.43887700  0.87336600  1
  H  136  1  0.62509500  0.48306300  0.95545700  1
  H  137  1  0.50613100  0.49938900  0.98784700  1
  H  157  1  0.43869500  0.50911700  0.48598700  1
  H  158  1  0.31938500  0.52448600  0.46963200  1
  H  159  1  0.21830100  0.43123800  0.45937200  1
  H  160  1  0.33591700  0.41654400  0.47671400  1
  H  161  1  0.11147500  0.42665900  0.41765500  1
  H  162  1  0.99747400  0.40868700  0.43455800  1
  H  163  1  0.21967700  0.46214200  0.38342000  1
  H  164  1  0.21944000  0.49242300  0.34968400  1
  H  165  1  0.14850400  0.58711300  0.44149300  1
  H  166  1  0.14949000  0.55674900  0.47472000  1
  H  167  1  0.09032000  0.52949000  0.50661600  1
  H  168  1  0.97037200  0.51376100  0.52099900  1
  H  188  1  0.36983600  0.95644700  0.53139500  1
  H  189  1  0.25066700  0.92413400  0.51517300  1
  H  190  1  0.29206200  0.89099500  0.40729700  1
  H  191  1  0.41229000  0.92247000  0.42296100  1
  H  192  1  0.13121000  0.92663600  0.42623500  1
  H  193  1  0.23502900  0.84190600  0.47326200  1
  H  194  1  0.23431100  0.77805200  0.44142300  1
  H  195  1  0.14367400  0.77850700  0.35110500  1
  H  196  1  0.14402600  0.84237600  0.38343300  1
  H  197  1  0.08451000  0.88854400  0.49662200  1
  H  198  1  0.96408000  0.91983800  0.51242000  1
  H  218  1  0.41165400  0.42374200  0.01685900  1
  H  219  1  0.29109800  0.43992400  0.04808200  1
  H  220  1  0.24522300  0.50951300  0.00893800  1
  H  221  1  0.36436600  0.49281600  0.97670300  1
  H  222  1  0.08335000  0.52926700  0.04545400  1
  H  223  1  0.96294300  0.51364500  0.01409900  1
  H  224  1  0.23261400  0.55287700  0.09364900  1
  H  225  1  0.23219300  0.58532000  0.15752800  1
  H  226  1  0.13926600  0.49534200  0.15793500  1
  H  227  1  0.13939500  0.46338800  0.09408000  1
  H  228  1  0.12569900  0.42126100  0.01141700  1
  H  229  1  0.00649800  0.40509200  0.97917900  1
  H  471  1  0.86992800  0.94798000  0.43609900  1
  H  472  1  0.75068700  0.98023100  0.45228400  1
  H  473  1  0.79203200  0.01344500  0.56018400  1
  H  474  1  0.91234800  0.98204300  0.54455800  1
  H  475  1  0.63119200  0.97781900  0.54123500  1
  H  476  1  0.46391800  0.98471900  0.45515400  1
  H  477  1  0.01209600  0.95894400  0.44252700  1
  N  1  1  0.68706200  0.28489000  0.65082000  1
  N  32  1  0.18670400  0.61937700  0.31651200  1
  N  63  1  0.68505300  0.42127100  0.52083600  1
  N  94  1  0.68968700  0.01865200  0.51709100  1
  N  107  1  0.68626000  0.41836700  0.91727300  1
  N  138  1  0.18474500  0.48900900  0.45247600  1
  N  169  1  0.18964800  0.88576200  0.45034200  1
  N  199  1  0.18624800  0.48610000  0.05025900  1
