# generated using pymatgen
data_H24C41N4
_symmetry_space_group_name_H-M   'P 1'
_cell_length_a   17.05242500
_cell_length_b   17.05240000
_cell_length_c   51.15720000
_cell_angle_alpha   89.99770000
_cell_angle_beta   89.99769999
_cell_angle_gamma   119.99985451
_symmetry_Int_Tables_number   1
_chemical_formula_structural   H24C41N4
_chemical_formula_sum   'H72 C123 N12'
_cell_volume   12882.78303178
_cell_formula_units_Z   3
loop_
 _symmetry_equiv_pos_site_id
 _symmetry_equiv_pos_as_xyz
  1  'x, y, z'
loop_
 _atom_site_type_symbol
 _atom_site_label
 _atom_site_symmetry_multiplicity
 _atom_site_fract_x
 _atom_site_fract_y
 _atom_site_fract_z
 _atom_site_occupancy
  C  1  1  0.94984600  0.13924100  0.98906400  1
  C  2  1  0.87728000  0.15580600  0.98934650  1
  C  3  1  0.79628550  0.07336250  0.98958000  1
  C  4  1  0.81563950  0.00270050  0.98937300  1
  C  5  1  0.74394650  0.91158550  0.98984800  1
  C  6  1  0.65242950  0.89129950  0.99038200  1
  C  7  1  0.63542250  0.96484050  0.99119400  1
  C  8  1  0.70643400  0.05539400  0.99057900  1
  C  9  1  0.89237400  0.24476300  0.98946000  1
  C  10  1  0.98199500  0.31770800  0.98934150  1
  C  11  1  0.05675650  0.30313550  0.98918400  1
  C  12  1  0.04007400  0.21275400  0.98900600  1
  C  13  1  0.94880150  0.00941850  0.01153700  1
  C  14  1  0.99461200  0.96572500  0.00255400  1
  C  15  1  0.99382150  0.96523250  0.97533600  1
  C  16  1  0.94750650  0.00861550  0.96650850  1
  C  17  1  0.03167050  0.93039050  0.95760700  1
  C  18  1  0.02204350  0.93917050  0.93061050  1
  C  19  1  0.97404350  0.98137050  0.92102450  1
  C  20  1  0.93794500  0.01741100  0.93934000  1
  C  21  1  0.93974850  0.01819450  0.03873400  1
  C  22  1  0.97781000  0.98381000  0.05693200  1
  C  23  1  0.02238800  0.93832000  0.04719300  1
  C  24  1  0.03153500  0.92959100  0.02016300  1
  C  37  1  0.91539900  0.03999000  0.98908400  1
  C  42  1  0.13382600  0.00571000  0.32240000  1
  C  43  1  0.22294900  0.07829700  0.32268000  1
  C  44  1  0.22146600  0.15927700  0.32291400  1
  C  45  1  0.13143900  0.13989000  0.32270900  1
  C  46  1  0.11198400  0.21156000  0.32317900  1
  C  47  1  0.18319500  0.30308300  0.32370700  1
  C  48  1  0.27375200  0.32012800  0.32451700  1
  C  49  1  0.29332900  0.24913900  0.32391500  1
  C  50  1  0.29682750  0.06322550  0.32279200  1
  C  51  1  0.28017850  0.97361350  0.32266900  1
  C  52  1  0.19085400  0.89883400  0.32251300  1
  C  53  1  0.11714150  0.91549350  0.32233900  1
  C  54  1  0.00501450  0.00669450  0.34487100  1
  C  55  1  0.91551500  0.96085600  0.33588800  1
  C  56  1  0.91582400  0.96164800  0.30867000  1
  C  57  1  0.00552150  0.00798950  0.29984200  1
  C  58  1  0.84313700  0.92376200  0.29094200  1
  C  59  1  0.86155150  0.93341150  0.26394500  1
  C  60  1  0.95175100  0.98144700  0.25435900  1
  C  61  1  0.02388650  0.01757550  0.27267300  1
  C  62  1  0.02283700  0.01575200  0.37206900  1
  C  63  1  0.95037950  0.97765550  0.39026600  1
  C  64  1  0.86031850  0.93304450  0.38052500  1
  C  65  1  0.84245200  0.92391700  0.35349700  1
  C  78  1  0.06899900  0.04012600  0.32242000  1
  C  83  1  0.81633950  0.82166150  0.65574250  1
  C  84  1  0.79981400  0.73254300  0.65602500  1
  C  85  1  0.88228150  0.73403750  0.65626150  1
  C  86  1  0.95291500  0.82406800  0.65604700  1
  C  87  1  0.04404850  0.84353850  0.65651800  1
  C  88  1  0.06437250  0.77233350  0.65704600  1
  C  89  1  0.99086850  0.68177450  0.65786600  1
  C  90  1  0.90029900  0.66218400  0.65726600  1
  C  91  1  0.71086850  0.65865750  0.65614350  1
  C  92  1  0.63789550  0.67529450  0.65601650  1
  C  93  1  0.65242900  0.76461400  0.65585500  1
  C  94  1  0.74280200  0.83833600  0.65568000  1
  C  95  1  0.94613500  0.95048600  0.67820700  1
  C  96  1  0.98975750  0.03998250  0.66921700  1
  C  97  1  0.99024000  0.03966800  0.64199850  1
  C  98  1  0.94690600  0.94997000  0.63317900  1
  C  99  1  0.02501300  0.11234700  0.62426600  1
  C  100  1  0.01625600  0.09392500  0.59727100  1
  C  101  1  0.97416100  0.00372700  0.58768800  1
  C  102  1  0.93813550  0.93159750  0.60600900  1
  C  103  1  0.93735700  0.93267200  0.70540500  1
  C  104  1  0.97169750  0.00513050  0.72359700  1
  C  105  1  0.01712600  0.09519200  0.71385200  1
  C  106  1  0.02586150  0.11304750  0.68682200  1
  C  119  1  0.91558100  0.88649800  0.65575700  1
  C  124  1  0.95653500  0.06403800  0.81513650  1
  C  125  1  0.95706700  0.04327800  0.84178800  1
  C  126  1  0.95775250  0.96398550  0.84958250  1
  C  127  1  0.95766100  0.90653000  0.82951450  1
  C  128  1  0.95722450  0.92733550  0.80286200  1
  C  129  1  0.95677850  0.00675050  0.79506900  1
  C  134  1  0.95889750  0.03112550  0.76884800  1
  C  136  1  0.96102100  0.94234900  0.87579950  1
  C  138  1  0.05198750  0.99912650  0.14846800  1
  C  139  1  0.03069350  0.99857050  0.17512000  1
  C  140  1  0.95063850  0.99772550  0.18291600  1
  C  141  1  0.89322300  0.99773400  0.16285100  1
  C  142  1  0.91446500  0.99818000  0.13619800  1
  C  143  1  0.99438550  0.99875350  0.12840200  1
  C  148  1  0.01663950  0.99664750  0.10217900  1
  C  150  1  0.92574650  0.99446850  0.20913500  1
  C  152  1  0.89152250  0.90350850  0.48180400  1
  C  153  1  0.91226300  0.92480700  0.50845500  1
  C  154  1  0.99149500  0.00484200  0.51624800  1
  C  155  1  0.04891400  0.06226100  0.49618000  1
  C  156  1  0.02811600  0.04101600  0.46952700  1
  C  157  1  0.94875800  0.96110200  0.46173600  1
  C  162  1  0.92439900  0.93883900  0.43551400  1
  C  164  1  0.01315050  0.02971450  0.54246500  1
  C  166  1  0.38414550  0.51439350  0.98956900  1
  C  167  1  0.45481000  0.60558700  0.98834200  1
  C  168  1  0.43586000  0.67732600  0.98671000  1
  C  169  1  0.34364900  0.65411400  0.98688750  1
  C  170  1  0.27338800  0.56336000  0.98819850  1
  C  171  1  0.29173450  0.49099550  0.98930750  1
  C  176  1  0.22216700  0.40005200  0.98980000  1
  C  178  1  0.50246550  0.76818450  0.98368000  1
  C  180  1  0.07464900  0.57143600  0.32296100  1
  C  181  1  0.09511200  0.50072900  0.32172200  1
  C  182  1  0.18576150  0.51961350  0.31998400  1
  C  183  1  0.25479300  0.61181500  0.32005300  1
  C  184  1  0.23436800  0.68212100  0.32138800  1
  C  185  1  0.14369200  0.66383200  0.32260700  1
  C  190  1  0.12236350  0.73343250  0.32312250  1
  C  192  1  0.20991800  0.45295200  0.31692100  1
  C  194  1  0.44123700  0.88081900  0.65639900  1
  C  195  1  0.35007700  0.86038500  0.65513900  1
  C  196  1  0.27832900  0.76976800  0.65326400  1
  C  197  1  0.30149400  0.70073100  0.65323450  1
  C  198  1  0.39221200  0.72113200  0.65458350  1
  C  199  1  0.46459100  0.81178200  0.65593300  1
  C  204  1  0.55551950  0.83310050  0.65646800  1
  C  206  1  0.18751300  0.74565300  0.65021250  1
  H  25  1  0.04767850  0.90982850  0.05975000  1
  H  26  1  0.06368650  0.89644450  0.01357300  1
  H  27  1  0.06656250  0.89990250  0.96408900  1
  H  28  1  0.05166600  0.91534000  0.91796100  1
  H  29  1  0.90439750  0.04956950  0.93302700  1
  H  30  1  0.90584100  0.04986400  0.04515500  1
  H  31  1  0.75871500  0.86038100  0.98979900  1
  H  32  1  0.57074500  0.95330500  0.99263100  1
  H  33  1  0.69242850  0.10702850  0.99126200  1
  H  34  1  0.09269600  0.20019100  0.98885850  1
  H  35  1  0.83939000  0.25678800  0.98965100  1
  H  36  1  0.99225200  0.38222800  0.98945000  1
  H  66  1  0.80652850  0.90772050  0.39308200  1
  H  67  1  0.77715900  0.89171100  0.34690500  1
  H  68  1  0.77775800  0.88886700  0.29742200  1
  H  69  1  0.80810200  0.90377200  0.25129600  1
  H  70  1  0.08959550  0.05115150  0.26636100  1
  H  71  1  0.08841300  0.04968400  0.37848800  1
  H  72  1  0.04600400  0.19677000  0.32313300  1
  H  73  1  0.32687400  0.38482300  0.32594600  1
  H  74  1  0.35897750  0.26317250  0.32458300  1
  H  75  1  0.05195950  0.86285950  0.32218800  1
  H  76  1  0.36183000  0.11622200  0.32298100  1
  H  77  1  0.33445500  0.96337900  0.32277200  1
  H  107  1  0.04555650  0.14898650  0.72640400  1
  H  108  1  0.05890150  0.17834150  0.68022700  1
  H  109  1  0.05546350  0.17772850  0.63074300  1
  H  110  1  0.04004100  0.14736700  0.58461650  1
  H  111  1  0.90601150  0.86588750  0.59970200  1
  H  112  1  0.90573450  0.86709650  0.71182900  1
  H  113  1  0.09523200  0.90952200  0.65646600  1
  H  114  1  0.00245850  0.62866050  0.65929200  1
  H  115  1  0.84868850  0.59653350  0.65793850  1
  H  116  1  0.75534000  0.90351200  0.65552350  1
  H  117  1  0.69887150  0.59365950  0.65633350  1
  H  118  1  0.57338900  0.62101500  0.65611850  1
  H  130  1  0.95878700  0.84864900  0.83410850  1
  H  131  1  0.95769100  0.08739100  0.85546000  1
  H  132  1  0.95686300  0.12265400  0.81054150  1
  H  133  1  0.95794350  0.88390450  0.78918700  1
  H  135  1  0.95678150  0.08731550  0.76509700  1
  H  137  1  0.96049300  0.88480800  0.87955000  1
  H  144  1  0.83415800  0.99648700  0.16744600  1
  H  145  1  0.07422900  0.99803600  0.18879000  1
  H  146  1  0.11031950  0.99889450  0.14387000  1
  H  147  1  0.87025950  0.99735950  0.12252400  1
  H  149  1  0.07493950  0.99875750  0.09842600  1
  H  151  1  0.86872950  0.99498950  0.21288700  1
  H  158  1  0.10675600  0.12129800  0.50077200  1
  H  159  1  0.86820950  0.88125550  0.52212900  1
  H  160  1  0.83295800  0.84517700  0.47721000  1
  H  161  1  0.07151350  0.08520950  0.45585200  1
  H  163  1  0.86820900  0.88053700  0.43176400  1
  H  165  1  0.07072150  0.08669950  0.54621600  1
  H  172  1  0.32628350  0.70349250  0.98573800  1
  H  173  1  0.52036900  0.61897100  0.98797950  1
  H  174  1  0.40111100  0.46471100  0.99027900  1
  H  175  1  0.20814950  0.55095450  0.98796400  1
  H  177  1  0.23773600  0.35118000  0.99056750  1
  H  179  1  0.48338500  0.80828800  0.97506100  1
  H  186  1  0.32150900  0.62913800  0.31881000  1
  H  187  1  0.04291050  0.43517650  0.32141900  1
  H  188  1  0.00802200  0.55450800  0.32375100  1
  H  189  1  0.28721550  0.74734650  0.32106400  1
  H  191  1  0.05793400  0.71788700  0.32392400  1
  H  193  1  0.26896300  0.47192400  0.30822400  1
  H  200  1  0.25211400  0.63404100  0.65189050  1
  H  201  1  0.33673350  0.91258950  0.65492450  1
  H  202  1  0.49093150  0.94743050  0.65728400  1
  H  203  1  0.40459650  0.66829350  0.65417100  1
  H  205  1  0.60440100  0.89752400  0.65729550  1
  H  207  1  0.14743300  0.68667100  0.64148800  1
  N  38  1  0.96648850  0.99263450  0.89538900  1
  N  39  1  0.13805550  0.37772950  0.98914600  1
  N  40  1  0.58544150  0.80429750  0.99150400  1
  N  41  1  0.96603850  0.99036850  0.08258800  1
  N  79  1  0.97057500  0.98900700  0.22872200  1
  N  80  1  0.18416600  0.81753800  0.32245900  1
  N  81  1  0.16317600  0.37006500  0.32483300  1
  N  82  1  0.96871950  0.98943750  0.41592000  1
  N  120  1  0.96285050  0.98490250  0.56205600  1
  N  121  1  0.57781850  0.77129650  0.65579250  1
  N  122  1  0.15137500  0.79235600  0.65816400  1
  N  123  1  0.96514500  0.98679800  0.74925300  1
