# generated using pymatgen
data_Zn6Cr3H36C72N6O43
_symmetry_space_group_name_H-M   'P 1'
_cell_length_a   19.42978000
_cell_length_b   19.42956000
_cell_length_c   35.75889000
_cell_angle_alpha   89.99597000
_cell_angle_beta   89.98999000
_cell_angle_gamma   119.95604000
_symmetry_Int_Tables_number   1
_chemical_formula_structural   Zn6Cr3H36C72N6O43
_chemical_formula_sum   'Zn12 Cr6 H72 C144 N12 O86'
_cell_volume   11696.00930639
_cell_formula_units_Z   2
loop_
 _symmetry_equiv_pos_site_id
 _symmetry_equiv_pos_as_xyz
  1  'x, y, z'
loop_
 _atom_site_type_symbol
 _atom_site_label
 _atom_site_symmetry_multiplicity
 _atom_site_fract_x
 _atom_site_fract_y
 _atom_site_fract_z
 _atom_site_occupancy
  Zn  Zn0  1  0.96516000  0.48258000  0.96488000  1
  Zn  Zn1  1  0.03484000  0.51744000  0.46489000  1
  Zn  Zn2  1  0.51741000  0.48256000  0.96490000  1
  Zn  Zn3  1  0.48259000  0.51743000  0.03511000  1
  Zn  Zn4  1  0.51743000  0.03485000  0.96489000  1
  Zn  Zn5  1  0.48259000  0.51744000  0.46487000  1
  Zn  Zn6  1  0.03484000  0.51742000  0.03511000  1
  Zn  Zn7  1  0.51742000  0.48258000  0.53511000  1
  Zn  Zn8  1  0.96517000  0.48256000  0.53511000  1
  Zn  Zn9  1  0.48260000  0.96518000  0.46488000  1
  Zn  Zn10  1  0.51741000  0.03482000  0.53511000  1
  Zn  Zn11  1  0.48257000  0.96515000  0.03512000  1
  Cr  Cr12  1  0.56112000  0.28054000  0.74998000  1
  Cr  Cr13  1  0.28063000  0.56128000  0.24996000  1
  Cr  Cr14  1  0.28058000  0.71938000  0.24998000  1
  Cr  Cr15  1  0.43891000  0.71943000  0.24999000  1
  Cr  Cr16  1  0.71940000  0.28053000  0.74999000  1
  Cr  Cr17  1  0.71934000  0.43871000  0.74999000  1
  H  H18  1  0.61090000  0.73423000  0.90928000  1
  H  H19  1  0.38913000  0.12337000  0.40928000  1
  H  H20  1  0.61083000  0.87665000  0.59069000  1
  H  H21  1  0.38907000  0.26579000  0.40927000  1
  H  H22  1  0.14058000  0.45710000  0.34481000  1
  H  H23  1  0.35218000  0.91846000  0.40979000  1
  H  H24  1  0.85924000  0.31659000  0.84476000  1
  H  H25  1  0.87662000  0.26571000  0.09072000  1
  H  H26  1  0.46237000  0.31982000  0.84405000  1
  H  H27  1  0.12345000  0.73439000  0.90924000  1
  H  H28  1  0.64767000  0.56612000  0.90978000  1
  H  H29  1  0.31652000  0.85919000  0.34483000  1
  H  H30  1  0.56427000  0.64678000  0.09119000  1
  H  H31  1  0.56614000  0.91822000  0.09021000  1
  H  H32  1  0.08251000  0.43560000  0.09115000  1
  H  H33  1  0.26584000  0.38910000  0.90929000  1
  H  H34  1  0.64695000  0.08266000  0.90877000  1
  H  H35  1  0.61085000  0.87666000  0.90929000  1
  H  H36  1  0.53750000  0.68016000  0.15588000  1
  H  H37  1  0.14075000  0.68334000  0.15515000  1
  H  H38  1  0.14225000  0.68002000  0.34398000  1
  H  H39  1  0.54281000  0.68362000  0.34471000  1
  H  H40  1  0.54276000  0.85928000  0.15522000  1
  H  H41  1  0.53773000  0.85751000  0.34403000  1
  H  H42  1  0.91744000  0.35302000  0.59121000  1
  H  H43  1  0.56439000  0.91743000  0.40871000  1
  H  H44  1  0.91734000  0.56426000  0.90878000  1
  H  H45  1  0.56636000  0.64801000  0.40970000  1
  H  H46  1  0.46241000  0.14261000  0.65589000  1
  H  H47  1  0.87670000  0.26574000  0.40925000  1
  H  H48  1  0.45728000  0.31651000  0.65518000  1
  H  H49  1  0.68338000  0.54256000  0.84478000  1
  H  H50  1  0.35302000  0.91732000  0.09120000  1
  H  H51  1  0.14237000  0.46203000  0.15583000  1
  H  H52  1  0.45723000  0.14073000  0.84476000  1
  H  H53  1  0.38904000  0.26571000  0.09077000  1
  H  H54  1  0.38910000  0.12331000  0.09075000  1
  H  H55  1  0.12334000  0.38914000  0.59072000  1
  H  H56  1  0.12341000  0.38915000  0.90928000  1
  H  H57  1  0.43384000  0.08172000  0.90980000  1
  H  H58  1  0.43570000  0.08252000  0.59124000  1
  H  H59  1  0.08268000  0.64700000  0.40878000  1
  H  H60  1  0.35231000  0.43377000  0.09019000  1
  H  H61  1  0.87670000  0.61086000  0.40929000  1
  H  H62  1  0.08166000  0.43384000  0.40984000  1
  H  H63  1  0.73432000  0.12340000  0.09075000  1
  H  H64  1  0.85937000  0.54279000  0.65518000  1
  H  H65  1  0.32006000  0.46263000  0.34401000  1
  H  H66  1  0.64679000  0.56417000  0.59120000  1
  H  H67  1  0.26578000  0.38911000  0.59073000  1
  H  H68  1  0.73428000  0.61091000  0.09074000  1
  H  H69  1  0.43379000  0.35217000  0.59019000  1
  H  H70  1  0.85771000  0.31988000  0.65596000  1
  H  H71  1  0.73426000  0.61090000  0.40927000  1
  H  H72  1  0.43569000  0.35312000  0.90879000  1
  H  H73  1  0.61090000  0.73423000  0.59072000  1
  H  H74  1  0.31648000  0.45732000  0.15512000  1
  H  H75  1  0.91843000  0.56617000  0.59018000  1
  H  H76  1  0.64785000  0.08141000  0.59019000  1
  H  H77  1  0.68012000  0.14235000  0.84401000  1
  H  H78  1  0.73440000  0.12344000  0.40923000  1
  H  H79  1  0.12337000  0.73430000  0.59075000  1
  H  H80  1  0.31982000  0.85766000  0.15594000  1
  H  H81  1  0.68359000  0.14075000  0.65510000  1
  H  H82  1  0.26577000  0.87669000  0.90927000  1
  H  H83  1  0.26568000  0.87660000  0.59073000  1
  H  H84  1  0.85759000  0.53785000  0.84405000  1
  H  H85  1  0.87669000  0.61083000  0.09068000  1
  H  H86  1  0.35333000  0.43596000  0.40871000  1
  H  H87  1  0.91835000  0.35213000  0.90977000  1
  H  H88  1  0.08154000  0.64779000  0.09018000  1
  H  H89  1  0.68005000  0.53757000  0.65590000  1
  C  C90  1  0.60862000  0.09520000  0.60623000  1
  C  C91  1  0.16766000  0.40823000  0.56887000  1
  C  C92  1  0.39339000  0.48946000  0.39319000  1
  C  C93  1  0.09518000  0.60849000  0.10624000  1
  C  C94  1  0.72374000  0.16295000  0.03490000  1
  C  C95  1  0.42964000  0.57514000  0.33941000  1
  C  C96  1  0.87113000  0.49592000  0.85757000  1
  C  C97  1  0.49986000  0.37219000  0.64206000  1
  C  C98  1  0.12882000  0.50398000  0.14234000  1
  C  C99  1  0.51085000  0.90399000  0.39322000  1
  C  C100  1  0.10310000  0.64534000  0.52026000  1
  C  C101  1  0.24056000  0.40821000  0.56886000  1
  C  C102  1  0.60671000  0.51072000  0.60674000  1
  C  C103  1  0.35469000  0.45779000  0.52024000  1
  C  C104  1  0.10310000  0.64533000  0.97972000  1
  C  C105  1  0.12872000  0.62463000  0.35756000  1
  C  C106  1  0.35471000  0.45778000  0.97974000  1
  C  C107  1  0.54222000  0.89694000  0.97974000  1
  C  C108  1  0.87234000  0.50008000  0.64207000  1
  C  C109  1  0.27627000  0.43919000  0.53488000  1
  C  C110  1  0.89695000  0.54223000  0.47975000  1
  C  C111  1  0.48917000  0.39313000  0.89325000  1
  C  C112  1  0.85451000  0.42511000  0.83945000  1
  C  C113  1  0.54222000  0.89692000  0.52024000  1
  C  C114  1  0.64531000  0.54222000  0.02027000  1
  C  C115  1  0.49588000  0.87112000  0.35758000  1
  C  C116  1  0.45779000  0.10309000  0.47975000  1
  C  C117  1  0.16765000  0.75945000  0.56888000  1
  C  C118  1  0.83710000  0.56080000  0.46512000  1
  C  C119  1  0.09526000  0.48671000  0.39373000  1
  C  C120  1  0.50023000  0.62797000  0.35786000  1
  C  C121  1  0.57044000  0.42501000  0.66052000  1
  C  C122  1  0.49574000  0.62472000  0.14234000  1
  C  C123  1  0.09592000  0.48907000  0.10671000  1
  C  C124  1  0.45778000  0.10306000  0.02028000  1
  C  C125  1  0.16295000  0.72374000  0.96508000  1
  C  C126  1  0.59177000  0.83233000  0.93114000  1
  C  C127  1  0.83708000  0.56079000  0.03486000  1
  C  C128  1  0.90396000  0.51081000  0.89322000  1
  C  C129  1  0.62773000  0.49999000  0.85793000  1
  C  C130  1  0.12767000  0.62768000  0.14201000  1
  C  C131  1  0.24058000  0.83237000  0.93113000  1
  C  C132  1  0.60848000  0.51320000  0.89372000  1
  C  C133  1  0.40455000  0.59154000  0.19701000  1
  C  C134  1  0.51329000  0.90472000  0.10631000  1
  C  C135  1  0.89690000  0.35467000  0.47974000  1
  C  C136  1  0.12760000  0.49982000  0.35792000  1
  C  C137  1  0.27625000  0.83706000  0.53490000  1
  C  C138  1  0.42496000  0.57057000  0.16046000  1
  C  C139  1  0.24051000  0.83231000  0.56887000  1
  C  C140  1  0.72375000  0.16295000  0.46508000  1
  C  C141  1  0.50012000  0.87237000  0.14212000  1
  C  C142  1  0.09600000  0.60685000  0.39323000  1
  C  C143  1  0.39147000  0.48668000  0.10626000  1
  C  C144  1  0.59150000  0.18682000  0.80290000  1
  C  C145  1  0.24060000  0.40821000  0.93114000  1
  C  C146  1  0.37549000  0.50440000  0.35755000  1
  C  C147  1  0.39145000  0.90476000  0.39373000  1
  C  C148  1  0.64531000  0.54221000  0.47975000  1
  C  C149  1  0.90405000  0.39313000  0.60675000  1
  C  C150  1  0.85453000  0.42943000  0.66052000  1
  C  C151  1  0.40823000  0.16769000  0.43113000  1
  C  C152  1  0.40855000  0.81326000  0.19711000  1
  C  C153  1  0.83232000  0.24054000  0.06886000  1
  C  C154  1  0.59135000  0.40457000  0.69707000  1
  C  C155  1  0.43920000  0.27631000  0.46510000  1
  C  C156  1  0.16772000  0.75951000  0.93111000  1
  C  C157  1  0.75946000  0.59179000  0.06887000  1
  C  C158  1  0.89693000  0.54222000  0.02024000  1
  C  C159  1  0.49989000  0.12769000  0.85789000  1
  C  C160  1  0.75953000  0.16772000  0.43110000  1
  C  C161  1  0.62790000  0.12771000  0.64200000  1
  C  C162  1  0.14537000  0.57044000  0.33944000  1
  C  C163  1  0.40869000  0.59549000  0.30285000  1
  C  C164  1  0.42951000  0.85466000  0.16058000  1
  C  C165  1  0.57509000  0.14556000  0.66047000  1
  C  C166  1  0.48665000  0.39141000  0.60627000  1
  C  C167  1  0.16771000  0.40824000  0.93114000  1
  C  C168  1  0.72374000  0.56082000  0.46512000  1
  C  C169  1  0.37221000  0.87228000  0.35795000  1
  C  C170  1  0.16291000  0.43921000  0.53489000  1
  C  C171  1  0.40821000  0.24058000  0.43113000  1
  C  C172  1  0.50426000  0.12895000  0.64237000  1
  C  C173  1  0.16294000  0.43922000  0.96511000  1
  C  C174  1  0.83708000  0.27628000  0.46509000  1
  C  C175  1  0.35466000  0.89690000  0.52027000  1
  C  C176  1  0.62459000  0.49577000  0.64239000  1
  C  C177  1  0.64535000  0.10311000  0.47972000  1
  C  C178  1  0.60683000  0.09601000  0.89322000  1
  C  C179  1  0.18690000  0.59539000  0.19699000  1
  C  C180  1  0.87123000  0.37528000  0.64241000  1
  C  C181  1  0.89691000  0.35468000  0.02027000  1
  C  C182  1  0.50415000  0.37524000  0.85760000  1
  C  C183  1  0.43922000  0.16294000  0.46511000  1
  C  C184  1  0.51078000  0.60676000  0.10672000  1
  C  C185  1  0.83236000  0.59178000  0.43114000  1
  C  C186  1  0.54221000  0.64529000  0.52027000  1
  C  C187  1  0.83235000  0.59177000  0.06884000  1
  C  C188  1  0.51344000  0.60877000  0.39365000  1
  C  C189  1  0.43921000  0.16291000  0.03492000  1
  C  C190  1  0.18679000  0.59139000  0.30290000  1
  C  C191  1  0.90472000  0.39142000  0.89369000  1
  C  C192  1  0.56080000  0.72371000  0.53488000  1
  C  C193  1  0.59178000  0.75943000  0.56885000  1
  C  C194  1  0.59551000  0.18688000  0.69703000  1
  C  C195  1  0.64535000  0.10312000  0.02026000  1
  C  C196  1  0.81312000  0.40457000  0.80291000  1
  C  C197  1  0.83706000  0.27628000  0.03489000  1
  C  C198  1  0.27627000  0.83707000  0.96511000  1
  C  C199  1  0.48671000  0.09530000  0.89370000  1
  C  C200  1  0.59544000  0.40846000  0.80295000  1
  C  C201  1  0.87229000  0.37224000  0.85791000  1
  C  C202  1  0.40819000  0.24054000  0.06890000  1
  C  C203  1  0.56079000  0.83707000  0.53486000  1
  C  C204  1  0.37531000  0.87126000  0.14244000  1
  C  C205  1  0.72373000  0.56082000  0.03490000  1
  C  C206  1  0.56079000  0.83708000  0.96512000  1
  C  C207  1  0.57052000  0.14544000  0.83944000  1
  C  C208  1  0.81313000  0.40846000  0.69706000  1
  C  C209  1  0.42502000  0.85442000  0.33951000  1
  C  C210  1  0.35466000  0.89689000  0.97975000  1
  C  C211  1  0.56081000  0.72372000  0.96513000  1
  C  C212  1  0.90478000  0.51326000  0.60627000  1
  C  C213  1  0.48925000  0.09602000  0.60675000  1
  C  C214  1  0.45779000  0.35469000  0.02027000  1
  C  C215  1  0.16293000  0.72373000  0.53490000  1
  C  C216  1  0.14548000  0.57482000  0.16045000  1
  C  C217  1  0.54221000  0.64529000  0.97975000  1
  C  C218  1  0.75947000  0.16768000  0.06887000  1
  C  C219  1  0.62469000  0.12880000  0.85756000  1
  C  C220  1  0.59176000  0.83232000  0.56884000  1
  C  C221  1  0.57493000  0.42939000  0.83948000  1
  C  C222  1  0.75947000  0.59179000  0.43114000  1
  C  C223  1  0.43919000  0.27627000  0.03492000  1
  C  C224  1  0.45780000  0.35473000  0.47972000  1
  C  C225  1  0.59179000  0.75944000  0.93114000  1
  C  C226  1  0.10306000  0.45777000  0.52026000  1
  C  C227  1  0.83238000  0.24058000  0.43111000  1
  C  C228  1  0.40452000  0.81292000  0.30301000  1
  C  C229  1  0.40821000  0.16765000  0.06890000  1
  C  C230  1  0.10308000  0.45778000  0.97975000  1
  C  C231  1  0.27629000  0.43918000  0.96512000  1
  C  C232  1  0.39317000  0.90403000  0.10677000  1
  C  C233  1  0.37217000  0.49995000  0.14202000  1
  N  N234  1  0.92015000  0.45931000  0.91096000  1
  N  N235  1  0.46104000  0.54090000  0.41093000  1
  N  N236  1  0.45936000  0.53908000  0.08901000  1
  N  N237  1  0.54061000  0.46079000  0.91098000  1
  N  N238  1  0.46084000  0.92015000  0.08902000  1
  N  N239  1  0.07973000  0.54060000  0.08899000  1
  N  N240  1  0.54072000  0.07977000  0.58900000  1
  N  N241  1  0.53916000  0.07986000  0.91097000  1
  N  N242  1  0.92022000  0.46080000  0.58900000  1
  N  N243  1  0.07987000  0.53921000  0.41100000  1
  N  N244  1  0.45935000  0.92019000  0.41098000  1
  N  N245  1  0.53906000  0.45927000  0.58900000  1
  O  O246  1  0.62863000  0.11074000  0.98670000  1
  O  O247  1  0.11074000  0.62863000  0.48670000  1
  O  O248  1  0.62864000  0.11073000  0.51328000  1
  O  O249  1  0.65625000  0.19507000  0.71550000  1
  O  O250  1  0.95096000  0.39914000  0.04360000  1
  O  O251  1  0.51787000  0.88930000  0.48669000  1
  O  O252  1  0.66385000  0.21580000  0.79223000  1
  O  O253  1  0.53887000  0.34378000  0.71550000  1
  O  O254  1  0.34378000  0.53904000  0.21546000  1
  O  O255  1  0.44793000  0.66388000  0.20768000  1
  O  O256  1  0.37142000  0.48218000  0.48669000  1
  O  O257  1  0.77118000  0.54232000  0.48641000  1
  O  O258  1  0.46102000  0.80492000  0.21558000  1
  O  O259  1  0.45769000  0.22883000  0.01363000  1
  O  O260  1  0.78414000  0.44795000  0.79219000  1
  O  O261  1  0.88927000  0.37138000  0.51330000  1
  O  O262  1  0.11069000  0.48211000  0.48671000  1
  O  O263  1  0.62859000  0.51784000  0.51330000  1
  O  O264  1  0.48214000  0.37141000  0.51327000  1
  O  O265  1  0.48216000  0.37138000  0.98672000  1
  O  O266  1  0.54231000  0.77117000  0.98642000  1
  O  O267  1  0.33341000  0.66666667  0.24999000  1
  O  O268  1  0.44782000  0.78374000  0.29243000  1
  O  O269  1  0.77116000  0.54232000  0.01359000  1
  O  O270  1  0.37141000  0.48215000  0.01329000  1
  O  O271  1  0.46124000  0.65622000  0.28440000  1
  O  O272  1  0.33636000  0.55220000  0.29217000  1
  O  O273  1  0.51789000  0.88931000  0.01330000  1
  O  O274  1  0.39913000  0.95096000  0.95641000  1
  O  O275  1  0.95098000  0.39914000  0.45640000  1
  O  O276  1  0.11073000  0.62864000  0.01328000  1
  O  O277  1  0.55212000  0.33613000  0.79226000  1
  O  O278  1  0.48210000  0.11070000  0.98672000  1
  O  O279  1  0.66666667  0.33327000  0.75000000  1
  O  O280  1  0.95103000  0.55183000  0.45640000  1
  O  O281  1  0.62861000  0.51786000  0.98672000  1
  O  O282  1  0.21582000  0.66376000  0.29223000  1
  O  O283  1  0.37138000  0.88927000  0.01331000  1
  O  O284  1  0.44818000  0.39918000  0.04361000  1
  O  O285  1  0.39912000  0.95095000  0.54360000  1
  O  O286  1  0.22882000  0.45769000  0.51359000  1
  O  O287  1  0.45770000  0.22886000  0.48639000  1
  O  O288  1  0.44818000  0.04897000  0.04361000  1
  O  O289  1  0.53901000  0.19517000  0.78446000  1
  O  O290  1  0.60088000  0.04905000  0.04360000  1
  O  O291  1  0.55215000  0.21593000  0.70770000  1
  O  O292  1  0.39916000  0.44819000  0.54359000  1
  O  O293  1  0.77115000  0.22885000  0.48638000  1
  O  O294  1  0.88930000  0.51786000  0.98668000  1
  O  O295  1  0.33617000  0.78418000  0.20776000  1
  O  O296  1  0.80470000  0.46091000  0.71549000  1
  O  O297  1  0.60081000  0.55182000  0.04362000  1
  O  O298  1  0.19515000  0.53893000  0.28445000  1
  O  O299  1  0.51786000  0.62859000  0.48672000  1
  O  O300  1  0.51783000  0.62858000  0.01330000  1
  O  O301  1  0.88932000  0.51789000  0.51330000  1
  O  O302  1  0.66368000  0.44787000  0.70775000  1
  O  O303  1  0.21593000  0.55203000  0.20768000  1
  O  O304  1  0.60084000  0.55182000  0.45640000  1
  O  O305  1  0.65621000  0.46098000  0.78451000  1
  O  O306  1  0.34384000  0.80476000  0.28451000  1
  O  O307  1  0.55181000  0.60082000  0.95640000  1
  O  O308  1  0.22885000  0.77115000  0.51360000  1
  O  O309  1  0.60088000  0.04905000  0.45639000  1
  O  O310  1  0.48213000  0.11071000  0.51330000  1
  O  O311  1  0.11071000  0.48213000  0.01330000  1
  O  O312  1  0.80476000  0.34369000  0.78451000  1
  O  O313  1  0.55182000  0.95101000  0.95640000  1
  O  O314  1  0.88929000  0.37139000  0.98671000  1
  O  O315  1  0.78418000  0.33612000  0.70776000  1
  O  O316  1  0.39921000  0.44819000  0.95639000  1
  O  O317  1  0.22883000  0.77113000  0.98639000  1
  O  O318  1  0.04901000  0.44818000  0.95641000  1
  O  O319  1  0.44820000  0.39923000  0.45638000  1
  O  O320  1  0.44818000  0.04901000  0.45641000  1
  O  O321  1  0.37138000  0.88928000  0.48671000  1
  O  O322  1  0.55182000  0.95098000  0.54358000  1
  O  O323  1  0.19525000  0.65625000  0.21539000  1
  O  O324  1  0.77116000  0.22887000  0.01360000  1
  O  O325  1  0.22884000  0.45768000  0.98641000  1
  O  O326  1  0.04903000  0.60087000  0.54360000  1
  O  O327  1  0.54231000  0.77115000  0.51358000  1
  O  O328  1  0.04904000  0.60086000  0.95639000  1
  O  O329  1  0.95099000  0.55182000  0.04358000  1
  O  O330  1  0.04898000  0.44818000  0.54361000  1
  O  O331  1  0.55180000  0.60080000  0.54361000  1
