# generated using pymatgen
data_ZnHC4O3
_symmetry_space_group_name_H-M   'P 1'
_cell_length_a   6.44904000
_cell_length_b   15.27222355
_cell_length_c   15.29118000
_cell_angle_alpha   117.92764016
_cell_angle_beta   98.14121000
_cell_angle_gamma   98.01741390
_symmetry_Int_Tables_number   1
_chemical_formula_structural   ZnHC4O3
_chemical_formula_sum   'Zn6 H6 C24 O18'
_cell_volume   1280.25800958
_cell_formula_units_Z   6
loop_
 _symmetry_equiv_pos_site_id
 _symmetry_equiv_pos_as_xyz
  1  'x, y, z'
loop_
 _atom_site_type_symbol
 _atom_site_label
 _atom_site_symmetry_multiplicity
 _atom_site_fract_x
 _atom_site_fract_y
 _atom_site_fract_z
 _atom_site_occupancy
  Zn  Zn1  1  0.62844000  0.58247000  0.31608000  1.0
  Zn  Zn2  1  0.04963000  0.73372000  0.41787000  1.0
  Zn  Zn3  1  0.31382000  0.68462000  0.26373000  1.0
  Zn  Zn4  1  0.37156000  0.41754000  0.68393000  1.0
  Zn  Zn5  1  0.95037000  0.26628000  0.58212000  1.0
  Zn  Zn6  1  0.68618000  0.31538000  0.73627000  1.0
  H  H1  1  0.31868000  0.43201000  0.45497000  1.0
  H  H2  1  0.88669000  0.02353000  0.56843000  1.0
  H  H3  1  0.86368000  0.54514000  0.97732000  1.0
  H  H4  1  0.68132000  0.56799000  0.54503000  1.0
  H  H5  1  0.11331000  0.97648000  0.43157000  1.0
  H  H6  1  0.13633000  0.45487000  0.02268000  1.0
  C  C1  1  0.27598000  0.56559000  0.39729000  1.0
  C  C2  1  0.12398000  0.53213000  0.44654000  1.0
  C  C3  1  0.93882000  0.57074000  0.47092000  1.0
  C  C4  1  0.17829000  0.46159000  0.47479000  1.0
  C  C5  1  0.71202000  0.83191000  0.43386000  1.0
  C  C6  1  0.59360000  0.91478000  0.46769000  1.0
  C  C7  1  0.36993000  0.90037000  0.42892000  1.0
  C  C8  1  0.71674000  0.01346000  0.53864000  1.0
  C  C9  1  0.87789000  0.60295000  0.16831000  1.0
  C  C10  1  0.67719000  0.55343000  0.08545000  1.0
  C  C11  1  0.46775000  0.52907000  0.09944000  1.0
  C  C12  1  0.70354000  0.52524000  0.98696000  1.0
  C  C13  1  0.72402000  0.43442000  0.60271000  1.0
  C  C14  1  0.87602000  0.46788000  0.55347000  1.0
  C  C15  1  0.06118000  0.42926000  0.52907000  1.0
  C  C16  1  0.82172000  0.53842000  0.52522000  1.0
  C  C17  1  0.28798000  0.16810000  0.56615000  1.0
  C  C18  1  0.40640000  0.08523000  0.53231000  1.0
  C  C19  1  0.63007000  0.09963000  0.57107000  1.0
  C  C20  1  0.28325000  0.98654000  0.46135000  1.0
  C  C21  1  0.12211000  0.39706000  0.83170000  1.0
  C  C22  1  0.32280000  0.44657000  0.91454000  1.0
  C  C23  1  0.53225000  0.47093000  0.90055000  1.0
  C  C24  1  0.29646000  0.47477000  0.01304000  1.0
  O  O1  1  0.40897000  0.51199000  0.36049000  1.0
  O  O2  1  0.28248000  0.65053000  0.39697000  1.0
  O  O3  1  0.86592000  0.63617000  0.44375000  1.0
  O  O4  1  0.89946000  0.84838000  0.48660000  1.0
  O  O5  1  0.63132000  0.74671000  0.34936000  1.0
  O  O6  1  0.23327000  0.80772000  0.36345000  1.0
  O  O7  1  0.04722000  0.63960000  0.15113000  1.0
  O  O8  1  0.88393000  0.60361000  0.25355000  1.0
  O  O9  1  0.42176000  0.55653000  0.19185000  1.0
  O  O10  1  0.59104000  0.48802000  0.63952000  1.0
  O  O11  1  0.71752000  0.34948000  0.60304000  1.0
  O  O12  1  0.13408000  0.36383000  0.55624000  1.0
  O  O13  1  0.10053000  0.15162000  0.51339000  1.0
  O  O14  1  0.36868000  0.25329000  0.65063000  1.0
  O  O15  1  0.76673000  0.19228000  0.63655000  1.0
  O  O16  1  0.95279000  0.36041000  0.84887000  1.0
  O  O17  1  0.11606000  0.39639000  0.74645000  1.0
  O  O18  1  0.57824000  0.44348000  0.80815000  1.0
