# generated using pymatgen
data_ZnH7C10N5O2
_symmetry_space_group_name_H-M   'P 1'
_cell_length_a   18.94215000
_cell_length_b   26.87628000
_cell_length_c   26.87639000
_cell_angle_alpha   119.97693000
_cell_angle_beta   90.00000000
_cell_angle_gamma   89.99955000
_symmetry_Int_Tables_number   1
_chemical_formula_structural   ZnH7C10N5O2
_chemical_formula_sum   'Zn24 H168 C240 N120 O48'
_cell_volume   11852.25283591
_cell_formula_units_Z   24
loop_
 _symmetry_equiv_pos_site_id
 _symmetry_equiv_pos_as_xyz
  1  'x, y, z'
loop_
 _atom_site_type_symbol
 _atom_site_label
 _atom_site_symmetry_multiplicity
 _atom_site_fract_x
 _atom_site_fract_y
 _atom_site_fract_z
 _atom_site_occupancy
  Zn  Zn0  1  0.41254000  0.33253000  0.43979000  1
  Zn  Zn1  1  0.41253000  0.10743000  0.66756000  1
  Zn  Zn2  1  0.41256000  0.56019000  0.89269000  1
  Zn  Zn3  1  0.91238000  0.66748000  0.56018000  1
  Zn  Zn4  1  0.91237000  0.89250000  0.33236000  1
  Zn  Zn5  1  0.91236000  0.43985000  0.10739000  1
  Zn  Zn6  1  0.58746000  0.66756000  0.10743000  1
  Zn  Zn7  1  0.58743000  0.89269000  0.56019000  1
  Zn  Zn8  1  0.58745000  0.43980000  0.33252000  1
  Zn  Zn9  1  0.08761000  0.33236000  0.89250000  1
  Zn  Zn10  1  0.08763000  0.10739000  0.43985000  1
  Zn  Zn11  1  0.08760000  0.56018000  0.66747000  1
  Zn  Zn12  1  0.58745000  0.66748000  0.56020000  1
  Zn  Zn13  1  0.58746000  0.89257000  0.33244000  1
  Zn  Zn14  1  0.58743000  0.43981000  0.10731000  1
  Zn  Zn15  1  0.08760000  0.33253000  0.43982000  1
  Zn  Zn16  1  0.08762000  0.10750000  0.66764000  1
  Zn  Zn17  1  0.08762000  0.56015000  0.89261000  1
  Zn  Zn18  1  0.41253000  0.33244000  0.89257000  1
  Zn  Zn19  1  0.41256000  0.10731000  0.43981000  1
  Zn  Zn20  1  0.41254000  0.56021000  0.66747000  1
  Zn  Zn21  1  0.91237000  0.66764000  0.10750000  1
  Zn  Zn22  1  0.91236000  0.89262000  0.56015000  1
  Zn  Zn23  1  0.91238000  0.43982000  0.33253000  1
  H  H24  1  0.57960000  0.30778000  0.42776000  1
  H  H25  1  0.69211000  0.25723000  0.42239000  1
  H  H26  1  0.50357000  0.34928000  0.54681000  1
  H  H27  1  0.42832000  0.21915000  0.31060000  1
  H  H28  1  0.46484000  0.16285000  0.20757000  1
  H  H29  1  0.32361000  0.31577000  0.33195000  1
  H  H30  1  0.57956000  0.12011000  0.69222000  1
  H  H31  1  0.69208000  0.16518000  0.74280000  1
  H  H32  1  0.50354000  0.19733000  0.65079000  1
  H  H33  1  0.42825000  0.09139000  0.78064000  1
  H  H34  1  0.46483000  0.04475000  0.83706000  1
  H  H35  1  0.32361000  0.01619000  0.68421000  1
  H  H36  1  0.57952000  0.57203000  0.87987000  1
  H  H37  1  0.69206000  0.57761000  0.83486000  1
  H  H38  1  0.50345000  0.45306000  0.80237000  1
  H  H39  1  0.42826000  0.68943000  0.90862000  1
  H  H40  1  0.46490000  0.79247000  0.95536000  1
  H  H41  1  0.32363000  0.66804000  0.98385000  1
  H  H42  1  0.07962000  0.69224000  0.57226000  1
  H  H43  1  0.19215000  0.74279000  0.57764000  1
  H  H44  1  0.00513000  0.65054000  0.45343000  1
  H  H45  1  0.92819000  0.78064000  0.68924000  1
  H  H46  1  0.96477000  0.83695000  0.79225000  1
  H  H47  1  0.82343000  0.68477000  0.66830000  1
  H  H48  1  0.07957000  0.87990000  0.30776000  1
  H  H49  1  0.19208000  0.83483000  0.25719000  1
  H  H50  1  0.00506000  0.80307000  0.34939000  1
  H  H51  1  0.92814000  0.90868000  0.21958000  1
  H  H52  1  0.96477000  0.95527000  0.16314000  1
  H  H53  1  0.82342000  0.98353000  0.31525000  1
  H  H54  1  0.07955000  0.42794000  0.12013000  1
  H  H55  1  0.19210000  0.42237000  0.16514000  1
  H  H56  1  0.00491000  0.54661000  0.19716000  1
  H  H57  1  0.92814000  0.31072000  0.09133000  1
  H  H58  1  0.96485000  0.20769000  0.04460000  1
  H  H59  1  0.82346000  0.33174000  0.01644000  1
  H  H60  1  0.42043000  0.69223000  0.12011000  1
  H  H61  1  0.30791000  0.74280000  0.16518000  1
  H  H62  1  0.49645000  0.65080000  0.19733000  1
  H  H63  1  0.57174000  0.78064000  0.09139000  1
  H  H64  1  0.53516000  0.83706000  0.04476000  1
  H  H65  1  0.67638000  0.68422000  0.01619000  1
  H  H66  1  0.42046000  0.87987000  0.57203000  1
  H  H67  1  0.30793000  0.83486000  0.57761000  1
  H  H68  1  0.49654000  0.80237000  0.45306000  1
  H  H69  1  0.57172000  0.90862000  0.68942000  1
  H  H70  1  0.53508000  0.95536000  0.79247000  1
  H  H71  1  0.67635000  0.98385000  0.66804000  1
  H  H72  1  0.42039000  0.42776000  0.30778000  1
  H  H73  1  0.30788000  0.42239000  0.25723000  1
  H  H74  1  0.49642000  0.54681000  0.34928000  1
  H  H75  1  0.57167000  0.31060000  0.21915000  1
  H  H76  1  0.53516000  0.20757000  0.16285000  1
  H  H77  1  0.67639000  0.33195000  0.31577000  1
  H  H78  1  0.92042000  0.30776000  0.87990000  1
  H  H79  1  0.80790000  0.25719000  0.83483000  1
  H  H80  1  0.99492000  0.34939000  0.80306000  1
  H  H81  1  0.07184000  0.21958000  0.90868000  1
  H  H82  1  0.03521000  0.16314000  0.95526000  1
  H  H83  1  0.17657000  0.31525000  0.98352000  1
  H  H84  1  0.92044000  0.12013000  0.42794000  1
  H  H85  1  0.80789000  0.16514000  0.42237000  1
  H  H86  1  0.99508000  0.19716000  0.54661000  1
  H  H87  1  0.07185000  0.09133000  0.31072000  1
  H  H88  1  0.03514000  0.04460000  0.20769000  1
  H  H89  1  0.17653000  0.01644000  0.33174000  1
  H  H90  1  0.92036000  0.57226000  0.69224000  1
  H  H91  1  0.80783000  0.57764000  0.74279000  1
  H  H92  1  0.99485000  0.45343000  0.65054000  1
  H  H93  1  0.07179000  0.68925000  0.78064000  1
  H  H94  1  0.03521000  0.79225000  0.83695000  1
  H  H95  1  0.17655000  0.66830000  0.68477000  1
  H  H96  1  0.42039000  0.69222000  0.57224000  1
  H  H97  1  0.30787000  0.74277000  0.57761000  1
  H  H98  1  0.49642000  0.65072000  0.45319000  1
  H  H99  1  0.57167000  0.78085000  0.68940000  1
  H  H100  1  0.53515000  0.83715000  0.79243000  1
  H  H101  1  0.67638000  0.68423000  0.66805000  1
  H  H102  1  0.42043000  0.87990000  0.30778000  1
  H  H103  1  0.30791000  0.83482000  0.25720000  1
  H  H104  1  0.49645000  0.80267000  0.34921000  1
  H  H105  1  0.57173000  0.90861000  0.21936000  1
  H  H106  1  0.53516000  0.95525000  0.16294000  1
  H  H107  1  0.67637000  0.98381000  0.31578000  1
  H  H108  1  0.42047000  0.42797000  0.12013000  1
  H  H109  1  0.30793000  0.42239000  0.16514000  1
  H  H110  1  0.49654000  0.54695000  0.19763000  1
  H  H111  1  0.57172000  0.31058000  0.09138000  1
  H  H112  1  0.53509000  0.20753000  0.04464000  1
  H  H113  1  0.67635000  0.33196000  0.01615000  1
  H  H114  1  0.92036000  0.30776000  0.42774000  1
  H  H115  1  0.80784000  0.25721000  0.42236000  1
  H  H116  1  0.99485000  0.34946000  0.54657000  1
  H  H117  1  0.07180000  0.21936000  0.31076000  1
  H  H118  1  0.03521000  0.16305000  0.20775000  1
  H  H119  1  0.17655000  0.31523000  0.33170000  1
  H  H120  1  0.92042000  0.12010000  0.69224000  1
  H  H121  1  0.80790000  0.16517000  0.74281000  1
  H  H122  1  0.99493000  0.19694000  0.65061000  1
  H  H123  1  0.07185000  0.09132000  0.78042000  1
  H  H124  1  0.03522000  0.04473000  0.83686000  1
  H  H125  1  0.17657000  0.01648000  0.68475000  1
  H  H126  1  0.92043000  0.57206000  0.87987000  1
  H  H127  1  0.80789000  0.57763000  0.83486000  1
  H  H128  1  0.99508000  0.45339000  0.80284000  1
  H  H129  1  0.07185000  0.68929000  0.90867000  1
  H  H130  1  0.03513000  0.79231000  0.95539000  1
  H  H131  1  0.17653000  0.66826000  0.98356000  1
  H  H132  1  0.57956000  0.30778000  0.87989000  1
  H  H133  1  0.69208000  0.25720000  0.83482000  1
  H  H134  1  0.50353000  0.34921000  0.80267000  1
  H  H135  1  0.42825000  0.21936000  0.90861000  1
  H  H136  1  0.46483000  0.16294000  0.95524000  1
  H  H137  1  0.32361000  0.31578000  0.98381000  1
  H  H138  1  0.57952000  0.12013000  0.42797000  1
  H  H139  1  0.69206000  0.16514000  0.42239000  1
  H  H140  1  0.50345000  0.19763000  0.54694000  1
  H  H141  1  0.42827000  0.09138000  0.31058000  1
  H  H142  1  0.46490000  0.04464000  0.20753000  1
  H  H143  1  0.32364000  0.01615000  0.33196000  1
  H  H144  1  0.57959000  0.57224000  0.69222000  1
  H  H145  1  0.69211000  0.57761000  0.74277000  1
  H  H146  1  0.50357000  0.45319000  0.65071000  1
  H  H147  1  0.42831000  0.68940000  0.78085000  1
  H  H148  1  0.46483000  0.79243000  0.83715000  1
  H  H149  1  0.32360000  0.66805000  0.68423000  1
  H  H150  1  0.07957000  0.69224000  0.12010000  1
  H  H151  1  0.19208000  0.74281000  0.16517000  1
  H  H152  1  0.00506000  0.65061000  0.19694000  1
  H  H153  1  0.92814000  0.78042000  0.09132000  1
  H  H154  1  0.96477000  0.83687000  0.04474000  1
  H  H155  1  0.82342000  0.68475000  0.01648000  1
  H  H156  1  0.07955000  0.87988000  0.57206000  1
  H  H157  1  0.19210000  0.83487000  0.57763000  1
  H  H158  1  0.00491000  0.80284000  0.45339000  1
  H  H159  1  0.92813000  0.90867000  0.68928000  1
  H  H160  1  0.96485000  0.95540000  0.79231000  1
  H  H161  1  0.82345000  0.98356000  0.66826000  1
  H  H162  1  0.07963000  0.42774000  0.30776000  1
  H  H163  1  0.19215000  0.42236000  0.25721000  1
  H  H164  1  0.00513000  0.54658000  0.34946000  1
  H  H165  1  0.92819000  0.31076000  0.21936000  1
  H  H166  1  0.96478000  0.20775000  0.16305000  1
  H  H167  1  0.82344000  0.33170000  0.31523000  1
  H  H168  1  0.35142000  0.22275000  0.44534000  1
  H  H169  1  0.35147000  0.22267000  0.77733000  1
  H  H170  1  0.35141000  0.55466000  0.77725000  1
  H  H171  1  0.85146000  0.77721000  0.55457000  1
  H  H172  1  0.85148000  0.77729000  0.22272000  1
  H  H173  1  0.85146000  0.44543000  0.22279000  1
  H  H174  1  0.64852000  0.77733000  0.22267000  1
  H  H175  1  0.64857000  0.77725000  0.55466000  1
  H  H176  1  0.64857000  0.44534000  0.22275000  1
  H  H177  1  0.14851000  0.22272000  0.77728000  1
  H  H178  1  0.14853000  0.22279000  0.44543000  1
  H  H179  1  0.14853000  0.55457000  0.77721000  1
  H  H180  1  0.49999000  0.42617000  0.42617000  1
  H  H181  1  0.49999000  0.99983000  0.57357000  1
  H  H182  1  0.50000000  0.57357000  0.99983000  1
  H  H183  1  0.99999000  0.57362000  0.57362000  1
  H  H184  1  0.00004000  0.00021000  0.42666000  1
  H  H185  1  0.99995000  0.42666000  0.00021000  1
  H  H186  1  0.49999000  0.57384000  0.57383000  1
  H  H187  1  0.50000000  0.00017000  0.42643000  1
  H  H188  1  0.50000000  0.42643000  0.00017000  1
  H  H189  1  0.00000000  0.42638000  0.42638000  1
  H  H190  1  0.99995000  0.99979000  0.57334000  1
  H  H191  1  0.00004000  0.57334000  0.99979000  1
  C  C192  1  0.51652000  0.24237000  0.43186000  1
  C  C193  1  0.57959000  0.26753000  0.42818000  1
  C  C194  1  0.64215000  0.23874000  0.42496000  1
  C  C195  1  0.48015000  0.39026000  0.55787000  1
  C  C196  1  0.47936000  0.29655000  0.32204000  1
  C  C197  1  0.45881000  0.23882000  0.29065000  1
  C  C198  1  0.47984000  0.20778000  0.23330000  1
  C  C199  1  0.28684000  0.31843000  0.36404000  1
  C  C200  1  0.51653000  0.18954000  0.75766000  1
  C  C201  1  0.57958000  0.16072000  0.73248000  1
  C  C202  1  0.64212000  0.18625000  0.76127000  1
  C  C203  1  0.48008000  0.16751000  0.60980000  1
  C  C204  1  0.47932000  0.02548000  0.70329000  1
  C  C205  1  0.45877000  0.05180000  0.76102000  1
  C  C206  1  0.47982000  0.02553000  0.79212000  1
  C  C207  1  0.28685000  0.04559000  0.68149000  1
  C  C208  1  0.51649000  0.56810000  0.81043000  1
  C  C209  1  0.57955000  0.57173000  0.83926000  1
  C  C210  1  0.64212000  0.57501000  0.81375000  1
  C  C211  1  0.48012000  0.44202000  0.83235000  1
  C  C212  1  0.47938000  0.67786000  0.97452000  1
  C  C213  1  0.45879000  0.70930000  0.94821000  1
  C  C214  1  0.47984000  0.76666000  0.97452000  1
  C  C215  1  0.28685000  0.63596000  0.95443000  1
  C  C216  1  0.01652000  0.75762000  0.56813000  1
  C  C217  1  0.07961000  0.73248000  0.57183000  1
  C  C218  1  0.14217000  0.76127000  0.57505000  1
  C  C219  1  0.98102000  0.60970000  0.44221000  1
  C  C220  1  0.97931000  0.70323000  0.67776000  1
  C  C221  1  0.95873000  0.76096000  0.70916000  1
  C  C222  1  0.97981000  0.79202000  0.76651000  1
  C  C223  1  0.78667000  0.68183000  0.63606000  1
  C  C224  1  0.01651000  0.81045000  0.24235000  1
  C  C225  1  0.07956000  0.83928000  0.26751000  1
  C  C226  1  0.14212000  0.81376000  0.23873000  1
  C  C227  1  0.98099000  0.83260000  0.39026000  1
  C  C228  1  0.97929000  0.97457000  0.29694000  1
  C  C229  1  0.95871000  0.94825000  0.23921000  1
  C  C230  1  0.97979000  0.97449000  0.20808000  1
  C  C231  1  0.78667000  0.95426000  0.31826000  1
  C  C232  1  0.01650000  0.43191000  0.18957000  1
  C  C233  1  0.07956000  0.42827000  0.16074000  1
  C  C234  1  0.14215000  0.42498000  0.18624000  1
  C  C235  1  0.98099000  0.55787000  0.16750000  1
  C  C236  1  0.97933000  0.32234000  0.02548000  1
  C  C237  1  0.95872000  0.29086000  0.05176000  1
  C  C238  1  0.97982000  0.23352000  0.02547000  1
  C  C239  1  0.78667000  0.36396000  0.04573000  1
  C  C240  1  0.48346000  0.75766000  0.18954000  1
  C  C241  1  0.42041000  0.73248000  0.16072000  1
  C  C242  1  0.35786000  0.76127000  0.18625000  1
  C  C243  1  0.51991000  0.60980000  0.16751000  1
  C  C244  1  0.52067000  0.70329000  0.02548000  1
  C  C245  1  0.54122000  0.76102000  0.05180000  1
  C  C246  1  0.52017000  0.79212000  0.02553000  1
  C  C247  1  0.71314000  0.68149000  0.04559000  1
  C  C248  1  0.48349000  0.81044000  0.56810000  1
  C  C249  1  0.42043000  0.83926000  0.57173000  1
  C  C250  1  0.35786000  0.81375000  0.57501000  1
  C  C251  1  0.51987000  0.83235000  0.44202000  1
  C  C252  1  0.52060000  0.97452000  0.67786000  1
  C  C253  1  0.54119000  0.94821000  0.70930000  1
  C  C254  1  0.52014000  0.97452000  0.76666000  1
  C  C255  1  0.71313000  0.95443000  0.63596000  1
  C  C256  1  0.48347000  0.43186000  0.24237000  1
  C  C257  1  0.42040000  0.42818000  0.26753000  1
  C  C258  1  0.35784000  0.42496000  0.23874000  1
  C  C259  1  0.51984000  0.55787000  0.39026000  1
  C  C260  1  0.52063000  0.32204000  0.29655000  1
  C  C261  1  0.54118000  0.29065000  0.23882000  1
  C  C262  1  0.52015000  0.23330000  0.20778000  1
  C  C263  1  0.71315000  0.36404000  0.31842000  1
  C  C264  1  0.98347000  0.24235000  0.81045000  1
  C  C265  1  0.92042000  0.26751000  0.83928000  1
  C  C266  1  0.85786000  0.23872000  0.81375000  1
  C  C267  1  0.01899000  0.39026000  0.83259000  1
  C  C268  1  0.02069000  0.29694000  0.97456000  1
  C  C269  1  0.04128000  0.23921000  0.94825000  1
  C  C270  1  0.02020000  0.20808000  0.97448000  1
  C  C271  1  0.21332000  0.31826000  0.95426000  1
  C  C272  1  0.98350000  0.18957000  0.43191000  1
  C  C273  1  0.92043000  0.16074000  0.42826000  1
  C  C274  1  0.85784000  0.18624000  0.42498000  1
  C  C275  1  0.01900000  0.16750000  0.55787000  1
  C  C276  1  0.02067000  0.02548000  0.32234000  1
  C  C277  1  0.04127000  0.05176000  0.29086000  1
  C  C278  1  0.02018000  0.02547000  0.23352000  1
  C  C279  1  0.21332000  0.04572000  0.36395000  1
  C  C280  1  0.98346000  0.56813000  0.75762000  1
  C  C281  1  0.92038000  0.57183000  0.73248000  1
  C  C282  1  0.85781000  0.57506000  0.76127000  1
  C  C283  1  0.01896000  0.44221000  0.60970000  1
  C  C284  1  0.02067000  0.67776000  0.70323000  1
  C  C285  1  0.04125000  0.70917000  0.76096000  1
  C  C286  1  0.02017000  0.76651000  0.79202000  1
  C  C287  1  0.21331000  0.63606000  0.68183000  1
  C  C288  1  0.48347000  0.75763000  0.56814000  1
  C  C289  1  0.42040000  0.73247000  0.57182000  1
  C  C290  1  0.35784000  0.76126000  0.57504000  1
  C  C291  1  0.51984000  0.60974000  0.44213000  1
  C  C292  1  0.52063000  0.70345000  0.67796000  1
  C  C293  1  0.54118000  0.76118000  0.70935000  1
  C  C294  1  0.52014000  0.79222000  0.76670000  1
  C  C295  1  0.71315000  0.68158000  0.63596000  1
  C  C296  1  0.48346000  0.81046000  0.24234000  1
  C  C297  1  0.42041000  0.83929000  0.26752000  1
  C  C298  1  0.35786000  0.81375000  0.23873000  1
  C  C299  1  0.51990000  0.83249000  0.39020000  1
  C  C300  1  0.52066000  0.97452000  0.29671000  1
  C  C301  1  0.54122000  0.94820000  0.23898000  1
  C  C302  1  0.52017000  0.97447000  0.20788000  1
  C  C303  1  0.71313000  0.95441000  0.31851000  1
  C  C304  1  0.48349000  0.43191000  0.18957000  1
  C  C305  1  0.42044000  0.42827000  0.16074000  1
  C  C306  1  0.35787000  0.42499000  0.18625000  1
  C  C307  1  0.51987000  0.55798000  0.16765000  1
  C  C308  1  0.52061000  0.32214000  0.02548000  1
  C  C309  1  0.54119000  0.29070000  0.05179000  1
  C  C310  1  0.52015000  0.23334000  0.02548000  1
  C  C311  1  0.71314000  0.36404000  0.04557000  1
  C  C312  1  0.98347000  0.24238000  0.43187000  1
  C  C313  1  0.92038000  0.26752000  0.42817000  1
  C  C314  1  0.85781000  0.23873000  0.42494000  1
  C  C315  1  0.01896000  0.39030000  0.55779000  1
  C  C316  1  0.02067000  0.29677000  0.32224000  1
  C  C317  1  0.04125000  0.23904000  0.29084000  1
  C  C318  1  0.02018000  0.20798000  0.23349000  1
  C  C319  1  0.21332000  0.31817000  0.36394000  1
  C  C320  1  0.98347000  0.18955000  0.75765000  1
  C  C321  1  0.92042000  0.16072000  0.73249000  1
  C  C322  1  0.85786000  0.18625000  0.76127000  1
  C  C323  1  0.01899000  0.16741000  0.60974000  1
  C  C324  1  0.02070000  0.02544000  0.70306000  1
  C  C325  1  0.04128000  0.05175000  0.76079000  1
  C  C326  1  0.02020000  0.02551000  0.79192000  1
  C  C327  1  0.21332000  0.04574000  0.68174000  1
  C  C328  1  0.98349000  0.56809000  0.81043000  1
  C  C329  1  0.92043000  0.57174000  0.83926000  1
  C  C330  1  0.85784000  0.57502000  0.81376000  1
  C  C331  1  0.01900000  0.44213000  0.83250000  1
  C  C332  1  0.02066000  0.67766000  0.97452000  1
  C  C333  1  0.04126000  0.70914000  0.94824000  1
  C  C334  1  0.02017000  0.76648000  0.97453000  1
  C  C335  1  0.21332000  0.63605000  0.95427000  1
  C  C336  1  0.51653000  0.24234000  0.81046000  1
  C  C337  1  0.57957000  0.26752000  0.83928000  1
  C  C338  1  0.64212000  0.23873000  0.81375000  1
  C  C339  1  0.48008000  0.39020000  0.83249000  1
  C  C340  1  0.47932000  0.29671000  0.97452000  1
  C  C341  1  0.45877000  0.23898000  0.94820000  1
  C  C342  1  0.47982000  0.20788000  0.97447000  1
  C  C343  1  0.28685000  0.31851000  0.95441000  1
  C  C344  1  0.51650000  0.18957000  0.43190000  1
  C  C345  1  0.57955000  0.16074000  0.42827000  1
  C  C346  1  0.64212000  0.18625000  0.42499000  1
  C  C347  1  0.48012000  0.16765000  0.55798000  1
  C  C348  1  0.47939000  0.02548000  0.32214000  1
  C  C349  1  0.45880000  0.05179000  0.29070000  1
  C  C350  1  0.47985000  0.02548000  0.23334000  1
  C  C351  1  0.28686000  0.04557000  0.36404000  1
  C  C352  1  0.51652000  0.56814000  0.75763000  1
  C  C353  1  0.57959000  0.57183000  0.73247000  1
  C  C354  1  0.64214000  0.57504000  0.76126000  1
  C  C355  1  0.48015000  0.44213000  0.60974000  1
  C  C356  1  0.47935000  0.67796000  0.70345000  1
  C  C357  1  0.45880000  0.70935000  0.76118000  1
  C  C358  1  0.47984000  0.76670000  0.79222000  1
  C  C359  1  0.28684000  0.63596000  0.68157000  1
  C  C360  1  0.01651000  0.75765000  0.18955000  1
  C  C361  1  0.07957000  0.73249000  0.16072000  1
  C  C362  1  0.14212000  0.76128000  0.18625000  1
  C  C363  1  0.98100000  0.60974000  0.16741000  1
  C  C364  1  0.97929000  0.70307000  0.02544000  1
  C  C365  1  0.95871000  0.76080000  0.05175000  1
  C  C366  1  0.97979000  0.79193000  0.02552000  1
  C  C367  1  0.78667000  0.68174000  0.04574000  1
  C  C368  1  0.01649000  0.81043000  0.56809000  1
  C  C369  1  0.07956000  0.83926000  0.57174000  1
  C  C370  1  0.14215000  0.81376000  0.57502000  1
  C  C371  1  0.98099000  0.83250000  0.44213000  1
  C  C372  1  0.97932000  0.97452000  0.67766000  1
  C  C373  1  0.95872000  0.94824000  0.70914000  1
  C  C374  1  0.97981000  0.97453000  0.76648000  1
  C  C375  1  0.78666000  0.95428000  0.63605000  1
  C  C376  1  0.01652000  0.43187000  0.24238000  1
  C  C377  1  0.07961000  0.42817000  0.26752000  1
  C  C378  1  0.14218000  0.42495000  0.23873000  1
  C  C379  1  0.98102000  0.55780000  0.39030000  1
  C  C380  1  0.97932000  0.32224000  0.29677000  1
  C  C381  1  0.95874000  0.29084000  0.23904000  1
  C  C382  1  0.97981000  0.23349000  0.20798000  1
  C  C383  1  0.78668000  0.36394000  0.31817000  1
  C  C384  1  0.40821000  0.22004000  0.43999000  1
  C  C385  1  0.40825000  0.21999000  0.78001000  1
  C  C386  1  0.40821000  0.56001000  0.77996000  1
  C  C387  1  0.90823000  0.77993000  0.55997000  1
  C  C388  1  0.90824000  0.77999000  0.22001000  1
  C  C389  1  0.90823000  0.44003000  0.22008000  1
  C  C390  1  0.59174000  0.78001000  0.21999000  1
  C  C391  1  0.59178000  0.77996000  0.56001000  1
  C  C392  1  0.59178000  0.43999000  0.22004000  1
  C  C393  1  0.09175000  0.22001000  0.77999000  1
  C  C394  1  0.09176000  0.22008000  0.44003000  1
  C  C395  1  0.09175000  0.55997000  0.77992000  1
  C  C396  1  0.42174000  0.45274000  0.54726000  1
  C  C397  1  0.42173000  0.09446000  0.54720000  1
  C  C398  1  0.42173000  0.45280000  0.90554000  1
  C  C399  1  0.92073000  0.54767000  0.45233000  1
  C  C400  1  0.92079000  0.90473000  0.45233000  1
  C  C401  1  0.92079000  0.54767000  0.09527000  1
  C  C402  1  0.57826000  0.54720000  0.09446000  1
  C  C403  1  0.57826000  0.90554000  0.45280000  1
  C  C404  1  0.57825000  0.54726000  0.45274000  1
  C  C405  1  0.07919000  0.45233000  0.90473000  1
  C  C406  1  0.07920000  0.09527000  0.54767000  1
  C  C407  1  0.07925000  0.45233000  0.54767000  1
  C  C408  1  0.49999000  0.38588000  0.38587000  1
  C  C409  1  0.49993000  0.99997000  0.61394000  1
  C  C410  1  0.50006000  0.61395000  0.99997000  1
  C  C411  1  0.99999000  0.61391000  0.61391000  1
  C  C412  1  0.99997000  0.00006000  0.38627000  1
  C  C413  1  0.00003000  0.38627000  0.00006000  1
  C  C414  1  0.49999000  0.61413000  0.61413000  1
  C  C415  1  0.50006000  0.00003000  0.38606000  1
  C  C416  1  0.49993000  0.38606000  0.00003000  1
  C  C417  1  0.00000000  0.38609000  0.38609000  1
  C  C418  1  0.00003000  0.99994000  0.61373000  1
  C  C419  1  0.99997000  0.61373000  0.99994000  1
  C  C420  1  0.25015000  0.32526000  0.44289000  1
  C  C421  1  0.25015000  0.11755000  0.67459000  1
  C  C422  1  0.25017000  0.55713000  0.88241000  1
  C  C423  1  0.74984000  0.67474000  0.55711000  1
  C  C424  1  0.74983000  0.88245000  0.32541000  1
  C  C425  1  0.74982000  0.44287000  0.11759000  1
  C  C426  1  0.74984000  0.67459000  0.11756000  1
  C  C427  1  0.74982000  0.88241000  0.55713000  1
  C  C428  1  0.74984000  0.44289000  0.32526000  1
  C  C429  1  0.25015000  0.32541000  0.88244000  1
  C  C430  1  0.25017000  0.11759000  0.44287000  1
  C  C431  1  0.25015000  0.55711000  0.67474000  1
  N  N432  1  0.44672000  0.26063000  0.43694000  1
  N  N433  1  0.44285000  0.39737000  0.51840000  1
  N  N434  1  0.46666000  0.33851000  0.37886000  1
  N  N435  1  0.30987000  0.32300000  0.41439000  1
  N  N436  1  0.44673000  0.17638000  0.73942000  1
  N  N437  1  0.44280000  0.12089000  0.60258000  1
  N  N438  1  0.46662000  0.04034000  0.66131000  1
  N  N439  1  0.30988000  0.09135000  0.67688000  1
  N  N440  1  0.44668000  0.56301000  0.82360000  1
  N  N441  1  0.44288000  0.48156000  0.87891000  1
  N  N442  1  0.46673000  0.62102000  0.95964000  1
  N  N443  1  0.30988000  0.58563000  0.90864000  1
  N  N444  1  0.94672000  0.73934000  0.56304000  1
  N  N445  1  0.94260000  0.60285000  0.48137000  1
  N  N446  1  0.96660000  0.66126000  0.62094000  1
  N  N447  1  0.80963000  0.67740000  0.58573000  1
  N  N448  1  0.94671000  0.82360000  0.26059000  1
  N  N449  1  0.94263000  0.87865000  0.39715000  1
  N  N450  1  0.96657000  0.95971000  0.33893000  1
  N  N451  1  0.80963000  0.90837000  0.32272000  1
  N  N452  1  0.94668000  0.43702000  0.17643000  1
  N  N453  1  0.94265000  0.51867000  0.12148000  1
  N  N454  1  0.96663000  0.37918000  0.04036000  1
  N  N455  1  0.80961000  0.41427000  0.09164000  1
  N  N456  1  0.55326000  0.73942000  0.17638000  1
  N  N457  1  0.55719000  0.60258000  0.12089000  1
  N  N458  1  0.53337000  0.66131000  0.04034000  1
  N  N459  1  0.69011000  0.67688000  0.09135000  1
  N  N460  1  0.55330000  0.82360000  0.56301000  1
  N  N461  1  0.55710000  0.87891000  0.48156000  1
  N  N462  1  0.53326000  0.95964000  0.62102000  1
  N  N463  1  0.69010000  0.90865000  0.58563000  1
  N  N464  1  0.55327000  0.43694000  0.26063000  1
  N  N465  1  0.55713000  0.51840000  0.39737000  1
  N  N466  1  0.53333000  0.37886000  0.33851000  1
  N  N467  1  0.69012000  0.41439000  0.32299000  1
  N  N468  1  0.05327000  0.26059000  0.82360000  1
  N  N469  1  0.05735000  0.39715000  0.87865000  1
  N  N470  1  0.03342000  0.33893000  0.95970000  1
  N  N471  1  0.19035000  0.32272000  0.90837000  1
  N  N472  1  0.05331000  0.17643000  0.43702000  1
  N  N473  1  0.05735000  0.12147000  0.51866000  1
  N  N474  1  0.03336000  0.04036000  0.37918000  1
  N  N475  1  0.19038000  0.09164000  0.41427000  1
  N  N476  1  0.05326000  0.56304000  0.73934000  1
  N  N477  1  0.05738000  0.48137000  0.60284000  1
  N  N478  1  0.03339000  0.62094000  0.66126000  1
  N  N479  1  0.19035000  0.58573000  0.67740000  1
  N  N480  1  0.55327000  0.73937000  0.56306000  1
  N  N481  1  0.55713000  0.60263000  0.48160000  1
  N  N482  1  0.53332000  0.66149000  0.62114000  1
  N  N483  1  0.69012000  0.67701000  0.58561000  1
  N  N484  1  0.55325000  0.82362000  0.26058000  1
  N  N485  1  0.55719000  0.87911000  0.39742000  1
  N  N486  1  0.53337000  0.95966000  0.33869000  1
  N  N487  1  0.69011000  0.90865000  0.32312000  1
  N  N488  1  0.55331000  0.43700000  0.17640000  1
  N  N489  1  0.55710000  0.51844000  0.12109000  1
  N  N490  1  0.53326000  0.37898000  0.04036000  1
  N  N491  1  0.69011000  0.41437000  0.09136000  1
  N  N492  1  0.05327000  0.26066000  0.43696000  1
  N  N493  1  0.05739000  0.39716000  0.51863000  1
  N  N494  1  0.03339000  0.33874000  0.37906000  1
  N  N495  1  0.19036000  0.32260000  0.41427000  1
  N  N496  1  0.05327000  0.17640000  0.73941000  1
  N  N497  1  0.05736000  0.12135000  0.60284000  1
  N  N498  1  0.03342000  0.04029000  0.66107000  1
  N  N499  1  0.19036000  0.09163000  0.67728000  1
  N  N500  1  0.05331000  0.56298000  0.82357000  1
  N  N501  1  0.05734000  0.48134000  0.87852000  1
  N  N502  1  0.03336000  0.62082000  0.95964000  1
  N  N503  1  0.19037000  0.58573000  0.90836000  1
  N  N504  1  0.44673000  0.26058000  0.82362000  1
  N  N505  1  0.44280000  0.39742000  0.87911000  1
  N  N506  1  0.46661000  0.33869000  0.95966000  1
  N  N507  1  0.30988000  0.32312000  0.90865000  1
  N  N508  1  0.44668000  0.17640000  0.43699000  1
  N  N509  1  0.44289000  0.12109000  0.51844000  1
  N  N510  1  0.46673000  0.04036000  0.37898000  1
  N  N511  1  0.30989000  0.09136000  0.41437000  1
  N  N512  1  0.44672000  0.56306000  0.73937000  1
  N  N513  1  0.44285000  0.48160000  0.60263000  1
  N  N514  1  0.46666000  0.62114000  0.66149000  1
  N  N515  1  0.30987000  0.58561000  0.67701000  1
  N  N516  1  0.94671000  0.73941000  0.17640000  1
  N  N517  1  0.94263000  0.60285000  0.12135000  1
  N  N518  1  0.96657000  0.66108000  0.04030000  1
  N  N519  1  0.80963000  0.67729000  0.09163000  1
  N  N520  1  0.94667000  0.82357000  0.56298000  1
  N  N521  1  0.94264000  0.87853000  0.48134000  1
  N  N522  1  0.96662000  0.95964000  0.62082000  1
  N  N523  1  0.80961000  0.90836000  0.58573000  1
  N  N524  1  0.94672000  0.43696000  0.26066000  1
  N  N525  1  0.94260000  0.51863000  0.39716000  1
  N  N526  1  0.96660000  0.37906000  0.33874000  1
  N  N527  1  0.80963000  0.41427000  0.32260000  1
  N  N528  1  0.38173000  0.47855000  0.52145000  1
  N  N529  1  0.38195000  0.04270000  0.52122000  1
  N  N530  1  0.38194000  0.47878000  0.95730000  1
  N  N531  1  0.87973000  0.52205000  0.47795000  1
  N  N532  1  0.87971000  0.95590000  0.47796000  1
  N  N533  1  0.87972000  0.52204000  0.04410000  1
  N  N534  1  0.61804000  0.52122000  0.04270000  1
  N  N535  1  0.61804000  0.95730000  0.47878000  1
  N  N536  1  0.61825000  0.52145000  0.47855000  1
  N  N537  1  0.12027000  0.47796000  0.95590000  1
  N  N538  1  0.12028000  0.04410000  0.52204000  1
  N  N539  1  0.12026000  0.47795000  0.52205000  1
  N  N540  1  0.25042000  0.32929000  0.49788000  1
  N  N541  1  0.25042000  0.16850000  0.67057000  1
  N  N542  1  0.25043000  0.50221000  0.83138000  1
  N  N543  1  0.74957000  0.67071000  0.50212000  1
  N  N544  1  0.74956000  0.83150000  0.32943000  1
  N  N545  1  0.74956000  0.49779000  0.16862000  1
  N  N546  1  0.74957000  0.67057000  0.16850000  1
  N  N547  1  0.74955000  0.83138000  0.50221000  1
  N  N548  1  0.74957000  0.49788000  0.32929000  1
  N  N549  1  0.25042000  0.32943000  0.83150000  1
  N  N550  1  0.25043000  0.16862000  0.49779000  1
  N  N551  1  0.25042000  0.50212000  0.67071000  1
  O  O552  1  0.36595000  0.44795000  0.46952000  1
  O  O553  1  0.30907000  0.33077000  0.51984000  1
  O  O554  1  0.36623000  0.02113000  0.55163000  1
  O  O555  1  0.30908000  0.18899000  0.66910000  1
  O  O556  1  0.36650000  0.53076000  0.97859000  1
  O  O557  1  0.30908000  0.48027000  0.81085000  1
  O  O558  1  0.86363000  0.55268000  0.52977000  1
  O  O559  1  0.80798000  0.66969000  0.48002000  1
  O  O560  1  0.86359000  0.97719000  0.44742000  1
  O  O561  1  0.80799000  0.81042000  0.33045000  1
  O  O562  1  0.86352000  0.47026000  0.02308000  1
  O  O563  1  0.80796000  0.51988000  0.18973000  1
  O  O564  1  0.63376000  0.55164000  0.02113000  1
  O  O565  1  0.69091000  0.66910000  0.18899000  1
  O  O566  1  0.63348000  0.97860000  0.53076000  1
  O  O567  1  0.69091000  0.81085000  0.48027000  1
  O  O568  1  0.63404000  0.46952000  0.44795000  1
  O  O569  1  0.69092000  0.51984000  0.33077000  1
  O  O570  1  0.13639000  0.44742000  0.97719000  1
  O  O571  1  0.19200000  0.33045000  0.81041000  1
  O  O572  1  0.13647000  0.02308000  0.47026000  1
  O  O573  1  0.19203000  0.18973000  0.51988000  1
  O  O574  1  0.13636000  0.52977000  0.55268000  1
  O  O575  1  0.19201000  0.48002000  0.66969000  1
  O  O576  1  0.63404000  0.55205000  0.53048000  1
  O  O577  1  0.69092000  0.66923000  0.48016000  1
  O  O578  1  0.63376000  0.97887000  0.44837000  1
  O  O579  1  0.69091000  0.81102000  0.33090000  1
  O  O580  1  0.63349000  0.46924000  0.02141000  1
  O  O581  1  0.69091000  0.51973000  0.18915000  1
  O  O582  1  0.13636000  0.44732000  0.47023000  1
  O  O583  1  0.19201000  0.33031000  0.51998000  1
  O  O584  1  0.13640000  0.02281000  0.55258000  1
  O  O585  1  0.19200000  0.18958000  0.66955000  1
  O  O586  1  0.13646000  0.52974000  0.97692000  1
  O  O587  1  0.19203000  0.48012000  0.81027000  1
  O  O588  1  0.36622000  0.44837000  0.97887000  1
  O  O589  1  0.30908000  0.33090000  0.81101000  1
  O  O590  1  0.36651000  0.02141000  0.46924000  1
  O  O591  1  0.30908000  0.18915000  0.51973000  1
  O  O592  1  0.36595000  0.53048000  0.55205000  1
  O  O593  1  0.30907000  0.48016000  0.66923000  1
  O  O594  1  0.86360000  0.55258000  0.02281000  1
  O  O595  1  0.80799000  0.66955000  0.18958000  1
  O  O596  1  0.86352000  0.97693000  0.52974000  1
  O  O597  1  0.80796000  0.81027000  0.48012000  1
  O  O598  1  0.86363000  0.47023000  0.44732000  1
  O  O599  1  0.80798000  0.51998000  0.33031000  1
