# generated using pymatgen
data_H30C41(N2O)2
_symmetry_space_group_name_H-M   'P 1'
_cell_length_a   13.53365000
_cell_length_b   13.53365000
_cell_length_c   25.83440000
_cell_angle_alpha   89.99310000
_cell_angle_beta   91.49220000
_cell_angle_gamma   89.99470000
_symmetry_Int_Tables_number   1
_chemical_formula_structural   H30C41(N2O)2
_chemical_formula_sum   'H60 C82 N8 O4'
_cell_volume   4730.21578290
_cell_formula_units_Z   2
loop_
 _symmetry_equiv_pos_site_id
 _symmetry_equiv_pos_as_xyz
  1  'x, y, z'
loop_
 _atom_site_type_symbol
 _atom_site_label
 _atom_site_symmetry_multiplicity
 _atom_site_fract_x
 _atom_site_fract_y
 _atom_site_fract_z
 _atom_site_occupancy
  C  1  1  0.06653700  0.42939700  0.97212600  1
  C  2  1  0.16387300  0.45189800  0.98776000  1
  C  3  1  0.16172900  0.52557400  0.02475900  1
  C  4  1  0.06294000  0.54878900  0.03418400  1
  C  5  1  0.04089800  0.62451200  0.06944300  1
  C  6  1  0.11923300  0.67756100  0.09388400  1
  C  7  1  0.21835500  0.65408700  0.08333700  1
  C  8  1  0.24034300  0.57722900  0.04896000  1
  C  9  1  0.24538000  0.40389600  0.96632700  1
  C  10  1  0.22802800  0.33209000  0.92790500  1
  C  11  1  0.13069000  0.31045350  0.91044800  1
  C  12  1  0.04932600  0.35885000  0.93281200  1
  C  13  1  0.92265000  0.42895150  0.03082700  1
  C  14  1  0.82510600  0.45149600  0.01562900  1
  C  15  1  0.82664000  0.52552650  0.97878900  1
  C  16  1  0.92522400  0.54860250  0.96876100  1
  C  17  1  0.74755700  0.57756900  0.95525900  1
  C  18  1  0.76882200  0.65494700  0.92107300  1
  C  19  1  0.86767400  0.67844500  0.90993700  1
  C  20  1  0.94649800  0.62484500  0.93363000  1
  C  21  1  0.94048600  0.35848900  0.07014400  1
  C  22  1  0.85951700  0.31007600  0.09287000  1
  C  23  1  0.76193000  0.33174550  0.07582500  1
  C  24  1  0.74396400  0.40360700  0.03749100  1
  C  37  1  0.99432700  0.48856700  0.00140900  1
  C  46  1  0.43311800  0.91975900  0.46949200  1
  C  47  1  0.45602200  0.82191300  0.48285500  1
  C  48  1  0.52886400  0.82276900  0.52133200  1
  C  49  1  0.55098500  0.92117500  0.53385800  1
  C  50  1  0.62292700  0.94190300  0.57267600  1
  C  51  1  0.67309600  0.86276100  0.59774800  1
  C  52  1  0.65123600  0.76410100  0.58385500  1
  C  53  1  0.57811400  0.74335700  0.54581500  1
  C  54  1  0.40683100  0.74142700  0.45935900  1
  C  55  1  0.33292300  0.76049500  0.42148100  1
  C  56  1  0.31020400  0.85855700  0.40677500  1
  C  57  1  0.36032800  0.93878700  0.43086400  1
  C  58  1  0.43056500  0.06111000  0.53114800  1
  C  59  1  0.45314900  0.15916500  0.51872600  1
  C  60  1  0.52808500  0.15936600  0.48337700  1
  C  61  1  0.55187600  0.06141900  0.47132300  1
  C  62  1  0.57812900  0.23974700  0.46166600  1
  C  63  1  0.65379900  0.22060400  0.42687500  1
  C  64  1  0.67731400  0.12258600  0.41310600  1
  C  65  1  0.62622400  0.04236450  0.43539800  1
  C  66  1  0.35661500  0.04156750  0.56721700  1
  C  67  1  0.30471900  0.12142350  0.58931900  1
  C  68  1  0.32705700  0.21956900  0.57524700  1
  C  69  1  0.40225900  0.23920200  0.54024700  1
  C  82  1  0.49168800  0.99092850  0.50141400  1
  C  91  1  0.02569000  0.04359650  0.74954300  1
  C  92  1  0.02131100  0.12891000  0.78041000  1
  C  93  1  0.09839800  0.19883150  0.78036300  1
  C  94  1  0.17837200  0.18368400  0.74714800  1
  C  95  1  0.18309300  0.09912450  0.71500900  1
  C  96  1  0.10595900  0.02854400  0.71650000  1
  C  99  1  0.95221400  0.97112500  0.75444900  1
  C  100  1  0.96854000  0.88790100  0.78661900  1
  C  101  1  0.89725000  0.81142750  0.78758800  1
  C  102  1  0.80952600  0.82084900  0.75700300  1
  C  103  1  0.79238800  0.90450500  0.72534600  1
  C  104  1  0.86430600  0.97967450  0.72456300  1
  C  111  1  0.70861200  0.90787950  0.68733200  1
  C  114  1  0.91109000  0.72550000  0.82273500  1
  C  117  1  0.09766600  0.28047900  0.81869600  1
  C  120  1  0.26594700  0.08593650  0.67894400  1
  C  123  1  0.03043100  0.96737700  0.24978400  1
  C  124  1  0.11790200  0.97430700  0.28014900  1
  C  125  1  0.18894100  0.89829100  0.27937100  1
  C  126  1  0.17129800  0.81533250  0.24730900  1
  C  127  1  0.08380100  0.80732300  0.21644100  1
  C  128  1  0.01352700  0.88474700  0.21728900  1
  C  131  1  0.95828700  0.04133600  0.25417500  1
  C  132  1  0.87706600  0.02803200  0.28677400  1
  C  133  1  0.80146300  0.10030700  0.28791200  1
  C  134  1  0.80862400  0.18473300  0.25581600  1
  C  135  1  0.88952300  0.19812450  0.22299200  1
  C  136  1  0.96507800  0.12651500  0.22333300  1
  C  143  1  0.89269800  0.27975600  0.18468200  1
  C  146  1  0.71758600  0.08876600  0.32350100  1
  C  149  1  0.27322500  0.90096300  0.31707700  1
  C  152  1  0.07031300  0.72273200  0.18044600  1
  H  25  1  0.70335200  0.29681550  0.09214400  1
  H  26  1  0.67307100  0.42037300  0.02601700  1
  H  27  1  0.67589500  0.56152400  0.96358400  1
  H  28  1  0.71183600  0.69395300  0.90413900  1
  H  29  1  0.01823500  0.64305700  0.92661500  1
  H  30  1  0.01137200  0.34236800  0.08191500  1
  H  31  1  0.96898800  0.64255000  0.07614600  1
  H  32  1  0.27499100  0.69268200  0.10085000  1
  H  33  1  0.31220000  0.56114100  0.04107200  1
  H  34  1  0.97860400  0.34263200  0.92079600  1
  H  35  1  0.31609000  0.42051700  0.97818300  1
  H  36  1  0.28686300  0.29704600  0.91189500  1
  H  39  1  0.93348100  0.80543750  0.89146000  1
  H  41  1  0.06650300  0.18894400  0.88198100  1
  H  43  1  0.05436400  0.80500700  0.11215300  1
  H  45  1  0.92442500  0.18872500  0.12132200  1
  H  70  1  0.28961000  0.27735100  0.59111100  1
  H  71  1  0.41854900  0.31045900  0.53050500  1
  H  72  1  0.56107500  0.31091000  0.47122700  1
  H  73  1  0.69071900  0.27864800  0.41092600  1
  H  74  1  0.64406000  0.97116900  0.42627100  1
  H  75  1  0.33972700  0.97027300  0.57663400  1
  H  76  1  0.63957300  0.01351150  0.58200800  1
  H  77  1  0.68774300  0.70690300  0.60184500  1
  H  78  1  0.56212900  0.67181000  0.53606500  1
  H  79  1  0.34289800  0.00999000  0.42104800  1
  H  80  1  0.42319500  0.67031900  0.46982900  1
  H  81  1  0.29639800  0.70251150  0.40424300  1
  H  84  1  0.80179800  0.05739100  0.39096900  1
  H  86  1  0.18531700  0.92251950  0.38175700  1
  H  88  1  0.79722600  0.92817300  0.62281100  1
  H  90  1  0.18065100  0.05593400  0.61173000  1
  H  97  1  0.96381000  0.13786900  0.80505800  1
  H  98  1  0.23475800  0.23406000  0.74710100  1
  H  105  1  0.75826400  0.76522950  0.75698000  1
  H  106  1  0.85454200  0.03886850  0.70017800  1
  H  109  1  0.06189500  0.94782750  0.66023700  1
  H  110  1  0.05076700  0.92390500  0.84422100  1
  H  112  1  0.67656800  0.98213900  0.68586000  1
  H  113  1  0.65034600  0.85690750  0.69888000  1
  H  115  1  0.98752900  0.69915100  0.82251400  1
  H  116  1  0.86420200  0.66406700  0.80948600  1
  H  118  1  0.15399800  0.33539750  0.80958900  1
  H  119  1  0.02588100  0.31778600  0.81700600  1
  H  121  1  0.29517800  0.01067300  0.68173500  1
  H  122  1  0.32669800  0.13603300  0.68956400  1
  H  129  1  0.12828200  0.03331800  0.30458600  1
  H  130  1  0.22213700  0.75931900  0.24710400  1
  H  137  1  0.75331600  0.23631400  0.25558800  1
  H  138  1  0.02325800  0.13421500  0.19900500  1
  H  141  1  0.93407000  0.92213100  0.15890100  1
  H  142  1  0.91829200  0.94617700  0.34316400  1
  H  144  1  0.96516800  0.31567000  0.18673800  1
  H  145  1  0.83725000  0.33576400  0.19349500  1
  H  147  1  0.68677100  0.01418500  0.32038000  1
  H  148  1  0.65816100  0.14026250  0.31265500  1
  H  150  1  0.33068000  0.84908900  0.30548800  1
  H  151  1  0.30620000  0.97482250  0.31808800  1
  H  153  1  0.99322400  0.69825300  0.17892000  1
  H  154  1  0.11474400  0.65981800  0.19411000  1
  N  38  1  0.88326000  0.75666750  0.87536900  1
  N  40  1  0.11890900  0.23929000  0.87113700  1
  N  42  1  0.10271500  0.75497900  0.12877200  1
  N  44  1  0.87181800  0.23887600  0.13215200  1
  N  83  1  0.75276000  0.10967900  0.37728500  1
  N  85  1  0.23599600  0.87253700  0.36849900  1
  N  87  1  0.74655000  0.87835100  0.63623100  1
  N  89  1  0.22991400  0.10798150  0.62543400  1
  O  107  1  0.11211800  0.94336900  0.68836300  1
  O  108  1  0.05514400  0.87871700  0.81454800  1
  O  139  1  0.92758600  0.87741700  0.18864300  1
  O  140  1  0.86847000  0.94295650  0.31480100  1
