# generated using pymatgen
data_ZnH13C22N3O4
_symmetry_space_group_name_H-M   'P 1'
_cell_length_a   18.23210957
_cell_length_b   18.33507000
_cell_length_c   18.33716000
_cell_angle_alpha   70.41051000
_cell_angle_beta   70.64564052
_cell_angle_gamma   109.35740620
_symmetry_Int_Tables_number   1
_chemical_formula_structural   ZnH13C22N3O4
_chemical_formula_sum   'Zn6 H78 C132 N18 O24'
_cell_volume   4725.29453661
_cell_formula_units_Z   6
loop_
 _symmetry_equiv_pos_site_id
 _symmetry_equiv_pos_as_xyz
  1  'x, y, z'
loop_
 _atom_site_type_symbol
 _atom_site_label
 _atom_site_symmetry_multiplicity
 _atom_site_fract_x
 _atom_site_fract_y
 _atom_site_fract_z
 _atom_site_occupancy
  Zn  Zn1  1  0.66835000  0.91999000  0.48045000  1.0
  Zn  Zn2  1  0.74835000  0.59957000  0.92000000  1.0
  Zn  Zn3  1  0.14882000  0.48046000  0.59953000  1.0
  Zn  Zn4  1  0.33165000  0.08001000  0.51955000  1.0
  Zn  Zn5  1  0.25165000  0.40043000  0.08000000  1.0
  Zn  Zn6  1  0.85119000  0.51954000  0.40046000  1.0
  H  H1  1  0.50525000  0.72971000  0.62633000  1.0
  H  H2  1  0.33944000  0.65002000  0.67776000  1.0
  H  H3  1  0.27827000  0.73462000  0.60397000  1.0
  H  H4  1  0.38309000  0.89316000  0.47840000  1.0
  H  H5  1  0.53425000  0.10885000  0.22002000  1.0
  H  H6  1  0.55098000  0.23530000  0.09666000  1.0
  H  H7  1  0.79293000  0.41393000  0.07014000  1.0
  H  H8  1  0.77758000  0.28886000  0.19484000  1.0
  H  H9  1  0.79215000  0.10864000  0.40378000  1.0
  H  H10  1  0.95668000  0.19109000  0.34135000  1.0
  H  H11  1  0.99838000  0.27305000  0.07623000  1.0
  H  H12  1  0.83313000  0.19119000  0.13714000  1.0
  H  H13  1  0.49776000  0.03714000  0.36073000  1.0
  H  H14  1  0.77549000  0.64393000  0.72983000  1.0
  H  H15  1  0.68939000  0.67219000  0.65011000  1.0
  H  H16  1  0.54363000  0.66140000  0.73465000  1.0
  H  H17  1  0.48990000  0.62846000  0.89317000  1.0
  H  H18  1  0.42539000  0.67112000  0.10884000  1.0
  H  H19  1  0.31569000  0.66803000  0.23528000  1.0
  H  H20  1  0.37906000  0.51593000  0.41387000  1.0
  H  H21  1  0.48875000  0.51631000  0.28879000  1.0
  H  H22  1  0.68351000  0.48757000  0.10865000  1.0
  H  H23  1  0.76559000  0.46755000  0.19108000  1.0
  H  H24  1  0.72533000  0.65072000  0.27305000  1.0
  H  H25  1  0.64194000  0.67168000  0.19120000  1.0
  H  H26  1  0.46061000  0.60214000  0.03715000  1.0
  H  H27  1  0.13159000  0.62632000  0.64394000  1.0
  H  H28  1  0.01720000  0.67774000  0.67222000  1.0
  H  H29  1  0.88224000  0.60395000  0.66142000  1.0
  H  H30  1  0.86148000  0.47837000  0.62846000  1.0
  H  H31  1  0.75426000  0.22000000  0.67113000  1.0
  H  H32  1  0.64765000  0.09666000  0.66802000  1.0
  H  H33  1  0.86307000  0.07015000  0.51594000  1.0
  H  H34  1  0.97242000  0.19486000  0.51630000  1.0
  H  H35  1  0.19593000  0.40380000  0.48756000  1.0
  H  H36  1  0.29803000  0.34138000  0.46753000  1.0
  H  H37  1  0.07461000  0.07621000  0.65072000  1.0
  H  H38  1  0.97026000  0.13711000  0.67168000  1.0
  H  H39  1  0.85848000  0.36073000  0.60215000  1.0
  H  H40  1  0.49475000  0.27029000  0.37367000  1.0
  H  H41  1  0.66057000  0.34998000  0.32223000  1.0
  H  H42  1  0.72173000  0.26538000  0.39603000  1.0
  H  H43  1  0.61691000  0.10684000  0.52161000  1.0
  H  H44  1  0.46576000  0.89116000  0.77998000  1.0
  H  H45  1  0.44903000  0.76471000  0.90333000  1.0
  H  H46  1  0.20707000  0.58607000  0.92986000  1.0
  H  H47  1  0.22243000  0.71115000  0.80515000  1.0
  H  H48  1  0.20785000  0.89136000  0.59622000  1.0
  H  H49  1  0.04332000  0.80891000  0.65865000  1.0
  H  H50  1  0.00162000  0.72695000  0.92377000  1.0
  H  H51  1  0.16687000  0.80881000  0.86286000  1.0
  H  H52  1  0.50225000  0.96287000  0.63926000  1.0
  H  H53  1  0.22451000  0.35607000  0.27017000  1.0
  H  H54  1  0.31062000  0.32781000  0.34989000  1.0
  H  H55  1  0.45638000  0.33860000  0.26534000  1.0
  H  H56  1  0.51010000  0.37154000  0.10683000  1.0
  H  H57  1  0.57461000  0.32887000  0.89116000  1.0
  H  H58  1  0.68431000  0.33197000  0.76472000  1.0
  H  H59  1  0.62095000  0.48408000  0.58612000  1.0
  H  H60  1  0.51125000  0.48369000  0.71121000  1.0
  H  H61  1  0.31650000  0.51243000  0.89135000  1.0
  H  H62  1  0.23441000  0.53245000  0.80892000  1.0
  H  H63  1  0.27468000  0.34928000  0.72694000  1.0
  H  H64  1  0.35807000  0.32833000  0.80880000  1.0
  H  H65  1  0.53939000  0.39786000  0.96286000  1.0
  H  H66  1  0.86841000  0.37368000  0.35606000  1.0
  H  H67  1  0.98280000  0.32226000  0.32778000  1.0
  H  H68  1  0.11776000  0.39605000  0.33858000  1.0
  H  H69  1  0.13852000  0.52163000  0.37154000  1.0
  H  H70  1  0.24574000  0.78000000  0.32887000  1.0
  H  H71  1  0.35236000  0.90335000  0.33197000  1.0
  H  H72  1  0.13693000  0.92985000  0.48407000  1.0
  H  H73  1  0.02759000  0.80515000  0.48369000  1.0
  H  H74  1  0.80408000  0.59621000  0.51243000  1.0
  H  H75  1  0.70197000  0.65862000  0.53247000  1.0
  H  H76  1  0.92539000  0.92379000  0.34928000  1.0
  H  H77  1  0.02974000  0.86289000  0.32832000  1.0
  H  H78  1  0.14152000  0.63927000  0.39785000  1.0
  C  C1  1  0.47406000  0.76294000  0.59769000  1.0
  C  C2  1  0.38293000  0.71969000  0.62567000  1.0
  C  C3  1  0.34920000  0.76704000  0.58340000  1.0
  C  C4  1  0.40688000  0.85505000  0.51395000  1.0
  C  C5  1  0.49785000  0.89386000  0.48899000  1.0
  C  C6  1  0.56692000  0.98287000  0.41476000  1.0
  C  C7  1  0.70289000  0.09586000  0.31531000  1.0
  C  C8  1  0.64326000  0.11479000  0.29051000  1.0
  C  C9  1  0.65508000  0.18946000  0.21645000  1.0
  C  C10  1  0.59115000  0.17527000  0.18798000  1.0
  C  C11  1  0.60023000  0.24587000  0.11861000  1.0
  C  C12  1  0.67321000  0.33214000  0.07550000  1.0
  C  C13  1  0.73706000  0.34658000  0.10354000  1.0
  C  C14  1  0.72817000  0.27642000  0.17324000  1.0
  C  C15  1  0.67941000  0.40836000  0.00415000  1.0
  C  C16  1  0.80062000  0.14601000  0.27489000  1.0
  C  C17  1  0.83660000  0.14524000  0.33203000  1.0
  C  C18  1  0.92869000  0.19136000  0.29740000  1.0
  C  C19  1  0.98730000  0.23914000  0.20506000  1.0
  C  C20  1  0.95215000  0.23766000  0.14770000  1.0
  C  C21  1  0.85965000  0.19187000  0.18217000  1.0
  C  C22  1  0.08527000  0.29377000  0.16987000  1.0
  C  C23  1  0.71108000  0.63936000  0.76302000  1.0
  C  C24  1  0.66321000  0.65463000  0.71977000  1.0
  C  C25  1  0.58213000  0.64956000  0.76709000  1.0
  C  C26  1  0.55180000  0.63101000  0.85509000  1.0
  C  C27  1  0.60396000  0.61717000  0.89389000  1.0
  C  C28  1  0.58403000  0.60238000  0.98289000  1.0
  C  C29  1  0.60702000  0.58882000  0.09587000  1.0
  C  C30  1  0.52846000  0.59470000  0.11480000  1.0
  C  C31  1  0.46562000  0.59409000  0.18944000  1.0
  C  C32  1  0.41587000  0.63674000  0.17527000  1.0
  C  C33  1  0.35437000  0.63551000  0.24585000  1.0
  C  C34  1  0.34109000  0.59235000  0.33212000  1.0
  C  C35  1  0.39051000  0.54988000  0.34654000  1.0
  C  C36  1  0.45177000  0.55034000  0.27637000  1.0
  C  C37  1  0.27108000  0.58750000  0.40831000  1.0
  C  C38  1  0.65461000  0.57910000  0.14601000  1.0
  C  C39  1  0.69137000  0.52274000  0.14523000  1.0
  C  C40  1  0.73733000  0.51124000  0.19136000  1.0
  C  C41  1  0.74816000  0.55580000  0.23914000  1.0
  C  C42  1  0.71449000  0.61464000  0.23766000  1.0
  C  C43  1  0.66778000  0.62596000  0.19187000  1.0
  C  C44  1  0.79148000  0.53634000  0.29379000  1.0
  C  C45  1  0.07176000  0.59768000  0.63935000  1.0
  C  C46  1  0.00860000  0.62565000  0.65464000  1.0
  C  C47  1  0.93260000  0.58338000  0.64957000  1.0
  C  C48  1  0.92083000  0.51393000  0.63100000  1.0
  C  C49  1  0.98685000  0.48899000  0.61714000  1.0
  C  C50  1  0.98169000  0.41476000  0.60235000  1.0
  C  C51  1  0.01820000  0.31531000  0.58882000  1.0
  C  C52  1  0.93377000  0.29051000  0.59469000  1.0
  C  C53  1  0.87153000  0.21645000  0.59409000  1.0
  C  C54  1  0.77913000  0.18797000  0.63674000  1.0
  C  C55  1  0.71884000  0.11860000  0.63551000  1.0
  C  C56  1  0.74871000  0.07549000  0.59235000  1.0
  C  C57  1  0.84060000  0.10354000  0.54988000  1.0
  C  C58  1  0.90140000  0.17324000  0.55035000  1.0
  C  C59  1  0.68356000  0.00415000  0.58749000  1.0
  C  C60  1  0.07551000  0.27489000  0.57910000  1.0
  C  C61  1  0.16863000  0.33204000  0.52273000  1.0
  C  C62  1  0.22609000  0.29741000  0.51122000  1.0
  C  C63  1  0.19235000  0.20505000  0.55579000  1.0
  C  C64  1  0.09985000  0.14769000  0.61464000  1.0
  C  C65  1  0.04182000  0.18216000  0.62596000  1.0
  C  C66  1  0.25513000  0.16987000  0.53635000  1.0
  C  C67  1  0.52594000  0.23705000  0.40231000  1.0
  C  C68  1  0.61707000  0.28031000  0.37433000  1.0
  C  C69  1  0.65081000  0.23297000  0.41659000  1.0
  C  C70  1  0.59312000  0.14494000  0.48605000  1.0
  C  C71  1  0.50215000  0.10614000  0.51101000  1.0
  C  C72  1  0.43308000  0.01713000  0.58524000  1.0
  C  C73  1  0.29711000  0.90414000  0.68469000  1.0
  C  C74  1  0.35674000  0.88520000  0.70949000  1.0
  C  C75  1  0.34492000  0.81054000  0.78355000  1.0
  C  C76  1  0.40885000  0.82472000  0.81202000  1.0
  C  C77  1  0.39977000  0.75413000  0.88139000  1.0
  C  C78  1  0.32679000  0.66786000  0.92450000  1.0
  C  C79  1  0.26294000  0.65342000  0.89646000  1.0
  C  C80  1  0.27184000  0.72359000  0.82675000  1.0
  C  C81  1  0.32060000  0.59165000  0.99584000  1.0
  C  C82  1  0.19938000  0.85399000  0.72511000  1.0
  C  C83  1  0.16340000  0.85476000  0.66798000  1.0
  C  C84  1  0.07131000  0.80864000  0.70261000  1.0
  C  C85  1  0.01270000  0.76085000  0.79495000  1.0
  C  C86  1  0.04785000  0.76234000  0.85230000  1.0
  C  C87  1  0.14035000  0.80813000  0.81783000  1.0
  C  C88  1  0.91474000  0.70624000  0.83012000  1.0
  C  C89  1  0.28893000  0.36064000  0.23697000  1.0
  C  C90  1  0.33680000  0.34538000  0.28023000  1.0
  C  C91  1  0.41787000  0.35044000  0.23292000  1.0
  C  C92  1  0.44821000  0.36900000  0.14491000  1.0
  C  C93  1  0.39604000  0.38283000  0.10611000  1.0
  C  C94  1  0.41597000  0.39761000  0.01711000  1.0
  C  C95  1  0.39298000  0.41117000  0.90413000  1.0
  C  C96  1  0.47154000  0.40530000  0.88521000  1.0
  C  C97  1  0.53438000  0.40591000  0.81056000  1.0
  C  C98  1  0.58413000  0.36326000  0.82474000  1.0
  C  C99  1  0.64564000  0.36449000  0.75414000  1.0
  C  C100  1  0.65891000  0.40765000  0.66789000  1.0
  C  C101  1  0.60949000  0.45012000  0.65346000  1.0
  C  C102  1  0.54823000  0.44965000  0.72363000  1.0
  C  C103  1  0.72893000  0.41251000  0.59168000  1.0
  C  C104  1  0.34539000  0.42090000  0.85399000  1.0
  C  C105  1  0.30864000  0.47727000  0.85476000  1.0
  C  C106  1  0.26267000  0.48875000  0.80864000  1.0
  C  C107  1  0.25185000  0.44421000  0.76085000  1.0
  C  C108  1  0.28551000  0.38536000  0.76234000  1.0
  C  C109  1  0.33222000  0.37404000  0.80813000  1.0
  C  C110  1  0.20853000  0.46366000  0.70621000  1.0
  C  C111  1  0.92824000  0.40232000  0.36065000  1.0
  C  C112  1  0.99140000  0.37435000  0.34536000  1.0
  C  C113  1  0.06740000  0.41662000  0.35044000  1.0
  C  C114  1  0.07917000  0.48607000  0.36900000  1.0
  C  C115  1  0.01315000  0.51101000  0.38287000  1.0
  C  C116  1  0.01831000  0.58523000  0.39765000  1.0
  C  C117  1  0.98180000  0.68469000  0.41118000  1.0
  C  C118  1  0.06624000  0.70950000  0.40530000  1.0
  C  C119  1  0.12848000  0.78356000  0.40590000  1.0
  C  C120  1  0.22087000  0.81203000  0.36327000  1.0
  C  C121  1  0.28116000  0.88140000  0.36449000  1.0
  C  C122  1  0.25129000  0.92450000  0.40765000  1.0
  C  C123  1  0.15940000  0.89645000  0.45012000  1.0
  C  C124  1  0.09860000  0.82675000  0.44965000  1.0
  C  C125  1  0.31644000  0.99585000  0.41251000  1.0
  C  C126  1  0.92449000  0.72511000  0.42090000  1.0
  C  C127  1  0.83138000  0.66797000  0.47727000  1.0
  C  C128  1  0.77392000  0.70260000  0.48877000  1.0
  C  C129  1  0.80765000  0.79494000  0.44421000  1.0
  C  C130  1  0.90015000  0.85231000  0.38536000  1.0
  C  C131  1  0.95819000  0.81785000  0.37403000  1.0
  C  C132  1  0.74487000  0.83013000  0.46365000  1.0
  N  N1  1  0.53024000  0.84807000  0.53134000  1.0
  N  N2  1  0.65341000  0.01412000  0.39270000  1.0
  N  N3  1  0.55873000  0.04226000  0.35452000  1.0
  N  N4  1  0.68212000  0.62058000  0.84814000  1.0
  N  N5  1  0.63928000  0.59319000  0.01413000  1.0
  N  N6  1  0.51646000  0.60323000  0.04227000  1.0
  N  N7  1  0.06160000  0.53135000  0.62055000  1.0
  N  N8  1  0.04611000  0.39270000  0.59317000  1.0
  N  N9  1  0.91325000  0.35452000  0.60322000  1.0
  N  N10  1  0.46976000  0.15192000  0.46866000  1.0
  N  N11  1  0.34660000  0.98589000  0.60729000  1.0
  N  N12  1  0.44127000  0.95774000  0.64548000  1.0
  N  N13  1  0.31788000  0.37942000  0.15186000  1.0
  N  N14  1  0.36072000  0.40680000  0.98588000  1.0
  N  N15  1  0.48354000  0.39677000  0.95773000  1.0
  N  N16  1  0.93840000  0.46865000  0.37945000  1.0
  N  N17  1  0.95389000  0.60729000  0.40684000  1.0
  N  N18  1  0.08675000  0.64548000  0.39678000  1.0
  O  O1  1  0.74733000  0.48561000  0.96983000  1.0
  O  O2  1  0.61777000  0.39304000  0.98466000  1.0
  O  O3  1  0.11226000  0.31601000  0.21858000  1.0
  O  O4  1  0.14006000  0.31896000  0.08880000  1.0
  O  O5  1  0.26174000  0.54457000  0.48556000  1.0
  O  O6  1  0.22475000  0.62230000  0.39300000  1.0
  O  O7  1  0.79623000  0.46539000  0.31603000  1.0
  O  O8  1  0.82106000  0.59221000  0.31900000  1.0
  O  O9  1  0.71715000  0.96982000  0.54458000  1.0
  O  O10  1  0.60243000  0.98466000  0.62230000  1.0
  O  O11  1  0.33083000  0.21858000  0.46542000  1.0
  O  O12  1  0.22883000  0.08877000  0.59223000  1.0
  O  O13  1  0.25268000  0.51440000  0.03016000  1.0
  O  O14  1  0.38223000  0.60695000  0.01534000  1.0
  O  O15  1  0.88774000  0.68399000  0.78143000  1.0
  O  O16  1  0.85995000  0.68105000  0.91119000  1.0
  O  O17  1  0.73826000  0.45543000  0.51444000  1.0
  O  O18  1  0.77525000  0.37770000  0.60700000  1.0
  O  O19  1  0.20377000  0.53461000  0.68398000  1.0
  O  O20  1  0.17894000  0.40778000  0.68101000  1.0
  O  O21  1  0.28286000  0.03018000  0.45542000  1.0
  O  O22  1  0.39758000  0.01535000  0.37769000  1.0
  O  O23  1  0.66917000  0.78142000  0.53458000  1.0
  O  O24  1  0.77117000  0.91123000  0.40778000  1.0
