# generated using pymatgen
data_H12C14(NO)3
_symmetry_space_group_name_H-M   'P 1'
_cell_length_a   24.00410000
_cell_length_b   24.00410000
_cell_length_c   27.47260000
_cell_angle_alpha   90.00000000
_cell_angle_beta   90.00000000
_cell_angle_gamma   120.00000000
_symmetry_Int_Tables_number   1
_chemical_formula_structural   H12C14(NO)3
_chemical_formula_sum   'H72 C84 N18 O18'
_cell_volume   13708.85709616
_cell_formula_units_Z   6
loop_
 _symmetry_equiv_pos_site_id
 _symmetry_equiv_pos_as_xyz
  1  'x, y, z'
loop_
 _atom_site_type_symbol
 _atom_site_label
 _atom_site_symmetry_multiplicity
 _atom_site_fract_x
 _atom_site_fract_y
 _atom_site_fract_z
 _atom_site_occupancy
  C  1  1  0.42250450  0.47161650  0.01875700  1
  C  2  1  0.42760050  0.50732950  0.97651000  1
  C  3  1  0.40055100  0.54772400  0.97418100  1
  C  4  1  0.36670000  0.55056100  0.01520800  1
  C  5  1  0.35995850  0.51448650  0.05750900  1
  C  6  1  0.39002300  0.47662900  0.05998000  1
  C  9  1  0.45010350  0.43148650  0.01850200  1
  C  10  1  0.42993500  0.38079600  0.98430000  1
  C  11  1  0.46346050  0.34663350  0.98014600  1
  C  12  1  0.51547050  0.36144450  0.01173900  1
  C  13  1  0.53475200  0.41046900  0.04669800  1
  C  14  1  0.50215450  0.44555150  0.04977000  1
  C  29  1  0.99078600  0.52229900  0.35208200  1
  C  30  1  0.02143250  0.51722650  0.30984300  1
  C  31  1  0.08887750  0.54425550  0.30754700  1
  C  32  1  0.12553100  0.57806000  0.34859800  1
  C  33  1  0.09616850  0.58475550  0.39089900  1
  C  34  1  0.02824600  0.55471900  0.39333400  1
  C  37  1  0.92305900  0.49473000  0.35179100  1
  C  38  1  0.89260950  0.51498050  0.31758600  1
  C  39  1  0.82492000  0.48153300  0.31341100  1
  C  40  1  0.78766250  0.42951050  0.34497700  1
  C  41  1  0.81733350  0.41014650  0.37993500  1
  C  42  1  0.88501000  0.44267100  0.38303300  1
  C  57  1  0.47327350  0.95403550  0.68542200  1
  C  58  1  0.43752050  0.92334750  0.64320500  1
  C  59  1  0.39714650  0.85589650  0.64093000  1
  C  60  1  0.39435650  0.81927750  0.68198800  1
  C  61  1  0.43046550  0.84868150  0.72426300  1
  C  62  1  0.46831600  0.91660800  0.72667400  1
  C  65  1  0.51337650  0.02176850  0.68510700  1
  C  66  1  0.56399000  0.05227000  0.65084100  1
  C  67  1  0.59811200  0.11995400  0.64663500  1
  C  68  1  0.58334150  0.15717250  0.67824100  1
  C  69  1  0.53440350  0.12745650  0.71326600  1
  C  70  1  0.49935700  0.05977900  0.71638900  1
  C  85  1  0.45843700  0.21136800  0.77283000  1
  C  86  1  0.50448850  0.27755050  0.77127900  1
  C  87  1  0.51206250  0.31875950  0.81064900  1
  C  88  1  0.47261500  0.29312800  0.85262600  1
  C  89  1  0.42314300  0.22784800  0.85217900  1
  C  91  1  0.41637150  0.18741850  0.81299600  1
  C  97  1  0.46178800  0.16694300  0.73694500  1
  C  98  1  0.48632850  0.33437150  0.89662200  1
  C  103  1  0.69475300  0.48645600  0.10605900  1
  C  104  1  0.71480750  0.44034750  0.10455200  1
  C  105  1  0.74852700  0.43286100  0.14389600  1
  C  106  1  0.76236750  0.47235850  0.18584700  1
  C  107  1  0.74661050  0.52186650  0.18535200  1
  C  109  1  0.71304600  0.52869700  0.14612800  1
  C  115  1  0.64691300  0.48308800  0.07022300  1
  C  116  1  0.78988250  0.45866950  0.22986600  1
  C  121  1  0.73320150  0.25014650  0.43928900  1
  C  122  1  0.66704150  0.23009950  0.43778500  1
  C  123  1  0.62582150  0.19635650  0.47711900  1
  C  124  1  0.65147450  0.18252350  0.51907400  1
  C  125  1  0.71672750  0.19823250  0.51857500  1
  C  127  1  0.75716000  0.23196700  0.47941200  1
  C  133  1  0.77767400  0.29795700  0.40344200  1
  C  134  1  0.61026450  0.15499950  0.56308800  1
  C  139  1  0.47880050  0.75279650  0.80048900  1
  C  140  1  0.44211350  0.68933750  0.78272000  1
  C  141  1  0.43108150  0.63570150  0.81132900  1
  C  142  1  0.45693650  0.64606150  0.85915800  1
  C  143  1  0.49273400  0.70967100  0.87708600  1
  C  145  1  0.50394050  0.76237950  0.84808500  1
  C  151  1  0.48996200  0.80784400  0.76937150  1
  C  152  1  0.44831850  0.59289450  0.89176700  1
  C  157  1  0.21572100  0.46619900  0.13371900  1
  C  158  1  0.18897450  0.50293450  0.11600700  1
  C  159  1  0.14638650  0.51394850  0.14465000  1
  C  160  1  0.13087650  0.48802050  0.19245700  1
  C  161  1  0.15866000  0.45217100  0.21033000  1
  C  163  1  0.20016050  0.44099750  0.18130100  1
  C  169  1  0.25958250  0.45504650  0.10256400  1
  C  170  1  0.08632850  0.49659850  0.22509400  1
  C  175  1  0.19211500  0.72891300  0.46718200  1
  C  176  1  0.25558550  0.75566850  0.44944100  1
  C  177  1  0.30920650  0.79826050  0.47806900  1
  C  178  1  0.29881950  0.81377850  0.52588000  1
  C  179  1  0.23519650  0.78598550  0.54378200  1
  C  181  1  0.18250350  0.74447850  0.51477100  1
  C  187  1  0.13708050  0.68506950  0.43603800  1
  C  188  1  0.35196450  0.85836050  0.55849100  1
  H  7  1  0.45156300  0.50363900  0.94705600  1
  H  8  1  0.34531750  0.57826550  0.01383200  1
  H  15  1  0.54027300  0.33720000  0.00856200  1
  H  16  1  0.51750450  0.48233150  0.07442000  1
  H  19  1  0.41491600  0.47166300  0.12445900  1
  H  20  1  0.34081050  0.33786050  0.97082000  1
  H  22  1  0.56975250  0.41911150  0.11359000  1
  H  24  1  0.45498550  0.26562050  0.95176500  1
  H  26  1  0.35931700  0.56857300  0.91943000  1
  H  28  1  0.34687400  0.53093600  0.12705400  1
  H  35  1  0.99380350  0.49329850  0.28037400  1
  H  36  1  0.17461850  0.59940150  0.34725900  1
  H  43  1  0.73861950  0.40473650  0.34175900  1
  H  44  1  0.90639200  0.42729100  0.40769700  1
  H  47  1  0.99833650  0.52978350  0.45779800  1
  H  48  1  0.93887150  0.60411250  0.30413600  1
  H  50  1  0.79089450  0.37512950  0.44680900  1
  H  52  1  0.75247750  0.49009150  0.28495300  1
  H  54  1  0.15103650  0.58553150  0.25284500  1
  H  56  1  0.12564650  0.59773850  0.46045500  1
  H  63  1  0.44116850  0.95095350  0.61373200  1
  H  64  1  0.36666250  0.77018450  0.68065800  1
  H  71  1  0.60757000  0.20621700  0.67503300  1
  H  72  1  0.46263800  0.03836700  0.74108700  1
  H  75  1  0.47334150  0.94652850  0.79114000  1
  H  76  1  0.60693900  0.00610200  0.63733300  1
  H  78  1  0.52595800  0.15389400  0.78017300  1
  H  80  1  0.67907600  0.19247600  0.61818700  1
  H  82  1  0.37624900  0.79370500  0.58625000  1
  H  84  1  0.41404750  0.81922750  0.79382700  1
  H  90  1  0.53581050  0.29537950  0.74257750  1
  H  92  1  0.39322350  0.20784350  0.88134300  1
  H  93  1  0.38318000  0.13947300  0.81551700  1
  H  99  1  0.42062200  0.11825900  0.74065800  1
  H  100  1  0.46063100  0.18376100  0.70015300  1
  H  101  1  0.47847900  0.37398600  0.88638000  1
  H  102  1  0.53737500  0.35474600  0.90550200  1
  H  108  1  0.70129750  0.40901950  0.07585400  1
  H  110  1  0.75653350  0.55180550  0.21450500  1
  H  111  1  0.69816400  0.56178500  0.14869000  1
  H  117  1  0.63945700  0.52429900  0.07389900  1
  H  118  1  0.66478050  0.48412150  0.03341500  1
  H  119  1  0.83734650  0.46649950  0.21964100  1
  H  120  1  0.75919900  0.40763200  0.23876200  1
  H  126  1  0.64918500  0.24350600  0.40904800  1
  H  128  1  0.73677300  0.18840900  0.54776000  1
  H  129  1  0.80510550  0.24672450  0.48193900  1
  H  135  1  0.82632450  0.30537250  0.40710400  1
  H  136  1  0.76081550  0.28008850  0.36663500  1
  H  137  1  0.57065400  0.10751900  0.55287100  1
  H  138  1  0.58987900  0.18565800  0.57197400  1
  H  144  1  0.42343550  0.68183950  0.74826900  1
  H  146  1  0.51167550  0.71821250  0.91148600  1
  H  147  1  0.53030350  0.80776750  0.86213200  1
  H  153  1  0.52603800  0.85332800  0.78562100  1
  H  154  1  0.50929900  0.80317500  0.73447800  1
  H  155  1  0.49584550  0.60483350  0.90543900  1
  H  156  1  0.42898050  0.54714550  0.87242100  1
  H  162  1  0.20016050  0.52165750  0.08156900  1
  H  164  1  0.14825500  0.43318000  0.24471700  1
  H  165  1  0.21915900  0.41459000  0.19530400  1
  H  171  1  0.26896100  0.41892800  0.11877300  1
  H  172  1  0.23556600  0.43576200  0.06766800  1
  H  173  1  0.05071850  0.44905250  0.23871800  1
  H  174  1  0.05994100  0.51599100  0.20578000  1
  H  180  1  0.26310100  0.74447600  0.41499900  1
  H  182  1  0.22663450  0.79639850  0.57817300  1
  H  183  1  0.13710850  0.72547950  0.52879600  1
  H  189  1  0.09159250  0.67567650  0.45227300  1
  H  190  1  0.14179200  0.70911200  0.40115600  1
  H  191  1  0.34001650  0.89396550  0.57210800  1
  H  192  1  0.39772500  0.88474900  0.53915600  1
  N  21  1  0.58553950  0.42203250  0.07835500  1
  N  23  1  0.44805150  0.30277550  0.94115550  1
  N  25  1  0.40496750  0.58558650  0.93294600  1
  N  27  1  0.32094950  0.51633350  0.09524400  1
  N  49  1  0.77804550  0.35935850  0.41157000  1
  N  51  1  0.79656050  0.49698050  0.27437900  1
  N  53  1  0.12235200  0.53986200  0.26632000  1
  N  55  1  0.13699650  0.62370750  0.42866700  1
  N  77  1  0.52290600  0.16670200  0.74494900  1
  N  79  1  0.64191500  0.14837300  0.60760900  1
  N  81  1  0.35925550  0.82237850  0.59972100  1
  N  83  1  0.42865700  0.80788400  0.76203100  1
  N  94  1  0.56039000  0.38455300  0.80952600  1
  N  112  1  0.76596950  0.38451550  0.14281200  1
  N  130  1  0.56002150  0.17887050  0.47601600  1
  N  148  1  0.39419250  0.57239150  0.79290900  1
  N  166  1  0.11998500  0.55088200  0.12628200  1
  N  184  1  0.37252750  0.82466650  0.45967600  1
  O  17  1  0.38392700  0.44149700  0.10065000  1
  O  18  1  0.38050350  0.36665650  0.95299600  1
  O  45  1  0.99917300  0.56078300  0.43399300  1
  O  46  1  0.92796450  0.56441950  0.28630400  1
  O  73  1  0.50348950  0.94570550  0.76731100  1
  O  74  1  0.57809850  0.01696050  0.61953400  1
  O  95  1  0.61568250  0.39148650  0.80564600  1
  O  96  1  0.55159750  0.41365250  0.77500800  1
  O  113  1  0.71759300  0.32922200  0.13900400  1
  O  114  1  0.80380050  0.39322750  0.10826800  1
  O  131  1  0.55306750  0.22722250  0.47219400  1
  O  132  1  0.53093650  0.14103050  0.44146900  1
  O  149  1  0.33778850  0.55909950  0.78284100  1
  O  150  1  0.41942950  0.56432750  0.75546950  1
  O  167  1  0.16311150  0.60729150  0.11625400  1
  O  168  1  0.08668150  0.52570350  0.08883400  1
  O  185  1  0.38581250  0.78154150  0.44963400  1
  O  186  1  0.38062500  0.85796200  0.42222800  1
