# generated using pymatgen
data_Cr6H17C48O26F
_symmetry_space_group_name_H-M   'P 1'
_cell_length_a   10.72041000
_cell_length_b   10.72961000
_cell_length_c   17.11132000
_cell_angle_alpha   79.84140000
_cell_angle_beta   80.32720000
_cell_angle_gamma   60.44464000
_symmetry_Int_Tables_number   1
_chemical_formula_structural   Cr6H17C48O26F
_chemical_formula_sum   'Cr6 H17 C48 O26 F1'
_cell_volume   1677.73207766
_cell_formula_units_Z   1
loop_
 _symmetry_equiv_pos_site_id
 _symmetry_equiv_pos_as_xyz
  1  'x, y, z'
loop_
 _atom_site_type_symbol
 _atom_site_label
 _atom_site_symmetry_multiplicity
 _atom_site_fract_x
 _atom_site_fract_y
 _atom_site_fract_z
 _atom_site_occupancy
  Cr  Cr0  1  0.61086000  0.60810000  0.47775000  1
  Cr  Cr1  1  0.59999000  0.28889000  0.51158000  1
  Cr  Cr2  1  0.28919000  0.60304000  0.51061000  1
  Cr  Cr3  1  0.05225000  0.05396000  0.03262000  1
  Cr  Cr4  1  0.37316000  0.05989000  0.00729000  1
  Cr  Cr5  1  0.06169000  0.37337000  0.00829000  1
  H  H6  1  0.57951000  0.73419000  0.68489000  1
  H  H7  1  0.17116000  0.67744000  0.33570000  1
  H  H8  1  0.06276000  0.84468000  0.90995000  1
  H  H9  1  0.84860000  0.93961000  0.84135000  1
  H  H10  1  0.86067000  0.98889000  0.69440000  1
  H  H11  1  0.08869000  0.94072000  0.61638000  1
  H  H12  1  0.68549000  0.22936000  0.72985000  1
  H  H13  1  0.87535000  0.57661000  0.85891000  1
  H  H14  1  0.71432000  0.22307000  0.86639000  1
  H  H15  1  0.96853000  0.69808000  0.75483000  1
  H  H16  1  0.98610000  0.66521000  0.61389000  1
  H  H17  1  0.93342000  0.48784000  0.57858000  1
  H  H18  1  0.55040000  0.17952000  0.31683000  1
  H  H19  1  0.98368000  0.46183000  0.19028000  1
  H  H20  1  0.49305000  0.11679000  0.20270000  1
  H  H21  1  0.82890000  0.70158000  0.22989000  1
  H  H22  1  0.92721000  0.81408000  0.29854000  1
  C  C23  1  0.76989000  0.35576000  0.60180000  1
  C  C24  1  0.35005000  0.81828000  0.67640000  1
  C  C25  1  0.81991000  0.35493000  0.84105000  1
  C  C26  1  0.36818000  0.39796000  0.64601000  1
  C  C27  1  0.85728000  0.44485000  0.78142000  1
  C  C28  1  0.86057000  0.43098000  0.70039000  1
  C  C29  1  0.74183000  0.28291000  0.74263000  1
  C  C30  1  0.75167000  0.28489000  0.82120000  1
  C  C31  1  0.89196000  0.54719000  0.79947000  1
  C  C32  1  0.93921000  0.62394000  0.73946000  1
  C  C33  1  0.95036000  0.60396000  0.66031000  1
  C  C34  1  0.20425000  0.85485000  0.80315000  1
  C  C35  1  0.91614000  0.50491000  0.64072000  1
  C  C36  1  0.80399000  0.34690000  0.68164000  1
  C  C37  1  0.27892000  0.30083000  0.19997000  1
  C  C38  1  0.37815000  0.77442000  0.59712000  1
  C  C39  1  0.17621000  0.42656000  0.23677000  1
  C  C40  1  0.22294000  0.47946000  0.28807000  1
  C  C41  1  0.44877000  0.25241000  0.29221000  1
  C  C42  1  0.41407000  0.21402000  0.22897000  1
  C  C43  1  0.02959000  0.50497000  0.22117000  1
  C  C44  1  0.93964000  0.64239000  0.24425000  1
  C  C45  1  0.21369000  0.86503000  0.71925000  1
  C  C46  1  0.99430000  0.70490000  0.28322000  1
  C  C47  1  0.13445000  0.62465000  0.30492000  1
  C  C48  1  0.35318000  0.38340000  0.32329000  1
  C  C49  1  0.36845000  0.77029000  0.28534000  1
  C  C50  1  0.76860000  0.35846000  0.37232000  1
  C  C51  1  0.32970000  0.81483000  0.21933000  1
  C  C52  1  0.80849000  0.33974000  0.29025000  1
  C  C53  1  0.83638000  0.31325000  0.22240000  1
  C  C54  1  0.30891000  0.89081000  0.91303000  1
  C  C55  1  0.26817000  0.29732000  0.87558000  1
  C  C56  1  0.47223000  0.77568000  0.71582000  1
  C  C57  1  0.88795000  0.29844000  0.91547000  1
  C  C58  1  0.30072000  0.87988000  0.13972000  1
  C  C59  1  0.25386000  0.27918000  0.12306000  1
  C  C60  1  0.88431000  0.27908000  0.14273000  1
  C  C61  1  0.37530000  0.40850000  0.39987000  1
  C  C62  1  0.41148000  0.71916000  0.36447000  1
  C  C63  1  0.34198000  0.35424000  0.72676000  1
  C  C64  1  0.31166000  0.32449000  0.79500000  1
  C  C65  1  0.32686000  0.82841000  0.84003000  1
  C  C66  1  0.46090000  0.78114000  0.79615000  1
  C  C67  1  0.07223000  0.87331000  0.84633000  1
  C  C68  1  0.94919000  0.92357000  0.80738000  1
  C  C69  1  0.95604000  0.95046000  0.72469000  1
  C  C70  1  0.08729000  0.91997000  0.68064000  1
  O  O71  1  0.49979000  0.74981000  0.56196000  1
  O  O72  1  0.18102000  0.41173000  0.90847000  1
  O  O73  1  0.94436000  0.36501000  0.93668000  1
  O  O74  1  0.72626000  0.47766000  0.56071000  1
  O  O75  1  0.90667000  0.15938000  0.12379000  1
  O  O76  1  0.17742000  0.93082000  0.11327000  1
  O  O77  1  0.39542000  0.91036000  0.10428000  1
  O  O78  1  0.36173000  0.18601000  0.08013000  1
  O  O79  1  0.17301000  0.40000000  0.08537000  1
  O  O80  1  0.93694000  0.35414000  0.10066000  1
  O  O81  1  0.16237000  0.16241000  0.01607000  1
  O  O82  1  0.46880000  0.29897000  0.44261000  1
  O  O83  1  0.74300000  0.26015000  0.58773000  1
  O  O84  1  0.46655000  0.29774000  0.60528000  1
  O  O85  1  0.25350000  0.48808000  0.61357000  1
  O  O86  1  0.30380000  0.72267000  0.57806000  1
  O  O87  1  0.50222000  0.75113000  0.38648000  1
  O  O88  1  0.72851000  0.47889000  0.39804000  1
  O  O89  1  0.74543000  0.26147000  0.41225000  1
  O  O90  1  0.25593000  0.48940000  0.43809000  1
  O  O91  1  0.30605000  0.72389000  0.41539000  1
  O  O92  1  0.50001000  0.50001000  0.49998000  1
  O  O93  1  0.91468000  0.17110000  0.94690000  1
  O  O94  1  0.18484000  0.94168000  0.94929000  1
  O  O95  1  0.40342000  0.92208000  0.92739000  1
  O  O96  1  0.36915000  0.19688000  0.91615000  1
  F  F97  1  0.58125000  0.74478000  0.83060000  1
