# generated using pymatgen
data_NiH28(C7N2)4
_symmetry_space_group_name_H-M   'P 1'
_cell_length_a   12.94430000
_cell_length_b   14.39123000
_cell_length_c   25.09254268
_cell_angle_alpha   73.57784600
_cell_angle_beta   89.99379753
_cell_angle_gamma   89.99317000
_symmetry_Int_Tables_number   1
_chemical_formula_structural   NiH28(C7N2)4
_chemical_formula_sum   'Ni4 H112 C112 N32'
_cell_volume   4483.65784724
_cell_formula_units_Z   4
loop_
 _symmetry_equiv_pos_site_id
 _symmetry_equiv_pos_as_xyz
  1  'x, y, z'
loop_
 _atom_site_type_symbol
 _atom_site_label
 _atom_site_symmetry_multiplicity
 _atom_site_fract_x
 _atom_site_fract_y
 _atom_site_fract_z
 _atom_site_occupancy
  Ni  Ni0  1  0.88458000  0.15062000  0.22630000  1
  Ni  Ni1  1  0.38461000  0.84933000  0.27378000  1
  Ni  Ni2  1  0.11536000  0.84941000  0.77368000  1
  Ni  Ni3  1  0.61568000  0.15089000  0.72617000  1
  H  H4  1  0.10461000  0.90405000  0.37854000  1
  H  H5  1  0.04477000  0.96762000  0.26774000  1
  H  H6  1  0.89063000  0.13471000  0.35683000  1
  H  H7  1  0.14910000  0.07470000  0.44126000  1
  H  H8  1  0.79335000  0.97850000  0.41460000  1
  H  H9  1  0.76414000  0.89813000  0.48104000  1
  H  H10  1  0.85210000  0.86357000  0.43508000  1
  H  H11  1  0.11124000  0.15045000  0.19091000  1
  H  H12  1  0.16187000  0.12149000  0.08920000  1
  H  H13  1  0.85656000  0.02334000  0.13388000  1
  H  H14  1  0.77627000  0.09719000  0.04392000  1
  H  H15  1  0.80021000  0.16819000  0.97504000  1
  H  H16  1  0.87026000  0.18997000  0.03165000  1
  H  H17  1  0.13908000  0.94811000  0.06953000  1
  H  H18  1  0.00528000  0.34055000  0.22614000  1
  H  H19  1  0.83155000  0.48811000  0.08422000  1
  H  H20  1  0.80464000  0.28962000  0.10525000  1
  H  H21  1  0.92910000  0.47704000  0.25415000  1
  H  H22  1  0.09581000  0.73717000  0.10741000  1
  H  H23  1  0.09385000  0.58427000  0.31798000  1
  H  H24  1  0.95866000  0.56287000  0.32105000  1
  H  H25  1  0.00786000  0.68350000  0.30062000  1
  H  H26  1  0.02766000  0.53060000  0.06055000  1
  H  H27  1  0.06834000  0.65392000  0.04025000  1
  H  H28  1  0.93518000  0.62478000  0.04344000  1
  H  H29  1  0.24159000  0.66925000  0.26365000  1
  H  H30  1  0.05083000  0.88356000  0.15841000  1
  H  H31  1  0.21209000  0.97198000  0.19880000  1
  H  H32  1  0.60483000  0.09584000  0.12146000  1
  H  H33  1  0.54483000  0.03227000  0.23226000  1
  H  H34  1  0.39026000  0.86568000  0.14309000  1
  H  H35  1  0.64923000  0.92567000  0.05872000  1
  H  H36  1  0.29300000  0.02149000  0.08526000  1
  H  H37  1  0.26406000  0.10204000  0.01883000  1
  H  H38  1  0.35190000  0.13635000  0.06492000  1
  H  H39  1  0.61152000  0.84952000  0.30915000  1
  H  H40  1  0.66201000  0.87883000  0.41082000  1
  H  H41  1  0.35669000  0.97671000  0.36598000  1
  H  H42  1  0.27647000  0.90298000  0.45586000  1
  H  H43  1  0.30001000  0.83213000  0.52479000  1
  H  H44  1  0.37028000  0.81007000  0.46832000  1
  H  H45  1  0.63899000  0.05217000  0.43041000  1
  H  H46  1  0.50553000  0.65954000  0.27391000  1
  H  H47  1  0.33133000  0.51232000  0.41572000  1
  H  H48  1  0.30510000  0.71084000  0.39488000  1
  H  H49  1  0.42879000  0.52308000  0.24585000  1
  H  H50  1  0.59609000  0.26327000  0.39253000  1
  H  H51  1  0.59383000  0.41584000  0.18203000  1
  H  H52  1  0.45866000  0.43729000  0.17893000  1
  H  H53  1  0.50784000  0.31665000  0.19939000  1
  H  H54  1  0.52748000  0.46975000  0.43940000  1
  H  H55  1  0.56799000  0.34637000  0.45976000  1
  H  H56  1  0.43489000  0.37567000  0.45645000  1
  H  H57  1  0.74138000  0.33060000  0.23620000  1
  H  H58  1  0.55057000  0.11686000  0.34182000  1
  H  H59  1  0.71152000  0.02797000  0.30141000  1
  H  H60  1  0.89542000  0.09604000  0.62143000  1
  H  H61  1  0.95519000  0.03241000  0.73225000  1
  H  H62  1  0.10925000  0.86526000  0.64317000  1
  H  H63  1  0.85088000  0.92534000  0.55873000  1
  H  H64  1  0.20663000  0.02152000  0.58539000  1
  H  H65  1  0.23584000  0.10192000  0.51896000  1
  H  H66  1  0.14787000  0.13645000  0.56492000  1
  H  H67  1  0.88873000  0.84961000  0.80906000  1
  H  H68  1  0.83813000  0.87846000  0.91081000  1
  H  H69  1  0.14341000  0.97675000  0.86610000  1
  H  H70  1  0.22372000  0.90284000  0.95607000  1
  H  H71  1  0.19984000  0.83181000  0.02493000  1
  H  H72  1  0.12979000  0.81004000  0.96833000  1
  H  H73  1  0.86091000  0.05186000  0.93048000  1
  H  H74  1  0.99475000  0.65947000  0.77388000  1
  H  H75  1  0.16849000  0.51198000  0.91583000  1
  H  H76  1  0.19538000  0.71047000  0.89477000  1
  H  H77  1  0.07095000  0.52302000  0.74587000  1
  H  H78  1  0.90436000  0.26280000  0.89261000  1
  H  H79  1  0.90633000  0.41578000  0.68205000  1
  H  H80  1  0.04152000  0.43714000  0.67902000  1
  H  H81  1  0.99226000  0.31653000  0.69942000  1
  H  H82  1  0.97234000  0.46947000  0.93945000  1
  H  H83  1  0.93169000  0.34614000  0.95979000  1
  H  H84  1  0.06482000  0.37528000  0.95660000  1
  H  H85  1  0.75861000  0.33067000  0.73631000  1
  H  H86  1  0.94934000  0.11639000  0.84168000  1
  H  H87  1  0.78810000  0.02802000  0.80124000  1
  H  H88  1  0.39512000  0.90432000  0.87850000  1
  H  H89  1  0.45534000  0.96774000  0.76772000  1
  H  H90  1  0.60988000  0.13429000  0.85688000  1
  H  H91  1  0.35079000  0.07449000  0.94121000  1
  H  H92  1  0.70705000  0.97862000  0.91470000  1
  H  H93  1  0.73595000  0.89803000  0.98112000  1
  H  H94  1  0.64808000  0.86379000  0.93504000  1
  H  H95  1  0.38858000  0.15049000  0.69087000  1
  H  H96  1  0.33806000  0.12109000  0.58923000  1
  H  H97  1  0.64343000  0.02335000  0.63394000  1
  H  H98  1  0.72356000  0.09712000  0.54408000  1
  H  H99  1  0.69996000  0.16802000  0.47517000  1
  H  H100  1  0.62961000  0.18993000  0.53167000  1
  H  H101  1  0.36099000  0.94786000  0.56958000  1
  H  H102  1  0.49466000  0.34046000  0.72618000  1
  H  H103  1  0.66860000  0.48770000  0.58425000  1
  H  H104  1  0.69492000  0.28919000  0.60509000  1
  H  H105  1  0.57123000  0.47700000  0.75417000  1
  H  H106  1  0.40387000  0.73673000  0.60745000  1
  H  H107  1  0.40609000  0.58428000  0.81794000  1
  H  H108  1  0.54128000  0.56281000  0.82107000  1
  H  H109  1  0.49212000  0.68347000  0.80057000  1
  H  H110  1  0.47262000  0.53025000  0.56060000  1
  H  H111  1  0.43207000  0.65363000  0.54023000  1
  H  H112  1  0.56518000  0.62436000  0.54357000  1
  H  H113  1  0.25855000  0.66946000  0.76376000  1
  H  H114  1  0.44943000  0.88317000  0.65818000  1
  H  H115  1  0.28850000  0.97207000  0.69860000  1
  C  C116  1  0.05259000  0.96123000  0.35705000  1
  C  C117  1  0.02165000  0.99340000  0.30254000  1
  C  C118  1  0.93954000  0.08138000  0.34651000  1
  C  C119  1  0.00034000  0.00657000  0.44357000  1
  C  C120  1  0.08478000  0.04113000  0.46765000  1
  C  C121  1  0.91400000  0.96460000  0.47589000  1
  C  C122  1  0.82595000  0.92396000  0.45057000  1
  C  C123  1  0.06615000  0.11890000  0.16413000  1
  C  C124  1  0.09250000  0.10558000  0.11390000  1
  C  C125  1  0.93079000  0.05654000  0.13580000  1
  C  C126  1  0.00153000  0.03441000  0.04680000  1
  C  C127  1  0.91977000  0.06367000  0.00814000  1
  C  C128  1  0.83747000  0.13347000  0.01499000  1
  C  C129  1  0.07949000  0.97170000  0.03806000  1
  C  C130  1  0.95123000  0.35136000  0.19210000  1
  C  C131  1  0.86299000  0.42820000  0.11634000  1
  C  C132  1  0.85077000  0.32952000  0.12732000  1
  C  C133  1  0.96820000  0.53357000  0.22247000  1
  C  C134  1  0.96445000  0.52970000  0.16684000  1
  C  C135  1  0.00921000  0.60488000  0.12379000  1
  C  C136  1  0.05875000  0.67936000  0.13927000  1
  C  C137  1  0.06651000  0.68027000  0.19511000  1
  C  C138  1  0.01882000  0.60751000  0.23779000  1
  C  C139  1  0.01978000  0.60962000  0.29750000  1
  C  C140  1  0.01016000  0.60344000  0.06395000  1
  C  C141  1  0.21271000  0.74010000  0.24145000  1
  C  C142  1  0.11504000  0.85362000  0.18532000  1
  C  C143  1  0.19472000  0.89597000  0.20614000  1
  C  C144  1  0.55258000  0.03882000  0.14294000  1
  C  C145  1  0.52160000  0.00660000  0.19744000  1
  C  C146  1  0.43932000  0.91889000  0.15341000  1
  C  C147  1  0.50028000  0.99359000  0.05639000  1
  C  C148  1  0.58484000  0.95911000  0.03234000  1
  C  C149  1  0.41388000  0.03542000  0.02406000  1
  C  C150  1  0.32575000  0.07606000  0.04935000  1
  C  C151  1  0.56644000  0.88122000  0.33589000  1
  C  C152  1  0.59262000  0.89457000  0.38611000  1
  C  C153  1  0.43096000  0.94354000  0.36412000  1
  C  C154  1  0.50150000  0.96575000  0.45315000  1
  C  C155  1  0.41978000  0.93638000  0.49183000  1
  C  C156  1  0.33750000  0.86669000  0.48489000  1
  C  C157  1  0.57947000  0.02841000  0.46191000  1
  C  C158  1  0.45137000  0.64882000  0.30791000  1
  C  C159  1  0.36292000  0.57215000  0.38362000  1
  C  C160  1  0.35103000  0.67083000  0.37276000  1
  C  C161  1  0.46799000  0.46660000  0.27752000  1
  C  C162  1  0.46422000  0.47048000  0.33314000  1
  C  C163  1  0.50913000  0.39541000  0.37620000  1
  C  C164  1  0.55884000  0.32101000  0.36072000  1
  C  C165  1  0.56645000  0.32001000  0.30489000  1
  C  C166  1  0.51870000  0.39269000  0.26221000  1
  C  C167  1  0.51975000  0.39052000  0.20251000  1
  C  C168  1  0.50994000  0.39691000  0.43601000  1
  C  C169  1  0.71243000  0.25981000  0.25848000  1
  C  C170  1  0.61482000  0.14661000  0.31488000  1
  C  C171  1  0.69431000  0.10402000  0.29404000  1
  C  C172  1  0.94739000  0.03882000  0.64293000  1
  C  C173  1  0.97828000  0.00661000  0.69745000  1
  C  C174  1  0.06037000  0.91862000  0.65348000  1
  C  C175  1  0.99964000  0.99346000  0.55642000  1
  C  C176  1  0.91521000  0.95890000  0.53234000  1
  C  C177  1  0.08598000  0.03545000  0.52410000  1
  C  C178  1  0.17403000  0.07607000  0.54943000  1
  C  C179  1  0.93383000  0.88115000  0.83587000  1
  C  C180  1  0.90752000  0.89438000  0.88610000  1
  C  C181  1  0.06919000  0.94352000  0.86418000  1
  C  C182  1  0.99848000  0.96557000  0.95320000  1
  C  C183  1  0.08024000  0.93630000  0.99187000  1
  C  C184  1  0.16254000  0.86654000  0.98500000  1
  C  C185  1  0.92051000  0.02825000  0.96195000  1
  C  C186  1  0.04878000  0.64869000  0.80793000  1
  C  C187  1  0.13703000  0.57188000  0.88369000  1
  C  C188  1  0.14925000  0.67053000  0.87271000  1
  C  C189  1  0.03187000  0.46648000  0.77756000  1
  C  C190  1  0.03560000  0.47034000  0.83320000  1
  C  C191  1  0.99087000  0.39515000  0.87625000  1
  C  C192  1  0.94141000  0.32064000  0.86078000  1
  C  C193  1  0.93364000  0.31974000  0.80494000  1
  C  C194  1  0.98126000  0.39253000  0.76225000  1
  C  C195  1  0.98036000  0.39040000  0.70255000  1
  C  C196  1  0.98986000  0.39662000  0.93608000  1
  C  C197  1  0.78756000  0.25988000  0.75856000  1
  C  C198  1  0.88514000  0.14635000  0.81476000  1
  C  C199  1  0.80550000  0.10400000  0.79390000  1
  C  C200  1  0.44743000  0.96130000  0.85702000  1
  C  C201  1  0.47853000  0.99343000  0.80253000  1
  C  C202  1  0.56082000  0.08112000  0.84654000  1
  C  C203  1  0.49973000  0.00658000  0.94357000  1
  C  C204  1  0.41514000  0.04100000  0.96762000  1
  C  C205  1  0.58612000  0.96472000  0.97590000  1
  C  C206  1  0.67425000  0.92407000  0.95061000  1
  C  C207  1  0.43370000  0.11884000  0.66411000  1
  C  C208  1  0.40746000  0.10542000  0.61391000  1
  C  C209  1  0.56914000  0.05643000  0.63586000  1
  C  C210  1  0.49849000  0.03432000  0.54682000  1
  C  C211  1  0.58022000  0.06367000  0.50815000  1
  C  C212  1  0.66249000  0.13339000  0.51507000  1
  C  C213  1  0.42054000  0.97162000  0.53808000  1
  C  C214  1  0.54876000  0.35121000  0.69214000  1
  C  C215  1  0.63709000  0.42790000  0.61636000  1
  C  C216  1  0.64906000  0.32921000  0.62724000  1
  C  C217  1  0.53202000  0.53344000  0.72248000  1
  C  C218  1  0.53579000  0.52953000  0.66686000  1
  C  C219  1  0.49087000  0.60458000  0.62381000  1
  C  C220  1  0.44114000  0.67899000  0.63926000  1
  C  C221  1  0.43352000  0.68003000  0.69508000  1
  C  C222  1  0.48129000  0.60736000  0.73778000  1
  C  C223  1  0.48020000  0.60957000  0.79747000  1
  C  C224  1  0.49012000  0.60310000  0.56399000  1
  C  C225  1  0.28752000  0.74024000  0.74149000  1
  C  C226  1  0.38516000  0.85343000  0.68509000  1
  C  C227  1  0.30569000  0.89603000  0.70595000  1
  N  N228  1  0.25551000  0.82488000  0.24137000  1
  N  N229  1  0.12644000  0.75425000  0.20799000  1
  N  N230  1  0.92725000  0.44273000  0.15785000  1
  N  N231  1  0.90549000  0.28200000  0.17461000  1
  N  N232  1  0.95121000  0.06889000  0.29601000  1
  N  N233  1  0.00007000  0.01736000  0.38516000  1
  N  N234  1  0.96524000  0.08898000  0.17751000  1
  N  N235  1  0.00608000  0.06636000  0.09521000  1
  N  N236  1  0.75511000  0.17492000  0.25866000  1
  N  N237  1  0.62630000  0.24593000  0.29205000  1
  N  N238  1  0.42706000  0.55749000  0.34210000  1
  N  N239  1  0.40585000  0.71821000  0.32548000  1
  N  N240  1  0.45104000  0.93125000  0.20394000  1
  N  N241  1  0.49995000  0.98282000  0.11480000  1
  N  N242  1  0.46554000  0.91108000  0.32244000  1
  N  N243  1  0.50613000  0.93376000  0.40476000  1
  N  N244  1  0.74476000  0.17511000  0.75863000  1
  N  N245  1  0.87375000  0.24573000  0.79208000  1
  N  N246  1  0.07275000  0.55732000  0.84220000  1
  N  N247  1  0.09454000  0.71805000  0.82541000  1
  N  N248  1  0.04869000  0.93109000  0.70399000  1
  N  N249  1  0.99990000  0.98268000  0.61483000  1
  N  N250  1  0.03472000  0.91111000  0.82246000  1
  N  N251  1  0.99392000  0.93361000  0.90480000  1
  N  N252  1  0.24487000  0.82514000  0.74132000  1
  N  N253  1  0.37365000  0.75410000  0.70792000  1
  N  N254  1  0.57299000  0.44254000  0.65792000  1
  N  N255  1  0.59429000  0.28185000  0.67455000  1
  N  N256  1  0.54916000  0.06872000  0.79603000  1
  N  N257  1  0.50007000  0.01731000  0.88515000  1
  N  N258  1  0.53463000  0.08900000  0.67752000  1
  N  N259  1  0.49392000  0.06622000  0.59524000  1
