# generated using pymatgen
data_Zn3H4(C4O5)2
_symmetry_space_group_name_H-M   'P 1'
_cell_length_a   20.74379000
_cell_length_b   20.74379000
_cell_length_c   20.74379000
_cell_angle_alpha   90.00000000
_cell_angle_beta   90.00000000
_cell_angle_gamma   90.00000000
_symmetry_Int_Tables_number   1
_chemical_formula_structural   Zn3H4(C4O5)2
_chemical_formula_sum   'Zn72 H96 C192 O240'
_cell_volume   8926.15289600
_cell_formula_units_Z   24
loop_
 _symmetry_equiv_pos_site_id
 _symmetry_equiv_pos_as_xyz
  1  'x, y, z'
loop_
 _atom_site_type_symbol
 _atom_site_label
 _atom_site_symmetry_multiplicity
 _atom_site_fract_x
 _atom_site_fract_y
 _atom_site_fract_z
 _atom_site_occupancy
  Zn  Zn0  1  0.61105000  0.84802000  0.82657000  1
  Zn  Zn1  1  0.44004000  0.75160000  0.98910000  1
  Zn  Zn2  1  0.48210000  0.87864000  0.89489000  1
  Zn  Zn3  1  0.88896000  0.15198000  0.32657000  1
  Zn  Zn4  1  0.05996000  0.24840000  0.48910000  1
  Zn  Zn5  1  0.01790000  0.12136000  0.39489000  1
  Zn  Zn6  1  0.38896000  0.34802000  0.67343000  1
  Zn  Zn7  1  0.55996000  0.25160000  0.51090000  1
  Zn  Zn8  1  0.51790000  0.37864000  0.60511000  1
  Zn  Zn9  1  0.11104000  0.65198000  0.17343000  1
  Zn  Zn10  1  0.94004000  0.74840000  0.01090000  1
  Zn  Zn11  1  0.98210000  0.62136000  0.10511000  1
  Zn  Zn12  1  0.82657000  0.61105000  0.84802000  1
  Zn  Zn13  1  0.98910000  0.44004000  0.75160000  1
  Zn  Zn14  1  0.89489000  0.48210000  0.87864000  1
  Zn  Zn15  1  0.32657000  0.88896000  0.15198000  1
  Zn  Zn16  1  0.48910000  0.05996000  0.24840000  1
  Zn  Zn17  1  0.39489000  0.01790000  0.12136000  1
  Zn  Zn18  1  0.67343000  0.38896000  0.34802000  1
  Zn  Zn19  1  0.51090000  0.55996000  0.25160000  1
  Zn  Zn20  1  0.60511000  0.51790000  0.37864000  1
  Zn  Zn21  1  0.17343000  0.11104000  0.65198000  1
  Zn  Zn22  1  0.01090000  0.94004000  0.74840000  1
  Zn  Zn23  1  0.10511000  0.98210000  0.62136000  1
  Zn  Zn24  1  0.84802000  0.82657000  0.61105000  1
  Zn  Zn25  1  0.75160000  0.98910000  0.44004000  1
  Zn  Zn26  1  0.87864000  0.89489000  0.48210000  1
  Zn  Zn27  1  0.15198000  0.32657000  0.88896000  1
  Zn  Zn28  1  0.24840000  0.48910000  0.05996000  1
  Zn  Zn29  1  0.12136000  0.39489000  0.01790000  1
  Zn  Zn30  1  0.34802000  0.67343000  0.38896000  1
  Zn  Zn31  1  0.25160000  0.51090000  0.55996000  1
  Zn  Zn32  1  0.37864000  0.60511000  0.51790000  1
  Zn  Zn33  1  0.65198000  0.17343000  0.11104000  1
  Zn  Zn34  1  0.74840000  0.01090000  0.94004000  1
  Zn  Zn35  1  0.62136000  0.10511000  0.98210000  1
  Zn  Zn36  1  0.38896000  0.15198000  0.17343000  1
  Zn  Zn37  1  0.55996000  0.24840000  0.01090000  1
  Zn  Zn38  1  0.51790000  0.12136000  0.10511000  1
  Zn  Zn39  1  0.11104000  0.84802000  0.67343000  1
  Zn  Zn40  1  0.94004000  0.75160000  0.51090000  1
  Zn  Zn41  1  0.98210000  0.87864000  0.60511000  1
  Zn  Zn42  1  0.61105000  0.65198000  0.32657000  1
  Zn  Zn43  1  0.44004000  0.74840000  0.48910000  1
  Zn  Zn44  1  0.48210000  0.62136000  0.39489000  1
  Zn  Zn45  1  0.88896000  0.34802000  0.82657000  1
  Zn  Zn46  1  0.05996000  0.25160000  0.98910000  1
  Zn  Zn47  1  0.01790000  0.37864000  0.89489000  1
  Zn  Zn48  1  0.17343000  0.38896000  0.15198000  1
  Zn  Zn49  1  0.01090000  0.55996000  0.24840000  1
  Zn  Zn50  1  0.10511000  0.51790000  0.12136000  1
  Zn  Zn51  1  0.67343000  0.11104000  0.84802000  1
  Zn  Zn52  1  0.51090000  0.94004000  0.75160000  1
  Zn  Zn53  1  0.60511000  0.98210000  0.87864000  1
  Zn  Zn54  1  0.32657000  0.61105000  0.65198000  1
  Zn  Zn55  1  0.48910000  0.44004000  0.74840000  1
  Zn  Zn56  1  0.39489000  0.48210000  0.62136000  1
  Zn  Zn57  1  0.82657000  0.88896000  0.34802000  1
  Zn  Zn58  1  0.98910000  0.05996000  0.25160000  1
  Zn  Zn59  1  0.89489000  0.01790000  0.37864000  1
  Zn  Zn60  1  0.15198000  0.17343000  0.38896000  1
  Zn  Zn61  1  0.24840000  0.01090000  0.55996000  1
  Zn  Zn62  1  0.12136000  0.10511000  0.51790000  1
  Zn  Zn63  1  0.84802000  0.67343000  0.11104000  1
  Zn  Zn64  1  0.75160000  0.51090000  0.94004000  1
  Zn  Zn65  1  0.87864000  0.60511000  0.98210000  1
  Zn  Zn66  1  0.65198000  0.32657000  0.61105000  1
  Zn  Zn67  1  0.74840000  0.48910000  0.44004000  1
  Zn  Zn68  1  0.62136000  0.39489000  0.48210000  1
  Zn  Zn69  1  0.34802000  0.82657000  0.88896000  1
  Zn  Zn70  1  0.25160000  0.98910000  0.05996000  1
  Zn  Zn71  1  0.37864000  0.89489000  0.01790000  1
  H  H72  1  0.62214000  0.69482000  0.88010000  1
  H  H73  1  0.65726000  0.68979000  0.00738000  1
  H  H74  1  0.69469000  0.79710000  0.01621000  1
  H  H75  1  0.77278000  0.79743000  0.89259000  1
  H  H76  1  0.87786000  0.30518000  0.38010000  1
  H  H77  1  0.84274000  0.31021000  0.50738000  1
  H  H78  1  0.80532000  0.20290000  0.51621000  1
  H  H79  1  0.72722000  0.20257000  0.39259000  1
  H  H80  1  0.37786000  0.19482000  0.61990000  1
  H  H81  1  0.34274000  0.18979000  0.49262000  1
  H  H82  1  0.30531000  0.29710000  0.48379000  1
  H  H83  1  0.22722000  0.29743000  0.60741000  1
  H  H84  1  0.12214000  0.80518000  0.11990000  1
  H  H85  1  0.15726000  0.81021000  0.99262000  1
  H  H86  1  0.19469000  0.70290000  0.98379000  1
  H  H87  1  0.27278000  0.70257000  0.10741000  1
  H  H88  1  0.88010000  0.62214000  0.69482000  1
  H  H89  1  0.00738000  0.65726000  0.68979000  1
  H  H90  1  0.01621000  0.69469000  0.79710000  1
  H  H91  1  0.89259000  0.77278000  0.79743000  1
  H  H92  1  0.38010000  0.87786000  0.30518000  1
  H  H93  1  0.50738000  0.84274000  0.31021000  1
  H  H94  1  0.51621000  0.80532000  0.20290000  1
  H  H95  1  0.39259000  0.72722000  0.20257000  1
  H  H96  1  0.61990000  0.37786000  0.19482000  1
  H  H97  1  0.49262000  0.34274000  0.18979000  1
  H  H98  1  0.48379000  0.30531000  0.29710000  1
  H  H99  1  0.60741000  0.22722000  0.29743000  1
  H  H100  1  0.11990000  0.12214000  0.80518000  1
  H  H101  1  0.99262000  0.15726000  0.81021000  1
  H  H102  1  0.98379000  0.19469000  0.70290000  1
  H  H103  1  0.10741000  0.27278000  0.70257000  1
  H  H104  1  0.69482000  0.88010000  0.62214000  1
  H  H105  1  0.68979000  0.00738000  0.65726000  1
  H  H106  1  0.79710000  0.01621000  0.69469000  1
  H  H107  1  0.79743000  0.89259000  0.77278000  1
  H  H108  1  0.30518000  0.38010000  0.87786000  1
  H  H109  1  0.31021000  0.50738000  0.84274000  1
  H  H110  1  0.20290000  0.51621000  0.80532000  1
  H  H111  1  0.20257000  0.39259000  0.72722000  1
  H  H112  1  0.19482000  0.61990000  0.37786000  1
  H  H113  1  0.18979000  0.49262000  0.34274000  1
  H  H114  1  0.29710000  0.48379000  0.30531000  1
  H  H115  1  0.29743000  0.60741000  0.22722000  1
  H  H116  1  0.80518000  0.11990000  0.12214000  1
  H  H117  1  0.81021000  0.99262000  0.15726000  1
  H  H118  1  0.70290000  0.98379000  0.19469000  1
  H  H119  1  0.70257000  0.10741000  0.27278000  1
  H  H120  1  0.37786000  0.30518000  0.11990000  1
  H  H121  1  0.34274000  0.31021000  0.99262000  1
  H  H122  1  0.30531000  0.20290000  0.98379000  1
  H  H123  1  0.22722000  0.20257000  0.10741000  1
  H  H124  1  0.12214000  0.69482000  0.61990000  1
  H  H125  1  0.15726000  0.68979000  0.49262000  1
  H  H126  1  0.19469000  0.79710000  0.48379000  1
  H  H127  1  0.27278000  0.79743000  0.60741000  1
  H  H128  1  0.62214000  0.80518000  0.38010000  1
  H  H129  1  0.65726000  0.81021000  0.50738000  1
  H  H130  1  0.69469000  0.70290000  0.51621000  1
  H  H131  1  0.77278000  0.70257000  0.39259000  1
  H  H132  1  0.87786000  0.19482000  0.88010000  1
  H  H133  1  0.84274000  0.18979000  0.00738000  1
  H  H134  1  0.80532000  0.29710000  0.01621000  1
  H  H135  1  0.72722000  0.29743000  0.89259000  1
  H  H136  1  0.11990000  0.37786000  0.30518000  1
  H  H137  1  0.99262000  0.34274000  0.31021000  1
  H  H138  1  0.98379000  0.30531000  0.20290000  1
  H  H139  1  0.10741000  0.22722000  0.20257000  1
  H  H140  1  0.61990000  0.12214000  0.69482000  1
  H  H141  1  0.49262000  0.15726000  0.68979000  1
  H  H142  1  0.48379000  0.19469000  0.79710000  1
  H  H143  1  0.60741000  0.27278000  0.79743000  1
  H  H144  1  0.38010000  0.62214000  0.80518000  1
  H  H145  1  0.50738000  0.65726000  0.81021000  1
  H  H146  1  0.51621000  0.69469000  0.70290000  1
  H  H147  1  0.39259000  0.77278000  0.70257000  1
  H  H148  1  0.88010000  0.87786000  0.19482000  1
  H  H149  1  0.00738000  0.84274000  0.18979000  1
  H  H150  1  0.01621000  0.80532000  0.29710000  1
  H  H151  1  0.89259000  0.72722000  0.29743000  1
  H  H152  1  0.30518000  0.11990000  0.37786000  1
  H  H153  1  0.31021000  0.99262000  0.34274000  1
  H  H154  1  0.20290000  0.98379000  0.30531000  1
  H  H155  1  0.20257000  0.10741000  0.22722000  1
  H  H156  1  0.69482000  0.61990000  0.12214000  1
  H  H157  1  0.68979000  0.49262000  0.15726000  1
  H  H158  1  0.79710000  0.48379000  0.19469000  1
  H  H159  1  0.79743000  0.60741000  0.27278000  1
  H  H160  1  0.80518000  0.38010000  0.62214000  1
  H  H161  1  0.81021000  0.50738000  0.65726000  1
  H  H162  1  0.70290000  0.51621000  0.69469000  1
  H  H163  1  0.70257000  0.39259000  0.77278000  1
  H  H164  1  0.19482000  0.88010000  0.87786000  1
  H  H165  1  0.18979000  0.00738000  0.84274000  1
  H  H166  1  0.29710000  0.01621000  0.80532000  1
  H  H167  1  0.29743000  0.89259000  0.72722000  1
  C  C168  1  0.63756000  0.73269000  0.91398000  1
  C  C169  1  0.57444000  0.76261000  0.93948000  1
  C  C170  1  0.68385000  0.70772000  0.96549000  1
  C  C171  1  0.72208000  0.65240000  0.93526000  1
  C  C172  1  0.72347000  0.76948000  0.98124000  1
  C  C173  1  0.78770000  0.75506000  0.01516000  1
  C  C174  1  0.72647000  0.80599000  0.91665000  1
  C  C175  1  0.71567000  0.87881000  0.92339000  1
  C  C176  1  0.86244000  0.26732000  0.41398000  1
  C  C177  1  0.92557000  0.23739000  0.43948000  1
  C  C178  1  0.81615000  0.29228000  0.46549000  1
  C  C179  1  0.77792000  0.34760000  0.43526000  1
  C  C180  1  0.77653000  0.23052000  0.48124000  1
  C  C181  1  0.71230000  0.24494000  0.51516000  1
  C  C182  1  0.77353000  0.19401000  0.41665000  1
  C  C183  1  0.78433000  0.12119000  0.42339000  1
  C  C184  1  0.36244000  0.23269000  0.58602000  1
  C  C185  1  0.42556000  0.26261000  0.56052000  1
  C  C186  1  0.31615000  0.20772000  0.53451000  1
  C  C187  1  0.27792000  0.15240000  0.56474000  1
  C  C188  1  0.27653000  0.26948000  0.51876000  1
  C  C189  1  0.21230000  0.25506000  0.48484000  1
  C  C190  1  0.27353000  0.30599000  0.58335000  1
  C  C191  1  0.28433000  0.37881000  0.57661000  1
  C  C192  1  0.13756000  0.76732000  0.08602000  1
  C  C193  1  0.07444000  0.73739000  0.06052000  1
  C  C194  1  0.18385000  0.79228000  0.03451000  1
  C  C195  1  0.22208000  0.84760000  0.06474000  1
  C  C196  1  0.22347000  0.73052000  0.01876000  1
  C  C197  1  0.28770000  0.74494000  0.98484000  1
  C  C198  1  0.22647000  0.69401000  0.08335000  1
  C  C199  1  0.21567000  0.62119000  0.07661000  1
  C  C200  1  0.91398000  0.63756000  0.73269000  1
  C  C201  1  0.93948000  0.57444000  0.76261000  1
  C  C202  1  0.96549000  0.68385000  0.70772000  1
  C  C203  1  0.93526000  0.72208000  0.65240000  1
  C  C204  1  0.98124000  0.72347000  0.76948000  1
  C  C205  1  0.01516000  0.78770000  0.75506000  1
  C  C206  1  0.91665000  0.72647000  0.80599000  1
  C  C207  1  0.92339000  0.71567000  0.87881000  1
  C  C208  1  0.41398000  0.86244000  0.26732000  1
  C  C209  1  0.43948000  0.92557000  0.23739000  1
  C  C210  1  0.46549000  0.81615000  0.29228000  1
  C  C211  1  0.43526000  0.77792000  0.34760000  1
  C  C212  1  0.48124000  0.77653000  0.23052000  1
  C  C213  1  0.51516000  0.71230000  0.24494000  1
  C  C214  1  0.41665000  0.77353000  0.19401000  1
  C  C215  1  0.42339000  0.78433000  0.12119000  1
  C  C216  1  0.58602000  0.36244000  0.23269000  1
  C  C217  1  0.56052000  0.42556000  0.26261000  1
  C  C218  1  0.53451000  0.31615000  0.20772000  1
  C  C219  1  0.56474000  0.27792000  0.15240000  1
  C  C220  1  0.51876000  0.27653000  0.26948000  1
  C  C221  1  0.48484000  0.21230000  0.25506000  1
  C  C222  1  0.58335000  0.27353000  0.30599000  1
  C  C223  1  0.57661000  0.28433000  0.37881000  1
  C  C224  1  0.08602000  0.13756000  0.76732000  1
  C  C225  1  0.06052000  0.07444000  0.73739000  1
  C  C226  1  0.03451000  0.18385000  0.79228000  1
  C  C227  1  0.06474000  0.22208000  0.84760000  1
  C  C228  1  0.01876000  0.22347000  0.73052000  1
  C  C229  1  0.98484000  0.28770000  0.74494000  1
  C  C230  1  0.08335000  0.22647000  0.69401000  1
  C  C231  1  0.07661000  0.21567000  0.62119000  1
  C  C232  1  0.73269000  0.91398000  0.63756000  1
  C  C233  1  0.76261000  0.93948000  0.57444000  1
  C  C234  1  0.70772000  0.96549000  0.68385000  1
  C  C235  1  0.65240000  0.93526000  0.72208000  1
  C  C236  1  0.76948000  0.98124000  0.72347000  1
  C  C237  1  0.75506000  0.01516000  0.78770000  1
  C  C238  1  0.80599000  0.91665000  0.72647000  1
  C  C239  1  0.87881000  0.92339000  0.71567000  1
  C  C240  1  0.26732000  0.41398000  0.86244000  1
  C  C241  1  0.23739000  0.43948000  0.92557000  1
  C  C242  1  0.29228000  0.46549000  0.81615000  1
  C  C243  1  0.34760000  0.43526000  0.77792000  1
  C  C244  1  0.23052000  0.48124000  0.77653000  1
  C  C245  1  0.24494000  0.51516000  0.71230000  1
  C  C246  1  0.19401000  0.41665000  0.77353000  1
  C  C247  1  0.12119000  0.42339000  0.78433000  1
  C  C248  1  0.23269000  0.58602000  0.36244000  1
  C  C249  1  0.26261000  0.56052000  0.42556000  1
  C  C250  1  0.20772000  0.53451000  0.31615000  1
  C  C251  1  0.15240000  0.56474000  0.27792000  1
  C  C252  1  0.26948000  0.51876000  0.27653000  1
  C  C253  1  0.25506000  0.48484000  0.21230000  1
  C  C254  1  0.30599000  0.58335000  0.27353000  1
  C  C255  1  0.37881000  0.57661000  0.28433000  1
  C  C256  1  0.76732000  0.08602000  0.13756000  1
  C  C257  1  0.73739000  0.06052000  0.07444000  1
  C  C258  1  0.79228000  0.03451000  0.18385000  1
  C  C259  1  0.84760000  0.06474000  0.22208000  1
  C  C260  1  0.73052000  0.01876000  0.22347000  1
  C  C261  1  0.74494000  0.98484000  0.28770000  1
  C  C262  1  0.69401000  0.08335000  0.22647000  1
  C  C263  1  0.62119000  0.07661000  0.21567000  1
  C  C264  1  0.36244000  0.26732000  0.08602000  1
  C  C265  1  0.42556000  0.23739000  0.06052000  1
  C  C266  1  0.31615000  0.29228000  0.03451000  1
  C  C267  1  0.27792000  0.34760000  0.06474000  1
  C  C268  1  0.27653000  0.23052000  0.01876000  1
  C  C269  1  0.21230000  0.24494000  0.98484000  1
  C  C270  1  0.27353000  0.19401000  0.08335000  1
  C  C271  1  0.28433000  0.12119000  0.07661000  1
  C  C272  1  0.13756000  0.73269000  0.58602000  1
  C  C273  1  0.07444000  0.76261000  0.56052000  1
  C  C274  1  0.18385000  0.70772000  0.53451000  1
  C  C275  1  0.22208000  0.65240000  0.56474000  1
  C  C276  1  0.22347000  0.76948000  0.51876000  1
  C  C277  1  0.28770000  0.75506000  0.48484000  1
  C  C278  1  0.22647000  0.80599000  0.58335000  1
  C  C279  1  0.21567000  0.87881000  0.57661000  1
  C  C280  1  0.63756000  0.76732000  0.41398000  1
  C  C281  1  0.57444000  0.73739000  0.43948000  1
  C  C282  1  0.68385000  0.79228000  0.46549000  1
  C  C283  1  0.72208000  0.84760000  0.43526000  1
  C  C284  1  0.72347000  0.73052000  0.48124000  1
  C  C285  1  0.78770000  0.74494000  0.51516000  1
  C  C286  1  0.72647000  0.69401000  0.41665000  1
  C  C287  1  0.71567000  0.62119000  0.42339000  1
  C  C288  1  0.86244000  0.23269000  0.91398000  1
  C  C289  1  0.92557000  0.26261000  0.93948000  1
  C  C290  1  0.81615000  0.20772000  0.96549000  1
  C  C291  1  0.77792000  0.15240000  0.93526000  1
  C  C292  1  0.77653000  0.26948000  0.98124000  1
  C  C293  1  0.71230000  0.25506000  0.01516000  1
  C  C294  1  0.77353000  0.30599000  0.91665000  1
  C  C295  1  0.78433000  0.37881000  0.92339000  1
  C  C296  1  0.08602000  0.36244000  0.26732000  1
  C  C297  1  0.06052000  0.42556000  0.23739000  1
  C  C298  1  0.03451000  0.31615000  0.29228000  1
  C  C299  1  0.06474000  0.27792000  0.34760000  1
  C  C300  1  0.01876000  0.27653000  0.23052000  1
  C  C301  1  0.98484000  0.21230000  0.24494000  1
  C  C302  1  0.08335000  0.27353000  0.19401000  1
  C  C303  1  0.07661000  0.28433000  0.12119000  1
  C  C304  1  0.58602000  0.13756000  0.73269000  1
  C  C305  1  0.56052000  0.07444000  0.76261000  1
  C  C306  1  0.53451000  0.18385000  0.70772000  1
  C  C307  1  0.56474000  0.22208000  0.65240000  1
  C  C308  1  0.51876000  0.22347000  0.76948000  1
  C  C309  1  0.48484000  0.28770000  0.75506000  1
  C  C310  1  0.58335000  0.22647000  0.80599000  1
  C  C311  1  0.57661000  0.21567000  0.87881000  1
  C  C312  1  0.41398000  0.63756000  0.76732000  1
  C  C313  1  0.43948000  0.57444000  0.73739000  1
  C  C314  1  0.46549000  0.68385000  0.79228000  1
  C  C315  1  0.43526000  0.72208000  0.84760000  1
  C  C316  1  0.48124000  0.72347000  0.73052000  1
  C  C317  1  0.51516000  0.78770000  0.74494000  1
  C  C318  1  0.41665000  0.72647000  0.69401000  1
  C  C319  1  0.42339000  0.71567000  0.62119000  1
  C  C320  1  0.91398000  0.86244000  0.23269000  1
  C  C321  1  0.93948000  0.92557000  0.26261000  1
  C  C322  1  0.96549000  0.81615000  0.20772000  1
  C  C323  1  0.93526000  0.77792000  0.15240000  1
  C  C324  1  0.98124000  0.77653000  0.26948000  1
  C  C325  1  0.01516000  0.71230000  0.25506000  1
  C  C326  1  0.91665000  0.77353000  0.30599000  1
  C  C327  1  0.92339000  0.78433000  0.37881000  1
  C  C328  1  0.26732000  0.08602000  0.36244000  1
  C  C329  1  0.23739000  0.06052000  0.42556000  1
  C  C330  1  0.29228000  0.03451000  0.31615000  1
  C  C331  1  0.34760000  0.06474000  0.27792000  1
  C  C332  1  0.23052000  0.01876000  0.27653000  1
  C  C333  1  0.24494000  0.98484000  0.21230000  1
  C  C334  1  0.19401000  0.08335000  0.27353000  1
  C  C335  1  0.12119000  0.07661000  0.28433000  1
  C  C336  1  0.73269000  0.58602000  0.13756000  1
  C  C337  1  0.76261000  0.56052000  0.07444000  1
  C  C338  1  0.70772000  0.53451000  0.18385000  1
  C  C339  1  0.65240000  0.56474000  0.22208000  1
  C  C340  1  0.76948000  0.51876000  0.22347000  1
  C  C341  1  0.75506000  0.48484000  0.28770000  1
  C  C342  1  0.80599000  0.58335000  0.22647000  1
  C  C343  1  0.87881000  0.57661000  0.21567000  1
  C  C344  1  0.76732000  0.41398000  0.63756000  1
  C  C345  1  0.73739000  0.43948000  0.57444000  1
  C  C346  1  0.79228000  0.46549000  0.68385000  1
  C  C347  1  0.84760000  0.43526000  0.72208000  1
  C  C348  1  0.73052000  0.48124000  0.72347000  1
  C  C349  1  0.74494000  0.51516000  0.78770000  1
  C  C350  1  0.69401000  0.41665000  0.72647000  1
  C  C351  1  0.62119000  0.42339000  0.71567000  1
  C  C352  1  0.23269000  0.91398000  0.86244000  1
  C  C353  1  0.26261000  0.93948000  0.92557000  1
  C  C354  1  0.20772000  0.96549000  0.81615000  1
  C  C355  1  0.15240000  0.93526000  0.77792000  1
  C  C356  1  0.26948000  0.98124000  0.77653000  1
  C  C357  1  0.25506000  0.01516000  0.71230000  1
  C  C358  1  0.30599000  0.91665000  0.77353000  1
  C  C359  1  0.37881000  0.92339000  0.78433000  1
  O  O360  1  0.67570000  0.77799000  0.87639000  1
  O  O361  1  0.55476000  0.81074000  0.90583000  1
  O  O362  1  0.54548000  0.73743000  0.98609000  1
  O  O363  1  0.70140000  0.59579000  0.94519000  1
  O  O364  1  0.76985000  0.66895000  0.90008000  1
  O  O365  1  0.77933000  0.72475000  0.06844000  1
  O  O366  1  0.84039000  0.77205000  0.99021000  1
  O  O367  1  0.75945000  0.91249000  0.94846000  1
  O  O368  1  0.66131000  0.89986000  0.90287000  1
  O  O369  1  0.54212000  0.92532000  0.84366000  1
  O  O370  1  0.82430000  0.22201000  0.37639000  1
  O  O371  1  0.94524000  0.18926000  0.40583000  1
  O  O372  1  0.95452000  0.26257000  0.48609000  1
  O  O373  1  0.79860000  0.40421000  0.44519000  1
  O  O374  1  0.73015000  0.33105000  0.40008000  1
  O  O375  1  0.72067000  0.27525000  0.56844000  1
  O  O376  1  0.65961000  0.22795000  0.49021000  1
  O  O377  1  0.74055000  0.08751000  0.44846000  1
  O  O378  1  0.83869000  0.10014000  0.40287000  1
  O  O379  1  0.95788000  0.07468000  0.34366000  1
  O  O380  1  0.32430000  0.27799000  0.62361000  1
  O  O381  1  0.44524000  0.31074000  0.59417000  1
  O  O382  1  0.45452000  0.23743000  0.51391000  1
  O  O383  1  0.29860000  0.09579000  0.55481000  1
  O  O384  1  0.23015000  0.16895000  0.59992000  1
  O  O385  1  0.22067000  0.22475000  0.43156000  1
  O  O386  1  0.15961000  0.27205000  0.50979000  1
  O  O387  1  0.24055000  0.41249000  0.55154000  1
  O  O388  1  0.33869000  0.39986000  0.59713000  1
  O  O389  1  0.45788000  0.42532000  0.65634000  1
  O  O390  1  0.17570000  0.72201000  0.12361000  1
  O  O391  1  0.05476000  0.68926000  0.09417000  1
  O  O392  1  0.04548000  0.76257000  0.01391000  1
  O  O393  1  0.20140000  0.90422000  0.05481000  1
  O  O394  1  0.26985000  0.83105000  0.09992000  1
  O  O395  1  0.27933000  0.77525000  0.93156000  1
  O  O396  1  0.34039000  0.72795000  0.00979000  1
  O  O397  1  0.25945000  0.58751000  0.05154000  1
  O  O398  1  0.16131000  0.60014000  0.09713000  1
  O  O399  1  0.04212000  0.57468000  0.15634000  1
  O  O400  1  0.87639000  0.67570000  0.77799000  1
  O  O401  1  0.90583000  0.55476000  0.81074000  1
  O  O402  1  0.98609000  0.54548000  0.73743000  1
  O  O403  1  0.94519000  0.70140000  0.59579000  1
  O  O404  1  0.90008000  0.76985000  0.66895000  1
  O  O405  1  0.06844000  0.77933000  0.72475000  1
  O  O406  1  0.99021000  0.84039000  0.77205000  1
  O  O407  1  0.94846000  0.75945000  0.91249000  1
  O  O408  1  0.90287000  0.66131000  0.89986000  1
  O  O409  1  0.84366000  0.54212000  0.92532000  1
  O  O410  1  0.37639000  0.82430000  0.22201000  1
  O  O411  1  0.40583000  0.94524000  0.18926000  1
  O  O412  1  0.48609000  0.95452000  0.26257000  1
  O  O413  1  0.44519000  0.79860000  0.40422000  1
  O  O414  1  0.40008000  0.73015000  0.33105000  1
  O  O415  1  0.56844000  0.72067000  0.27525000  1
  O  O416  1  0.49021000  0.65961000  0.22795000  1
  O  O417  1  0.44846000  0.74055000  0.08751000  1
  O  O418  1  0.40287000  0.83869000  0.10014000  1
  O  O419  1  0.34366000  0.95788000  0.07468000  1
  O  O420  1  0.62361000  0.32430000  0.27799000  1
  O  O421  1  0.59417000  0.44524000  0.31074000  1
  O  O422  1  0.51391000  0.45452000  0.23743000  1
  O  O423  1  0.55481000  0.29860000  0.09579000  1
  O  O424  1  0.59992000  0.23015000  0.16895000  1
  O  O425  1  0.43156000  0.22067000  0.22475000  1
  O  O426  1  0.50979000  0.15961000  0.27205000  1
  O  O427  1  0.55154000  0.24055000  0.41249000  1
  O  O428  1  0.59713000  0.33869000  0.39986000  1
  O  O429  1  0.65634000  0.45788000  0.42532000  1
  O  O430  1  0.12361000  0.17570000  0.72201000  1
  O  O431  1  0.09417000  0.05476000  0.68926000  1
  O  O432  1  0.01391000  0.04548000  0.76257000  1
  O  O433  1  0.05481000  0.20140000  0.90422000  1
  O  O434  1  0.09992000  0.26985000  0.83105000  1
  O  O435  1  0.93156000  0.27933000  0.77525000  1
  O  O436  1  0.00979000  0.34039000  0.72795000  1
  O  O437  1  0.05154000  0.25945000  0.58751000  1
  O  O438  1  0.09713000  0.16131000  0.60014000  1
  O  O439  1  0.15634000  0.04212000  0.57468000  1
  O  O440  1  0.77799000  0.87639000  0.67570000  1
  O  O441  1  0.81074000  0.90583000  0.55476000  1
  O  O442  1  0.73743000  0.98609000  0.54548000  1
  O  O443  1  0.59579000  0.94519000  0.70140000  1
  O  O444  1  0.66895000  0.90008000  0.76985000  1
  O  O445  1  0.72475000  0.06844000  0.77933000  1
  O  O446  1  0.77205000  0.99021000  0.84039000  1
  O  O447  1  0.91249000  0.94846000  0.75945000  1
  O  O448  1  0.89986000  0.90287000  0.66131000  1
  O  O449  1  0.92532000  0.84366000  0.54212000  1
  O  O450  1  0.22201000  0.37639000  0.82430000  1
  O  O451  1  0.18926000  0.40583000  0.94524000  1
  O  O452  1  0.26257000  0.48609000  0.95452000  1
  O  O453  1  0.40421000  0.44519000  0.79860000  1
  O  O454  1  0.33105000  0.40008000  0.73015000  1
  O  O455  1  0.27525000  0.56844000  0.72067000  1
  O  O456  1  0.22795000  0.49021000  0.65961000  1
  O  O457  1  0.08751000  0.44846000  0.74055000  1
  O  O458  1  0.10014000  0.40287000  0.83869000  1
  O  O459  1  0.07468000  0.34366000  0.95788000  1
  O  O460  1  0.27799000  0.62361000  0.32430000  1
  O  O461  1  0.31074000  0.59417000  0.44524000  1
  O  O462  1  0.23743000  0.51391000  0.45452000  1
  O  O463  1  0.09579000  0.55481000  0.29860000  1
  O  O464  1  0.16895000  0.59992000  0.23015000  1
  O  O465  1  0.22475000  0.43156000  0.22067000  1
  O  O466  1  0.27205000  0.50979000  0.15961000  1
  O  O467  1  0.41249000  0.55154000  0.24055000  1
  O  O468  1  0.39986000  0.59713000  0.33869000  1
  O  O469  1  0.42532000  0.65634000  0.45788000  1
  O  O470  1  0.72201000  0.12361000  0.17570000  1
  O  O471  1  0.68926000  0.09417000  0.05476000  1
  O  O472  1  0.76257000  0.01391000  0.04548000  1
  O  O473  1  0.90422000  0.05481000  0.20140000  1
  O  O474  1  0.83105000  0.09992000  0.26985000  1
  O  O475  1  0.77525000  0.93156000  0.27933000  1
  O  O476  1  0.72795000  0.00979000  0.34039000  1
  O  O477  1  0.58751000  0.05154000  0.25945000  1
  O  O478  1  0.60014000  0.09713000  0.16131000  1
  O  O479  1  0.57468000  0.15634000  0.04212000  1
  O  O480  1  0.32430000  0.22201000  0.12361000  1
  O  O481  1  0.44524000  0.18926000  0.09417000  1
  O  O482  1  0.45452000  0.26257000  0.01391000  1
  O  O483  1  0.29860000  0.40421000  0.05481000  1
  O  O484  1  0.23015000  0.33105000  0.09992000  1
  O  O485  1  0.22067000  0.27525000  0.93156000  1
  O  O486  1  0.15961000  0.22795000  0.00979000  1
  O  O487  1  0.24055000  0.08751000  0.05154000  1
  O  O488  1  0.33869000  0.10014000  0.09713000  1
  O  O489  1  0.45788000  0.07468000  0.15634000  1
  O  O490  1  0.17570000  0.77799000  0.62361000  1
  O  O491  1  0.05476000  0.81074000  0.59417000  1
  O  O492  1  0.04548000  0.73743000  0.51391000  1
  O  O493  1  0.20140000  0.59579000  0.55481000  1
  O  O494  1  0.26985000  0.66895000  0.59992000  1
  O  O495  1  0.27933000  0.72475000  0.43156000  1
  O  O496  1  0.34039000  0.77205000  0.50979000  1
  O  O497  1  0.25945000  0.91249000  0.55154000  1
  O  O498  1  0.16131000  0.89986000  0.59713000  1
  O  O499  1  0.04212000  0.92532000  0.65634000  1
  O  O500  1  0.67570000  0.72201000  0.37639000  1
  O  O501  1  0.55476000  0.68926000  0.40583000  1
  O  O502  1  0.54548000  0.76257000  0.48609000  1
  O  O503  1  0.70140000  0.90422000  0.44519000  1
  O  O504  1  0.76985000  0.83105000  0.40008000  1
  O  O505  1  0.77933000  0.77525000  0.56844000  1
  O  O506  1  0.84039000  0.72795000  0.49021000  1
  O  O507  1  0.75945000  0.58751000  0.44846000  1
  O  O508  1  0.66131000  0.60014000  0.40287000  1
  O  O509  1  0.54212000  0.57468000  0.34366000  1
  O  O510  1  0.82430000  0.27799000  0.87639000  1
  O  O511  1  0.94524000  0.31074000  0.90583000  1
  O  O512  1  0.95452000  0.23743000  0.98609000  1
  O  O513  1  0.79860000  0.09579000  0.94519000  1
  O  O514  1  0.73015000  0.16895000  0.90008000  1
  O  O515  1  0.72067000  0.22475000  0.06844000  1
  O  O516  1  0.65961000  0.27205000  0.99021000  1
  O  O517  1  0.74055000  0.41249000  0.94846000  1
  O  O518  1  0.83869000  0.39986000  0.90287000  1
  O  O519  1  0.95788000  0.42532000  0.84366000  1
  O  O520  1  0.12361000  0.32430000  0.22201000  1
  O  O521  1  0.09417000  0.44524000  0.18926000  1
  O  O522  1  0.01391000  0.45452000  0.26257000  1
  O  O523  1  0.05481000  0.29860000  0.40422000  1
  O  O524  1  0.09992000  0.23015000  0.33105000  1
  O  O525  1  0.93156000  0.22067000  0.27525000  1
  O  O526  1  0.00979000  0.15961000  0.22795000  1
  O  O527  1  0.05154000  0.24055000  0.08751000  1
  O  O528  1  0.09713000  0.33869000  0.10014000  1
  O  O529  1  0.15634000  0.45788000  0.07468000  1
  O  O530  1  0.62361000  0.17570000  0.77799000  1
  O  O531  1  0.59417000  0.05476000  0.81074000  1
  O  O532  1  0.51391000  0.04548000  0.73743000  1
  O  O533  1  0.55481000  0.20140000  0.59579000  1
  O  O534  1  0.59992000  0.26985000  0.66895000  1
  O  O535  1  0.43156000  0.27933000  0.72475000  1
  O  O536  1  0.50979000  0.34039000  0.77205000  1
  O  O537  1  0.55154000  0.25945000  0.91249000  1
  O  O538  1  0.59713000  0.16131000  0.89986000  1
  O  O539  1  0.65634000  0.04212000  0.92532000  1
  O  O540  1  0.37639000  0.67570000  0.72201000  1
  O  O541  1  0.40583000  0.55476000  0.68926000  1
  O  O542  1  0.48609000  0.54548000  0.76257000  1
  O  O543  1  0.44519000  0.70140000  0.90422000  1
  O  O544  1  0.40008000  0.76985000  0.83105000  1
  O  O545  1  0.56844000  0.77933000  0.77525000  1
  O  O546  1  0.49021000  0.84039000  0.72795000  1
  O  O547  1  0.44846000  0.75945000  0.58751000  1
  O  O548  1  0.40287000  0.66131000  0.60014000  1
  O  O549  1  0.34366000  0.54212000  0.57468000  1
  O  O550  1  0.87639000  0.82430000  0.27799000  1
  O  O551  1  0.90583000  0.94524000  0.31074000  1
  O  O552  1  0.98609000  0.95452000  0.23743000  1
  O  O553  1  0.94519000  0.79860000  0.09579000  1
  O  O554  1  0.90008000  0.73015000  0.16895000  1
  O  O555  1  0.06844000  0.72067000  0.22475000  1
  O  O556  1  0.99021000  0.65961000  0.27205000  1
  O  O557  1  0.94846000  0.74055000  0.41249000  1
  O  O558  1  0.90287000  0.83869000  0.39986000  1
  O  O559  1  0.84366000  0.95788000  0.42532000  1
  O  O560  1  0.22201000  0.12361000  0.32430000  1
  O  O561  1  0.18926000  0.09417000  0.44524000  1
  O  O562  1  0.26257000  0.01391000  0.45452000  1
  O  O563  1  0.40421000  0.05481000  0.29860000  1
  O  O564  1  0.33105000  0.09992000  0.23015000  1
  O  O565  1  0.27525000  0.93156000  0.22067000  1
  O  O566  1  0.22795000  0.00979000  0.15961000  1
  O  O567  1  0.08751000  0.05154000  0.24055000  1
  O  O568  1  0.10014000  0.09713000  0.33869000  1
  O  O569  1  0.07468000  0.15634000  0.45788000  1
  O  O570  1  0.77799000  0.62361000  0.17570000  1
  O  O571  1  0.81074000  0.59417000  0.05476000  1
  O  O572  1  0.73743000  0.51391000  0.04548000  1
  O  O573  1  0.59579000  0.55481000  0.20140000  1
  O  O574  1  0.66895000  0.59992000  0.26985000  1
  O  O575  1  0.72475000  0.43156000  0.27933000  1
  O  O576  1  0.77205000  0.50979000  0.34039000  1
  O  O577  1  0.91249000  0.55154000  0.25945000  1
  O  O578  1  0.89986000  0.59713000  0.16131000  1
  O  O579  1  0.92532000  0.65634000  0.04212000  1
  O  O580  1  0.72201000  0.37639000  0.67570000  1
  O  O581  1  0.68926000  0.40583000  0.55476000  1
  O  O582  1  0.76257000  0.48609000  0.54548000  1
  O  O583  1  0.90422000  0.44519000  0.70140000  1
  O  O584  1  0.83105000  0.40008000  0.76985000  1
  O  O585  1  0.77525000  0.56844000  0.77933000  1
  O  O586  1  0.72795000  0.49021000  0.84039000  1
  O  O587  1  0.58751000  0.44846000  0.75945000  1
  O  O588  1  0.60014000  0.40287000  0.66131000  1
  O  O589  1  0.57468000  0.34366000  0.54212000  1
  O  O590  1  0.27799000  0.87639000  0.82430000  1
  O  O591  1  0.31074000  0.90583000  0.94524000  1
  O  O592  1  0.23743000  0.98609000  0.95452000  1
  O  O593  1  0.09579000  0.94519000  0.79860000  1
  O  O594  1  0.16895000  0.90008000  0.73015000  1
  O  O595  1  0.22475000  0.06844000  0.72067000  1
  O  O596  1  0.27205000  0.99021000  0.65961000  1
  O  O597  1  0.41249000  0.94846000  0.74055000  1
  O  O598  1  0.39986000  0.90287000  0.83869000  1
  O  O599  1  0.42532000  0.84366000  0.95788000  1
