# generated using pymatgen
data_MgH4(C4O3)2
_symmetry_space_group_name_H-M   'P 1'
_cell_length_a   8.80000000
_cell_length_b   9.76783961
_cell_length_c   9.76783961
_cell_angle_alpha   92.49007046
_cell_angle_beta   106.74281688
_cell_angle_gamma   106.74281688
_symmetry_Int_Tables_number   1
_chemical_formula_structural   MgH4(C4O3)2
_chemical_formula_sum   'Mg2 H8 C16 O12'
_cell_volume   762.58296303
_cell_formula_units_Z   2
loop_
 _symmetry_equiv_pos_site_id
 _symmetry_equiv_pos_as_xyz
  1  'x, y, z'
loop_
 _atom_site_type_symbol
 _atom_site_label
 _atom_site_symmetry_multiplicity
 _atom_site_fract_x
 _atom_site_fract_y
 _atom_site_fract_z
 _atom_site_occupancy
  C  C1  1  0.99855000  0.29293000  0.46213000  1.0
  C  C2  1  0.00134000  0.14214000  0.48194000  1.0
  C  C3  1  0.87015000  0.04646000  0.51662000  1.0
  C  C4  1  0.13280000  0.09446000  0.46584000  1.0
  C  C9  1  0.50145000  0.53787000  0.70707000  1.0
  C  C10  1  0.49866000  0.51806000  0.85786000  1.0
  C  C11  1  0.62985000  0.48338000  0.95354000  1.0
  C  C12  1  0.36720000  0.53416000  0.90554000  1.0
  C  C17  1  0.00145000  0.70707000  0.53787000  1.0
  C  C18  1  0.99866000  0.85786000  0.51806000  1.0
  C  C19  1  0.12985000  0.95354000  0.48338000  1.0
  C  C20  1  0.86720000  0.90554000  0.53416000  1.0
  C  C25  1  0.49855000  0.46213000  0.29293000  1.0
  C  C26  1  0.50134000  0.48194000  0.14214000  1.0
  C  C27  1  0.37015000  0.51662000  0.04646000  1.0
  C  C28  1  0.63280000  0.46584000  0.09446000  1.0
  H  H1  1  0.26020000  0.26450000  0.43350000  1.0
  H  H2  1  0.78360000  0.07760000  0.52820000  1.0
  H  H5  1  0.23980000  0.56650000  0.73550000  1.0
  H  H6  1  0.71640000  0.47180000  0.92240000  1.0
  H  H9  1  0.73980000  0.73550000  0.56650000  1.0
  H  H10  1  0.21640000  0.92240000  0.47180000  1.0
  H  H13  1  0.76020000  0.43350000  0.26450000  1.0
  H  H14  1  0.28360000  0.52820000  0.07760000  1.0
  Mg  Mg1  1  0.75000000  0.42133000  0.57867000  1.0
  Mg  Mg3  1  0.25000000  0.57867000  0.42133000  1.0
  O  O1  1  0.88458000  0.33217000  0.48411000  1.0
  O  O2  1  0.11460000  0.37038000  0.41932000  1.0
  O  O3  1  0.26505000  0.18191000  0.43153000  1.0
  O  O7  1  0.61542000  0.51589000  0.66783000  1.0
  O  O8  1  0.38540000  0.58068000  0.62962000  1.0
  O  O9  1  0.23495000  0.56847000  0.81809000  1.0
  O  O13  1  0.11542000  0.66783000  0.51589000  1.0
  O  O14  1  0.88540000  0.62962000  0.58068000  1.0
  O  O15  1  0.73495000  0.81809000  0.56847000  1.0
  O  O19  1  0.38458000  0.48411000  0.33217000  1.0
  O  O20  1  0.61460000  0.41932000  0.37038000  1.0
  O  O21  1  0.76505000  0.43153000  0.18191000  1.0
