# generated using pymatgen
data_CuH2(C3N4)2
_symmetry_space_group_name_H-M   'P 1'
_cell_length_a   18.51891000
_cell_length_b   18.51891000
_cell_length_c   18.51891000
_cell_angle_alpha   90.00000000
_cell_angle_beta   90.00000000
_cell_angle_gamma   90.00000000
_symmetry_Int_Tables_number   1
_chemical_formula_structural   CuH2(C3N4)2
_chemical_formula_sum   'Cu12 H24 C72 N96'
_cell_volume   6351.06069540
_cell_formula_units_Z   12
loop_
 _symmetry_equiv_pos_site_id
 _symmetry_equiv_pos_as_xyz
  1  'x, y, z'
loop_
 _atom_site_type_symbol
 _atom_site_label
 _atom_site_symmetry_multiplicity
 _atom_site_fract_x
 _atom_site_fract_y
 _atom_site_fract_z
 _atom_site_occupancy
  Cu  Cu1  1  0.50000000  0.13399000  0.00000000  1.0
  Cu  Cu2  1  0.50000000  0.86601000  0.00000000  1.0
  Cu  Cu3  1  0.00000000  0.50000000  0.13399000  1.0
  Cu  Cu4  1  0.00000000  0.50000000  0.86601000  1.0
  Cu  Cu5  1  0.13399000  0.00000000  0.50000000  1.0
  Cu  Cu6  1  0.86601000  0.00000000  0.50000000  1.0
  Cu  Cu7  1  0.13399000  0.50000000  0.00000000  1.0
  Cu  Cu8  1  0.86601000  0.50000000  0.00000000  1.0
  Cu  Cu9  1  0.50000000  0.00000000  0.86601000  1.0
  Cu  Cu10  1  0.50000000  0.00000000  0.13399000  1.0
  Cu  Cu11  1  0.00000000  0.13399000  0.50000000  1.0
  Cu  Cu12  1  0.00000000  0.86601000  0.50000000  1.0
  H  H1  1  0.26462000  0.26462000  0.09988000  1.0
  H  H2  1  0.73538000  0.73538000  0.09988000  1.0
  H  H3  1  0.73538000  0.26462000  0.90012000  1.0
  H  H4  1  0.26462000  0.73538000  0.90012000  1.0
  H  H5  1  0.09988000  0.26462000  0.26462000  1.0
  H  H6  1  0.09988000  0.73538000  0.73538000  1.0
  H  H7  1  0.90012000  0.73538000  0.26462000  1.0
  H  H8  1  0.90012000  0.26462000  0.73538000  1.0
  H  H9  1  0.26462000  0.09988000  0.26462000  1.0
  H  H10  1  0.73538000  0.09988000  0.73538000  1.0
  H  H11  1  0.26462000  0.90012000  0.73538000  1.0
  H  H12  1  0.73538000  0.90012000  0.26462000  1.0
  H  H13  1  0.26462000  0.26462000  0.90012000  1.0
  H  H14  1  0.73538000  0.73538000  0.90012000  1.0
  H  H15  1  0.26462000  0.73538000  0.09988000  1.0
  H  H16  1  0.73538000  0.26462000  0.09988000  1.0
  H  H17  1  0.26462000  0.09988000  0.73538000  1.0
  H  H18  1  0.73538000  0.09988000  0.26462000  1.0
  H  H19  1  0.73538000  0.90012000  0.73538000  1.0
  H  H20  1  0.26462000  0.90012000  0.26462000  1.0
  H  H21  1  0.09988000  0.26462000  0.73538000  1.0
  H  H22  1  0.09988000  0.73538000  0.26462000  1.0
  H  H23  1  0.90012000  0.26462000  0.26462000  1.0
  H  H24  1  0.90012000  0.73538000  0.73538000  1.0
  C  C1  1  0.24073000  0.24073000  0.14792000  1.0
  C  C2  1  0.75926000  0.75926000  0.14792000  1.0
  C  C3  1  0.75926000  0.24073000  0.85207000  1.0
  C  C4  1  0.24073000  0.75926000  0.85207000  1.0
  C  C5  1  0.14792000  0.24073000  0.24073000  1.0
  C  C6  1  0.14792000  0.75926000  0.75926000  1.0
  C  C7  1  0.85207000  0.75926000  0.24073000  1.0
  C  C8  1  0.85207000  0.24073000  0.75926000  1.0
  C  C9  1  0.24073000  0.14792000  0.24073000  1.0
  C  C10  1  0.75926000  0.14792000  0.75926000  1.0
  C  C11  1  0.24073000  0.85207000  0.75926000  1.0
  C  C12  1  0.75926000  0.85207000  0.24073000  1.0
  C  C13  1  0.24073000  0.24073000  0.85207000  1.0
  C  C14  1  0.75926000  0.75926000  0.85207000  1.0
  C  C15  1  0.24073000  0.75926000  0.14792000  1.0
  C  C16  1  0.75926000  0.24073000  0.14792000  1.0
  C  C17  1  0.24073000  0.14792000  0.75926000  1.0
  C  C18  1  0.75926000  0.14792000  0.24073000  1.0
  C  C19  1  0.75926000  0.85207000  0.75926000  1.0
  C  C20  1  0.24073000  0.85207000  0.24073000  1.0
  C  C21  1  0.14792000  0.24073000  0.75926000  1.0
  C  C22  1  0.14792000  0.75926000  0.24073000  1.0
  C  C23  1  0.85207000  0.24073000  0.24073000  1.0
  C  C24  1  0.85207000  0.75926000  0.75926000  1.0
  C  C25  1  0.27161000  0.17894000  0.17894000  1.0
  C  C26  1  0.33620000  0.14678000  0.14678000  1.0
  C  C27  1  0.72838000  0.82106000  0.17894000  1.0
  C  C28  1  0.66380000  0.85322000  0.14678000  1.0
  C  C29  1  0.72838000  0.17894000  0.82106000  1.0
  C  C30  1  0.66380000  0.14678000  0.85322000  1.0
  C  C31  1  0.27161000  0.82106000  0.82106000  1.0
  C  C32  1  0.33620000  0.85322000  0.85322000  1.0
  C  C33  1  0.17894000  0.27161000  0.17894000  1.0
  C  C34  1  0.14678000  0.33620000  0.14678000  1.0
  C  C35  1  0.17894000  0.72838000  0.82106000  1.0
  C  C36  1  0.14678000  0.66380000  0.85322000  1.0
  C  C37  1  0.82106000  0.72838000  0.17894000  1.0
  C  C38  1  0.85322000  0.66380000  0.14678000  1.0
  C  C39  1  0.82106000  0.27161000  0.82106000  1.0
  C  C40  1  0.85322000  0.33620000  0.85322000  1.0
  C  C41  1  0.17894000  0.17894000  0.27161000  1.0
  C  C42  1  0.14678000  0.14678000  0.33620000  1.0
  C  C43  1  0.82106000  0.17894000  0.72838000  1.0
  C  C44  1  0.85322000  0.14678000  0.66380000  1.0
  C  C45  1  0.17894000  0.82106000  0.72838000  1.0
  C  C46  1  0.14678000  0.85322000  0.66380000  1.0
  C  C47  1  0.82106000  0.82106000  0.27161000  1.0
  C  C48  1  0.85322000  0.85322000  0.33620000  1.0
  C  C49  1  0.17894000  0.27161000  0.82106000  1.0
  C  C50  1  0.14678000  0.33620000  0.85322000  1.0
  C  C51  1  0.82106000  0.72838000  0.82106000  1.0
  C  C52  1  0.85322000  0.66380000  0.85322000  1.0
  C  C53  1  0.17894000  0.72838000  0.17894000  1.0
  C  C54  1  0.14678000  0.66380000  0.14678000  1.0
  C  C55  1  0.82106000  0.27161000  0.17894000  1.0
  C  C56  1  0.85322000  0.33620000  0.14678000  1.0
  C  C57  1  0.27161000  0.17894000  0.82106000  1.0
  C  C58  1  0.33620000  0.14678000  0.85322000  1.0
  C  C59  1  0.72838000  0.17894000  0.17894000  1.0
  C  C60  1  0.66380000  0.14678000  0.14678000  1.0
  C  C61  1  0.72838000  0.82106000  0.82106000  1.0
  C  C62  1  0.66380000  0.85322000  0.85322000  1.0
  C  C63  1  0.27161000  0.82106000  0.17894000  1.0
  C  C64  1  0.33620000  0.85322000  0.14678000  1.0
  C  C65  1  0.17894000  0.17894000  0.72838000  1.0
  C  C66  1  0.14678000  0.14678000  0.66380000  1.0
  C  C67  1  0.17894000  0.82106000  0.27161000  1.0
  C  C68  1  0.14678000  0.85322000  0.33620000  1.0
  C  C69  1  0.82106000  0.17894000  0.27161000  1.0
  C  C70  1  0.85322000  0.14678000  0.33620000  1.0
  C  C71  1  0.82106000  0.82106000  0.72838000  1.0
  C  C72  1  0.85322000  0.85322000  0.66380000  1.0
  N  N1  1  0.36978000  0.17300000  0.08729000  1.0
  N  N2  1  0.42500000  0.12888000  0.07739000  1.0
  N  N3  1  0.63022000  0.82700000  0.08729000  1.0
  N  N4  1  0.57500000  0.87112000  0.07739000  1.0
  N  N5  1  0.63022000  0.17300000  0.91271000  1.0
  N  N6  1  0.57500000  0.12888000  0.92261000  1.0
  N  N7  1  0.36978000  0.82700000  0.91271000  1.0
  N  N8  1  0.42500000  0.87112000  0.92261000  1.0
  N  N9  1  0.08729000  0.36978000  0.17300000  1.0
  N  N10  1  0.07739000  0.42500000  0.12888000  1.0
  N  N11  1  0.08729000  0.63022000  0.82700000  1.0
  N  N12  1  0.07739000  0.57500000  0.87112000  1.0
  N  N13  1  0.91271000  0.63022000  0.17300000  1.0
  N  N14  1  0.92261000  0.57500000  0.12888000  1.0
  N  N15  1  0.91271000  0.36978000  0.82700000  1.0
  N  N16  1  0.92261000  0.42500000  0.87112000  1.0
  N  N17  1  0.17300000  0.08729000  0.36978000  1.0
  N  N18  1  0.12888000  0.07739000  0.42500000  1.0
  N  N19  1  0.82700000  0.08729000  0.63022000  1.0
  N  N20  1  0.87112000  0.07739000  0.57500000  1.0
  N  N21  1  0.17300000  0.91271000  0.63022000  1.0
  N  N22  1  0.12888000  0.92261000  0.57500000  1.0
  N  N23  1  0.82700000  0.91271000  0.36978000  1.0
  N  N24  1  0.87112000  0.92261000  0.42500000  1.0
  N  N25  1  0.17300000  0.36978000  0.91271000  1.0
  N  N26  1  0.12888000  0.42500000  0.92261000  1.0
  N  N27  1  0.82700000  0.63022000  0.91271000  1.0
  N  N28  1  0.87112000  0.57500000  0.92261000  1.0
  N  N29  1  0.17300000  0.63022000  0.08729000  1.0
  N  N30  1  0.12888000  0.57500000  0.07739000  1.0
  N  N31  1  0.82700000  0.36978000  0.08729000  1.0
  N  N32  1  0.87112000  0.42500000  0.07739000  1.0
  N  N33  1  0.36978000  0.08729000  0.82700000  1.0
  N  N34  1  0.42500000  0.07739000  0.87112000  1.0
  N  N35  1  0.63022000  0.08729000  0.17300000  1.0
  N  N36  1  0.57500000  0.07739000  0.12888000  1.0
  N  N37  1  0.63022000  0.91271000  0.82700000  1.0
  N  N38  1  0.57500000  0.92261000  0.87112000  1.0
  N  N39  1  0.36978000  0.91271000  0.17300000  1.0
  N  N40  1  0.42500000  0.92261000  0.12888000  1.0
  N  N41  1  0.08729000  0.17300000  0.63022000  1.0
  N  N42  1  0.07739000  0.12888000  0.57500000  1.0
  N  N43  1  0.08729000  0.82700000  0.36978000  1.0
  N  N44  1  0.07739000  0.87112000  0.42500000  1.0
  N  N45  1  0.91271000  0.17300000  0.36978000  1.0
  N  N46  1  0.92261000  0.12888000  0.42500000  1.0
  N  N47  1  0.91271000  0.82700000  0.63022000  1.0
  N  N48  1  0.92261000  0.87112000  0.57500000  1.0
  N  N49  1  0.63022000  0.82700000  0.91271000  1.0
  N  N50  1  0.57500000  0.87112000  0.92261000  1.0
  N  N51  1  0.36978000  0.17300000  0.91271000  1.0
  N  N52  1  0.42500000  0.12888000  0.92261000  1.0
  N  N53  1  0.36978000  0.82700000  0.08729000  1.0
  N  N54  1  0.42500000  0.87112000  0.07739000  1.0
  N  N55  1  0.63022000  0.17300000  0.08729000  1.0
  N  N56  1  0.57500000  0.12888000  0.07739000  1.0
  N  N57  1  0.91271000  0.63022000  0.82700000  1.0
  N  N58  1  0.92261000  0.57500000  0.87112000  1.0
  N  N59  1  0.91271000  0.36978000  0.17300000  1.0
  N  N60  1  0.92261000  0.42500000  0.12888000  1.0
  N  N61  1  0.08729000  0.36978000  0.82700000  1.0
  N  N62  1  0.07739000  0.42500000  0.87112000  1.0
  N  N63  1  0.08729000  0.63022000  0.17300000  1.0
  N  N64  1  0.07739000  0.57500000  0.12888000  1.0
  N  N65  1  0.82700000  0.91271000  0.63022000  1.0
  N  N66  1  0.87112000  0.92261000  0.57500000  1.0
  N  N67  1  0.17300000  0.91271000  0.36978000  1.0
  N  N68  1  0.12888000  0.92261000  0.42500000  1.0
  N  N69  1  0.82700000  0.08729000  0.36978000  1.0
  N  N70  1  0.87112000  0.07739000  0.42500000  1.0
  N  N71  1  0.17300000  0.08729000  0.63022000  1.0
  N  N72  1  0.12888000  0.07739000  0.57500000  1.0
  N  N73  1  0.82700000  0.63022000  0.08729000  1.0
  N  N74  1  0.87112000  0.57500000  0.07739000  1.0
  N  N75  1  0.17300000  0.36978000  0.08729000  1.0
  N  N76  1  0.12888000  0.42500000  0.07739000  1.0
  N  N77  1  0.82700000  0.36978000  0.91271000  1.0
  N  N78  1  0.87112000  0.42500000  0.92261000  1.0
  N  N79  1  0.17300000  0.63022000  0.91271000  1.0
  N  N80  1  0.12888000  0.57500000  0.92261000  1.0
  N  N81  1  0.63022000  0.91271000  0.17300000  1.0
  N  N82  1  0.57500000  0.92261000  0.12888000  1.0
  N  N83  1  0.36978000  0.91271000  0.82700000  1.0
  N  N84  1  0.42500000  0.92261000  0.87112000  1.0
  N  N85  1  0.36978000  0.08729000  0.17300000  1.0
  N  N86  1  0.42500000  0.07739000  0.12888000  1.0
  N  N87  1  0.63022000  0.08729000  0.82700000  1.0
  N  N88  1  0.57500000  0.07739000  0.87112000  1.0
  N  N89  1  0.91271000  0.82700000  0.36978000  1.0
  N  N90  1  0.92261000  0.87112000  0.42500000  1.0
  N  N91  1  0.91271000  0.17300000  0.63022000  1.0
  N  N92  1  0.92261000  0.12888000  0.57500000  1.0
  N  N93  1  0.08729000  0.82700000  0.63022000  1.0
  N  N94  1  0.07739000  0.87112000  0.57500000  1.0
  N  N95  1  0.08729000  0.17300000  0.36978000  1.0
  N  N96  1  0.07739000  0.12888000  0.42500000  1.0
