# generated using pymatgen
data_Zn2H22C33N6O7
_symmetry_space_group_name_H-M   'P 1'
_cell_length_a   4.68572000
_cell_length_b   24.55514000
_cell_length_c   32.30716000
_cell_angle_alpha   89.99497000
_cell_angle_beta   89.99369000
_cell_angle_gamma   93.35122000
_symmetry_Int_Tables_number   1
_chemical_formula_structural   Zn2H22C33N6O7
_chemical_formula_sum   'Zn8 H88 C132 N24 O28'
_cell_volume   3710.85708037
_cell_formula_units_Z   4
loop_
 _symmetry_equiv_pos_site_id
 _symmetry_equiv_pos_as_xyz
  1  'x, y, z'
loop_
 _atom_site_type_symbol
 _atom_site_label
 _atom_site_symmetry_multiplicity
 _atom_site_fract_x
 _atom_site_fract_y
 _atom_site_fract_z
 _atom_site_occupancy
  Zn  Zn0  1  0.50595000  0.74340000  0.92185000  1
  Zn  Zn1  1  0.50644000  0.74922000  0.53638000  1
  Zn  Zn2  1  0.49409000  0.75660000  0.42187000  1
  Zn  Zn3  1  0.49340000  0.75075000  0.03637000  1
  Zn  Zn4  1  0.49406000  0.25661000  0.07814000  1
  Zn  Zn5  1  0.49358000  0.25079000  0.46362000  1
  Zn  Zn6  1  0.50592000  0.24341000  0.57812000  1
  Zn  Zn7  1  0.50662000  0.24926000  0.96363000  1
  H  H8  1  0.53204000  0.69516000  0.76733000  1
  H  H9  1  0.70334000  0.80672000  0.74996000  1
  H  H10  1  0.92095000  0.79747000  0.82100000  1
  H  H11  1  0.19618000  0.70054000  0.65477000  1
  H  H12  1  0.00141000  0.70301000  0.58283000  1
  H  H13  1  0.37601000  0.80611000  0.61780000  1
  H  H14  1  0.52584000  0.80302000  0.69156000  1
  H  H15  1  0.70794000  0.39568000  0.98569000  1
  H  H16  1  0.28597000  0.50992000  0.89057000  1
  H  H17  1  0.45114000  0.41807000  0.90974000  1
  H  H18  1  0.45938000  0.54295000  0.96464000  1
  H  H19  1  0.30739000  0.63952000  0.96005000  1
  H  H20  1  0.97568000  0.68326000  0.88108000  1
  H  H21  1  0.15493000  0.58983000  0.88234000  1
  H  H22  1  0.97341000  0.10663000  0.91286000  1
  H  H23  1  0.48850000  0.95040000  0.95876000  1
  H  H24  1  0.70179000  0.04352000  0.97245000  1
  H  H25  1  0.63872000  0.94686000  0.88247000  1
  H  H26  1  0.41628000  0.85014000  0.87927000  1
  H  H27  1  0.03933000  0.79513000  0.95795000  1
  H  H28  1  0.27527000  0.88407000  0.96351000  1
  H  H29  1  0.18962000  0.71814000  0.98323000  1
  H  H30  1  0.46788000  0.80482000  0.26733000  1
  H  H31  1  0.29649000  0.69326000  0.24997000  1
  H  H32  1  0.07901000  0.70252000  0.32100000  1
  H  H33  1  0.80384000  0.79946000  0.15480000  1
  H  H34  1  0.99861000  0.79700000  0.08285000  1
  H  H35  1  0.62406000  0.69391000  0.11780000  1
  H  H36  1  0.47420000  0.69697000  0.19157000  1
  H  H37  1  0.29310000  0.10435000  0.48557000  1
  H  H38  1  0.71440000  0.99004000  0.39061000  1
  H  H39  1  0.54941000  0.08195000  0.40972000  1
  H  H40  1  0.54072000  0.95703000  0.46465000  1
  H  H41  1  0.69242000  0.86043000  0.46010000  1
  H  H42  1  0.02426000  0.81677000  0.38110000  1
  H  H43  1  0.84529000  0.91023000  0.38236000  1
  H  H44  1  0.02611000  0.39341000  0.41284000  1
  H  H45  1  0.51143000  0.54966000  0.45877000  1
  H  H46  1  0.29777000  0.45658000  0.47244000  1
  H  H47  1  0.36130000  0.55317000  0.38247000  1
  H  H48  1  0.58400000  0.64988000  0.37928000  1
  H  H49  1  0.96094000  0.70492000  0.45795000  1
  H  H50  1  0.72487000  0.61600000  0.46353000  1
  H  H51  1  0.81022000  0.78184000  0.48324000  1
  H  H52  1  0.46797000  0.30484000  0.23267000  1
  H  H53  1  0.29667000  0.19329000  0.25003000  1
  H  H54  1  0.07906000  0.20254000  0.17900000  1
  H  H55  1  0.80384000  0.29947000  0.34522000  1
  H  H56  1  0.99860000  0.29700000  0.41716000  1
  H  H57  1  0.62400000  0.19389000  0.38219000  1
  H  H58  1  0.47418000  0.19699000  0.30844000  1
  H  H59  1  0.29208000  0.60433000  0.01430000  1
  H  H60  1  0.71404000  0.49009000  0.10942000  1
  H  H61  1  0.54887000  0.58194000  0.09026000  1
  H  H62  1  0.54064000  0.45705000  0.03536000  1
  H  H63  1  0.69262000  0.36049000  0.03995000  1
  H  H64  1  0.02433000  0.31675000  0.11891000  1
  H  H65  1  0.84509000  0.41018000  0.11766000  1
  H  H66  1  0.02660000  0.89338000  0.08714000  1
  H  H67  1  0.51151000  0.04961000  0.04124000  1
  H  H68  1  0.29823000  0.95649000  0.02755000  1
  H  H69  1  0.36130000  0.05315000  0.11753000  1
  H  H70  1  0.58373000  0.14987000  0.12073000  1
  H  H71  1  0.96069000  0.20488000  0.04205000  1
  H  H72  1  0.72475000  0.11594000  0.03649000  1
  H  H73  1  0.81039000  0.28187000  0.01677000  1
  H  H74  1  0.53214000  0.19519000  0.73267000  1
  H  H75  1  0.70352000  0.30675000  0.75002000  1
  H  H76  1  0.92100000  0.29749000  0.67899000  1
  H  H77  1  0.19618000  0.20055000  0.84519000  1
  H  H78  1  0.00141000  0.20301000  0.91715000  1
  H  H79  1  0.37595000  0.30610000  0.88220000  1
  H  H80  1  0.52581000  0.30304000  0.80843000  1
  H  H81  1  0.70693000  0.89566000  0.51443000  1
  H  H82  1  0.28562000  0.00997000  0.60939000  1
  H  H83  1  0.45061000  0.91805000  0.59027000  1
  H  H84  1  0.45930000  0.04298000  0.53534000  1
  H  H85  1  0.30759000  0.13958000  0.53989000  1
  H  H86  1  0.97576000  0.18324000  0.61890000  1
  H  H87  1  0.15472000  0.08977000  0.61764000  1
  H  H88  1  0.97390000  0.60660000  0.58716000  1
  H  H89  1  0.48858000  0.45035000  0.54122000  1
  H  H90  1  0.70224000  0.54343000  0.52756000  1
  H  H91  1  0.63871000  0.44684000  0.61752000  1
  H  H92  1  0.41601000  0.35013000  0.62072000  1
  H  H93  1  0.03908000  0.29509000  0.54205000  1
  H  H94  1  0.27514000  0.38401000  0.53647000  1
  H  H95  1  0.18979000  0.21817000  0.51676000  1
  C  C96  1  0.38874000  0.74057000  0.83937000  1
  C  C97  1  0.24397000  0.74702000  0.79894000  1
  C  C98  1  0.35870000  0.72227000  0.76370000  1
  C  C99  1  0.00303000  0.75330000  0.72155000  1
  C  C100  1  0.87500000  0.77975000  0.75508000  1
  C  C101  1  0.00218000  0.77665000  0.79424000  1
  C  C102  1  0.88743000  0.75450000  0.67912000  1
  C  C103  1  0.02287000  0.72623000  0.64726000  1
  C  C104  1  0.90611000  0.72596000  0.60752000  1
  C  C105  1  0.54369000  0.78054000  0.62779000  1
  C  C106  1  0.64447000  0.78143000  0.66859000  1
  C  C107  1  0.18274000  0.34811000  0.96943000  1
  C  C108  1  0.10753000  0.40264000  0.95375000  1
  C  C109  1  0.85110000  0.42251000  0.96755000  1
  C  C110  1  0.92283000  0.50346000  0.93183000  1
  C  C111  1  0.16751000  0.48492000  0.91317000  1
  C  C112  1  0.26843000  0.43434000  0.92493000  1
  C  C113  1  0.82399000  0.55847000  0.92559000  1
  C  C114  1  0.57458000  0.57282000  0.94519000  1
  C  C115  1  0.48152000  0.62570000  0.94132000  1
  C  C116  1  0.86833000  0.65078000  0.89905000  1
  C  C117  1  0.97468000  0.59893000  0.90166000  1
  C  C118  1  0.46711000  0.13808000  0.95568000  1
  C  C119  1  0.35867000  0.08244000  0.94208000  1
  C  C120  1  0.10071000  0.07245000  0.92083000  1
  C  C121  1  0.12355000  0.97901000  0.92619000  1
  C  C122  1  0.38241000  0.98543000  0.94744000  1
  C  C123  1  0.50954000  0.03744000  0.95408000  1
  C  C124  1  0.98699000  0.92405000  0.92098000  1
  C  C125  1  0.73332000  0.91380000  0.89896000  1
  C  C126  1  0.59887000  0.86112000  0.89881000  1
  C  C127  1  0.95598000  0.82856000  0.94036000  1
  C  C128  1  0.10375000  0.87937000  0.94117000  1
  C  C129  1  0.61113000  0.75939000  0.33938000  1
  C  C130  1  0.75596000  0.75297000  0.29895000  1
  C  C131  1  0.64122000  0.77772000  0.26371000  1
  C  C132  1  0.99694000  0.74668000  0.22157000  1
  C  C133  1  0.12491000  0.72024000  0.25510000  1
  C  C134  1  0.99773000  0.72334000  0.29425000  1
  C  C135  1  0.11261000  0.74549000  0.17914000  1
  C  C136  1  0.97717000  0.77378000  0.14729000  1
  C  C137  1  0.09391000  0.77406000  0.10754000  1
  C  C138  1  0.45638000  0.71948000  0.12779000  1
  C  C139  1  0.35559000  0.71856000  0.16859000  1
  C  C140  1  0.81781000  0.15196000  0.46938000  1
  C  C141  1  0.89323000  0.09742000  0.45369000  1
  C  C142  1  0.14965000  0.07752000  0.46747000  1
  C  C143  1  0.07758000  0.99655000  0.43181000  1
  C  C144  1  0.83285000  0.01508000  0.41317000  1
  C  C145  1  0.73214000  0.06568000  0.42491000  1
  C  C146  1  0.17623000  0.94153000  0.42561000  1
  C  C147  1  0.42549000  0.92716000  0.44522000  1
  C  C148  1  0.51834000  0.87426000  0.44137000  1
  C  C149  1  0.13160000  0.84923000  0.39908000  1
  C  C150  1  0.02542000  0.90108000  0.40169000  1
  C  C151  1  0.53252000  0.36198000  0.45567000  1
  C  C152  1  0.64090000  0.41763000  0.44207000  1
  C  C153  1  0.89888000  0.42760000  0.42082000  1
  C  C154  1  0.87632000  0.52105000  0.42619000  1
  C  C155  1  0.61740000  0.51464000  0.44743000  1
  C  C156  1  0.49003000  0.46264000  0.45406000  1
  C  C157  1  0.01307000  0.57599000  0.42099000  1
  C  C158  1  0.26678000  0.58623000  0.39896000  1
  C  C159  1  0.40126000  0.63892000  0.39881000  1
  C  C160  1  0.04416000  0.67148000  0.44036000  1
  C  C161  1  0.89641000  0.62067000  0.44119000  1
  C  C162  1  0.61127000  0.25944000  0.16062000  1
  C  C163  1  0.75604000  0.25299000  0.20106000  1
  C  C164  1  0.64131000  0.27774000  0.23630000  1
  C  C165  1  0.99698000  0.24670000  0.27845000  1
  C  C166  1  0.12501000  0.22026000  0.24492000  1
  C  C167  1  0.99783000  0.22336000  0.20576000  1
  C  C168  1  0.11259000  0.24551000  0.32088000  1
  C  C169  1  0.97714000  0.27378000  0.35274000  1
  C  C170  1  0.09390000  0.27405000  0.39248000  1
  C  C171  1  0.45633000  0.21947000  0.37221000  1
  C  C172  1  0.35555000  0.21858000  0.33141000  1
  C  C173  1  0.81728000  0.65190000  0.03057000  1
  C  C174  1  0.89248000  0.59737000  0.04625000  1
  C  C175  1  0.14891000  0.57750000  0.03245000  1
  C  C176  1  0.07718000  0.49655000  0.06817000  1
  C  C177  1  0.83250000  0.51509000  0.08683000  1
  C  C178  1  0.73159000  0.56566000  0.07506000  1
  C  C179  1  0.17603000  0.44154000  0.07440000  1
  C  C180  1  0.42544000  0.42719000  0.05481000  1
  C  C181  1  0.51850000  0.37430000  0.05868000  1
  C  C182  1  0.13168000  0.34923000  0.10095000  1
  C  C183  1  0.02534000  0.40108000  0.09833000  1
  C  C184  1  0.53290000  0.86193000  0.04432000  1
  C  C185  1  0.64134000  0.91757000  0.05792000  1
  C  C186  1  0.89930000  0.92756000  0.07917000  1
  C  C187  1  0.87646000  0.02100000  0.07381000  1
  C  C188  1  0.61761000  0.01458000  0.05256000  1
  C  C189  1  0.49047000  0.96257000  0.04592000  1
  C  C190  1  0.01303000  0.07596000  0.07902000  1
  C  C191  1  0.26669000  0.08621000  0.10104000  1
  C  C192  1  0.40114000  0.13889000  0.10118000  1
  C  C193  1  0.04403000  0.17145000  0.05963000  1
  C  C194  1  0.89627000  0.12063000  0.05883000  1
  C  C195  1  0.38888000  0.24062000  0.66062000  1
  C  C196  1  0.24405000  0.24704000  0.70105000  1
  C  C197  1  0.35879000  0.22229000  0.73628000  1
  C  C198  1  0.00308000  0.25333000  0.77843000  1
  C  C199  1  0.87510000  0.27977000  0.74490000  1
  C  C200  1  0.00229000  0.27667000  0.70575000  1
  C  C201  1  0.88741000  0.25452000  0.82086000  1
  C  C202  1  0.02284000  0.22623000  0.85271000  1
  C  C203  1  0.90610000  0.22595000  0.89246000  1
  C  C204  1  0.54364000  0.28053000  0.87221000  1
  C  C205  1  0.64442000  0.28145000  0.83140000  1
  C  C206  1  0.18221000  0.84805000  0.53062000  1
  C  C207  1  0.10679000  0.90259000  0.54631000  1
  C  C208  1  0.85037000  0.92249000  0.53252000  1
  C  C209  1  0.92243000  0.00346000  0.56818000  1
  C  C210  1  0.16716000  0.98493000  0.58682000  1
  C  C211  1  0.26788000  0.93433000  0.57508000  1
  C  C212  1  0.82378000  0.05848000  0.57439000  1
  C  C213  1  0.57453000  0.07285000  0.55478000  1
  C  C214  1  0.48168000  0.12575000  0.55862000  1
  C  C215  1  0.86842000  0.15078000  0.60092000  1
  C  C216  1  0.97460000  0.09893000  0.59831000  1
  C  C217  1  0.46749000  0.63803000  0.54433000  1
  C  C218  1  0.35911000  0.58238000  0.55793000  1
  C  C219  1  0.10113000  0.57241000  0.57918000  1
  C  C220  1  0.12369000  0.47896000  0.57381000  1
  C  C221  1  0.38262000  0.48537000  0.55257000  1
  C  C222  1  0.50998000  0.53737000  0.54593000  1
  C  C223  1  0.98695000  0.42402000  0.57901000  1
  C  C224  1  0.73324000  0.41378000  0.60103000  1
  C  C225  1  0.59875000  0.36109000  0.60119000  1
  C  C226  1  0.95586000  0.32853000  0.55964000  1
  C  C227  1  0.10361000  0.37934000  0.55881000  1
  N  N228  1  0.23927000  0.72503000  0.72587000  1
  N  N229  1  0.67754000  0.75359000  0.59732000  1
  N  N230  1  0.76068000  0.47161000  0.95855000  1
  N  N231  1  0.63120000  0.66445000  0.91896000  1
  N  N232  1  0.98588000  0.02247000  0.91119000  1
  N  N233  1  0.71202000  0.81892000  0.91930000  1
  N  N234  1  0.76069000  0.77495000  0.22588000  1
  N  N235  1  0.32247000  0.74643000  0.09733000  1
  N  N236  1  0.23985000  0.02840000  0.45851000  1
  N  N237  1  0.36864000  0.83553000  0.41900000  1
  N  N238  1  0.01382000  0.47757000  0.41118000  1
  N  N239  1  0.28809000  0.68111000  0.41928000  1
  N  N240  1  0.76075000  0.27498000  0.27413000  1
  N  N241  1  0.32247000  0.24641000  0.40267000  1
  N  N242  1  0.23933000  0.52840000  0.04144000  1
  N  N243  1  0.36882000  0.33556000  0.08104000  1
  N  N244  1  0.01413000  0.97754000  0.08881000  1
  N  N245  1  0.28800000  0.18109000  0.08070000  1
  N  N246  1  0.23932000  0.22506000  0.77411000  1
  N  N247  1  0.67754000  0.25358000  0.90267000  1
  N  N248  1  0.76016000  0.97161000  0.54149000  1
  N  N249  1  0.63137000  0.16448000  0.58100000  1
  N  N250  1  0.98619000  0.52244000  0.58882000  1
  N  N251  1  0.71193000  0.31890000  0.58072000  1
  O  O252  1  0.25583000  0.75662000  0.87247000  1
  O  O253  1  0.62556000  0.71933000  0.83966000  1
  O  O254  1  0.04289000  0.32817000  0.99968000  1
  O  O255  1  0.38538000  0.32552000  0.95039000  1
  O  O256  1  0.30295000  0.17784000  0.94795000  1
  O  O257  1  0.69954000  0.14299000  0.97475000  1
  O  O258  1  0.35763000  0.74369000  0.97909000  1
  O  O259  1  0.74415000  0.74335000  0.37247000  1
  O  O260  1  0.37437000  0.78065000  0.33966000  1
  O  O261  1  0.95678000  0.17182000  0.49974000  1
  O  O262  1  0.61557000  0.17456000  0.45025000  1
  O  O263  1  0.69686000  0.32224000  0.44796000  1
  O  O264  1  0.30024000  0.35703000  0.47477000  1
  O  O265  1  0.64227000  0.75629000  0.47908000  1
  O  O266  1  0.74418000  0.24338000  0.12753000  1
  O  O267  1  0.37445000  0.28068000  0.16034000  1
  O  O268  1  0.95713000  0.67184000  0.00032000  1
  O  O269  1  0.61463000  0.67449000  0.04960000  1
  O  O270  1  0.69707000  0.82217000  0.05204000  1
  O  O271  1  0.30047000  0.85701000  0.02525000  1
  O  O272  1  0.64239000  0.25632000  0.02091000  1
  O  O273  1  0.25586000  0.25666000  0.62753000  1
  O  O274  1  0.62564000  0.21936000  0.66033000  1
  O  O275  1  0.04323000  0.82819000  0.50026000  1
  O  O276  1  0.38444000  0.82544000  0.54974000  1
  O  O277  1  0.30315000  0.67777000  0.55204000  1
  O  O278  1  0.69977000  0.64298000  0.52523000  1
  O  O279  1  0.35775000  0.24372000  0.52092000  1
