# generated using pymatgen
data_CdH20C27(N2O3)2
_symmetry_space_group_name_H-M   'P 1'
_cell_length_a   9.81396000
_cell_length_b   16.63789000
_cell_length_c   18.28920000
_cell_angle_alpha   89.94166000
_cell_angle_beta   86.09747000
_cell_angle_gamma   89.93204000
_symmetry_Int_Tables_number   1
_chemical_formula_structural   CdH20C27(N2O3)2
_chemical_formula_sum   'Cd4 H80 C108 N16 O24'
_cell_volume   2979.39829650
_cell_formula_units_Z   4
loop_
 _symmetry_equiv_pos_site_id
 _symmetry_equiv_pos_as_xyz
  1  'x, y, z'
loop_
 _atom_site_type_symbol
 _atom_site_label
 _atom_site_symmetry_multiplicity
 _atom_site_fract_x
 _atom_site_fract_y
 _atom_site_fract_z
 _atom_site_occupancy
  Cd  Cd1  1  0.90074000  0.40886000  0.99577000  1.0
  Cd  Cd2  1  0.09916000  0.40905000  0.50413000  1.0
  Cd  Cd3  1  0.09927000  0.59115000  0.00423000  1.0
  Cd  Cd4  1  0.90085000  0.59095000  0.49587000  1.0
  H  H1  1  0.10527000  0.34746000  0.13808000  1.0
  H  H2  1  0.20554000  0.23134000  0.20086000  1.0
  H  H3  1  0.53671000  0.22445000  0.03336000  1.0
  H  H4  1  0.43532000  0.34220000  0.97249000  1.0
  H  H5  1  0.30780000  0.08441000  0.19965000  1.0
  H  H6  1  0.35038000  0.16426000  0.25942000  1.0
  H  H7  1  0.50458000  0.98697000  0.15615000  1.0
  H  H8  1  0.64664000  0.05291000  0.15646000  1.0
  H  H9  1  0.89244000  0.72875000  0.23195000  1.0
  H  H10  1  0.73994000  0.83681000  0.29330000  1.0
  H  H11  1  0.59177000  0.47643000  0.93555000  1.0
  H  H12  1  0.78006000  0.25344000  0.88774000  1.0
  H  H13  1  0.57313000  0.27664000  0.79307000  1.0
  H  H14  1  0.37156000  0.38929000  0.79836000  1.0
  H  H15  1  0.39404000  0.46915000  0.85911000  1.0
  H  H16  1  0.30053000  0.49857000  0.70602000  1.0
  H  H17  1  0.41190000  0.57886000  0.68261000  1.0
  H  H18  1  0.42057000  0.69758000  0.77736000  1.0
  H  H19  1  0.16104000  0.49972000  0.83289000  1.0
  H  H20  1  0.25034000  0.73542000  0.89928000  1.0
  H  H21  1  0.89272000  0.34732000  0.36185000  1.0
  H  H22  1  0.79333000  0.22982000  0.30119000  1.0
  H  H23  1  0.46331000  0.22429000  0.46948000  1.0
  H  H24  1  0.56442000  0.34307000  0.52857000  1.0
  H  H25  1  0.69319000  0.08388000  0.30164000  1.0
  H  H26  1  0.64849000  0.16506000  0.24372000  1.0
  H  H27  1  0.49475000  0.98684000  0.34617000  1.0
  H  H28  1  0.35290000  0.05311000  0.34515000  1.0
  H  H29  1  0.10958000  0.72907000  0.26843000  1.0
  H  H30  1  0.26194000  0.83777000  0.20768000  1.0
  H  H31  1  0.40786000  0.47730000  0.56500000  1.0
  H  H32  1  0.22047000  0.25416000  0.61283000  1.0
  H  H33  1  0.42829000  0.27698000  0.70704000  1.0
  H  H34  1  0.62878000  0.38902000  0.70200000  1.0
  H  H35  1  0.60713000  0.46909000  0.64120000  1.0
  H  H36  1  0.69991000  0.49870000  0.79448000  1.0
  H  H37  1  0.58807000  0.57903000  0.81736000  1.0
  H  H38  1  0.57961000  0.69755000  0.72257000  1.0
  H  H39  1  0.83926000  0.49952000  0.66716000  1.0
  H  H40  1  0.74925000  0.73517000  0.60027000  1.0
  H  H41  1  0.89474000  0.65254000  0.86192000  1.0
  H  H42  1  0.79447000  0.76866000  0.79914000  1.0
  H  H43  1  0.46329000  0.77555000  0.96665000  1.0
  H  H44  1  0.56469000  0.65780000  0.02751000  1.0
  H  H45  1  0.69221000  0.91560000  0.80036000  1.0
  H  H46  1  0.64963000  0.83575000  0.74059000  1.0
  H  H47  1  0.49543000  0.01304000  0.84385000  1.0
  H  H48  1  0.35337000  0.94709000  0.84354000  1.0
  H  H49  1  0.10757000  0.27125000  0.76806000  1.0
  H  H50  1  0.26006000  0.16319000  0.70671000  1.0
  H  H51  1  0.40824000  0.52357000  0.06445000  1.0
  H  H52  1  0.21995000  0.74657000  0.11227000  1.0
  H  H53  1  0.42688000  0.72337000  0.20693000  1.0
  H  H54  1  0.62845000  0.61072000  0.20164000  1.0
  H  H55  1  0.60597000  0.53085000  0.14089000  1.0
  H  H56  1  0.69948000  0.50143000  0.29398000  1.0
  H  H57  1  0.58811000  0.42114000  0.31740000  1.0
  H  H58  1  0.57944000  0.30243000  0.22264000  1.0
  H  H59  1  0.83897000  0.50028000  0.16711000  1.0
  H  H60  1  0.74967000  0.26459000  0.10073000  1.0
  H  H61  1  0.10729000  0.65268000  0.63815000  1.0
  H  H62  1  0.20668000  0.77018000  0.69881000  1.0
  H  H63  1  0.53670000  0.77571000  0.53052000  1.0
  H  H64  1  0.43559000  0.65693000  0.47144000  1.0
  H  H65  1  0.30682000  0.91612000  0.69836000  1.0
  H  H66  1  0.35152000  0.83495000  0.75628000  1.0
  H  H67  1  0.50526000  0.01317000  0.65383000  1.0
  H  H68  1  0.64711000  0.94689000  0.65486000  1.0
  H  H69  1  0.89043000  0.27093000  0.73158000  1.0
  H  H70  1  0.73807000  0.16224000  0.79232000  1.0
  H  H71  1  0.59215000  0.52270000  0.43501000  1.0
  H  H72  1  0.77954000  0.74585000  0.38717000  1.0
  H  H73  1  0.57172000  0.72303000  0.29296000  1.0
  H  H74  1  0.37123000  0.61098000  0.29801000  1.0
  H  H75  1  0.39288000  0.53091000  0.35881000  1.0
  H  H76  1  0.30010000  0.50131000  0.20552000  1.0
  H  H77  1  0.41194000  0.42097000  0.18264000  1.0
  H  H78  1  0.42040000  0.30246000  0.27744000  1.0
  H  H79  1  0.16075000  0.50048000  0.33284000  1.0
  H  H80  1  0.25076000  0.26483000  0.39974000  1.0
  C  C1  1  0.21978000  0.43134000  0.02099000  1.0
  C  C2  1  0.26664000  0.35446000  0.05290000  1.0
  C  C3  1  0.20059000  0.32075000  0.11599000  1.0
  C  C4  1  0.25709000  0.25512000  0.15107000  1.0
  C  C5  1  0.38163000  0.22280000  0.12244000  1.0
  C  C6  1  0.44358000  0.25256000  0.05652000  1.0
  C  C7  1  0.38659000  0.31781000  0.02263000  1.0
  C  C8  1  0.39160000  0.12185000  0.21745000  1.0
  C  C9  1  0.57472000  0.01699000  0.19174000  1.0
  C  C10  1  0.71206000  0.89802000  0.18743000  1.0
  C  C11  1  0.65477000  0.87764000  0.10632000  1.0
  C  C12  1  0.76813000  0.82392000  0.07982000  1.0
  C  C13  1  0.87521000  0.78108000  0.11996000  1.0
  C  C14  1  0.84926000  0.77832000  0.20237000  1.0
  C  C15  1  0.76717000  0.83389000  0.23476000  1.0
  C  C16  1  0.94497000  0.70814000  0.08451000  1.0
  C  C17  1  0.61941000  0.42019000  0.90881000  1.0
  C  C18  1  0.71132000  0.30376000  0.88251000  1.0
  C  C19  1  0.60985000  0.31479000  0.83518000  1.0
  C  C20  1  0.44682000  0.43265000  0.81610000  1.0
  C  C21  1  0.37853000  0.53768000  0.72719000  1.0
  C  C22  1  0.34332000  0.66249000  0.80717000  1.0
  C  C23  1  0.20648000  0.55913000  0.83440000  1.0
  C  C24  1  0.25769000  0.68081000  0.86713000  1.0
  C  C25  1  0.21222000  0.91267000  0.38587000  1.0
  C  C26  1  0.10310000  0.86389000  0.42430000  1.0
  C  C27  1  0.77960000  0.43149000  0.47939000  1.0
  C  C28  1  0.73210000  0.35488000  0.44751000  1.0
  C  C29  1  0.79783000  0.32072000  0.38457000  1.0
  C  C30  1  0.74181000  0.25434000  0.35065000  1.0
  C  C31  1  0.61802000  0.22194000  0.38010000  1.0
  C  C32  1  0.55598000  0.25240000  0.44571000  1.0
  C  C33  1  0.61266000  0.31831000  0.47850000  1.0
  C  C34  1  0.60850000  0.12154000  0.28501000  1.0
  C  C35  1  0.42517000  0.01701000  0.31022000  1.0
  C  C36  1  0.28802000  0.89830000  0.31392000  1.0
  C  C37  1  0.34401000  0.87824000  0.39525000  1.0
  C  C38  1  0.23117000  0.82414000  0.42129000  1.0
  C  C39  1  0.12540000  0.78119000  0.38052000  1.0
  C  C40  1  0.15233000  0.77850000  0.29819000  1.0
  C  C41  1  0.23430000  0.83431000  0.26616000  1.0
  C  C42  1  0.05691000  0.70787000  0.41556000  1.0
  C  C43  1  0.38050000  0.42096000  0.59167000  1.0
  C  C44  1  0.28910000  0.30444000  0.61798000  1.0
  C  C45  1  0.39100000  0.31523000  0.66506000  1.0
  C  C46  1  0.55390000  0.43270000  0.68415000  1.0
  C  C47  1  0.62189000  0.53772000  0.77301000  1.0
  C  C48  1  0.65678000  0.66242000  0.69271000  1.0
  C  C49  1  0.79382000  0.55899000  0.66565000  1.0
  C  C50  1  0.74214000  0.68065000  0.63262000  1.0
  C  C51  1  0.78628000  0.91246000  0.11513000  1.0
  C  C52  1  0.89557000  0.86411000  0.07611000  1.0
  C  C53  1  0.78023000  0.56866000  0.97902000  1.0
  C  C54  1  0.73337000  0.64555000  0.94710000  1.0
  C  C55  1  0.79942000  0.67925000  0.88401000  1.0
  C  C56  1  0.74292000  0.74489000  0.84893000  1.0
  C  C57  1  0.61838000  0.77720000  0.87756000  1.0
  C  C58  1  0.55643000  0.74745000  0.94349000  1.0
  C  C59  1  0.61342000  0.68219000  0.97738000  1.0
  C  C60  1  0.60841000  0.87815000  0.78255000  1.0
  C  C61  1  0.42529000  0.98301000  0.80826000  1.0
  C  C62  1  0.28795000  0.10199000  0.81257000  1.0
  C  C63  1  0.34523000  0.12236000  0.89369000  1.0
  C  C64  1  0.23188000  0.17608000  0.92018000  1.0
  C  C65  1  0.12480000  0.21893000  0.88004000  1.0
  C  C66  1  0.15075000  0.22169000  0.79763000  1.0
  C  C67  1  0.23283000  0.16611000  0.76524000  1.0
  C  C68  1  0.05504000  0.29186000  0.91549000  1.0
  C  C69  1  0.38060000  0.57982000  0.09119000  1.0
  C  C70  1  0.28868000  0.69625000  0.11750000  1.0
  C  C71  1  0.39016000  0.68521000  0.16483000  1.0
  C  C72  1  0.55319000  0.56736000  0.18390000  1.0
  C  C73  1  0.62148000  0.46233000  0.27281000  1.0
  C  C74  1  0.65669000  0.33752000  0.19283000  1.0
  C  C75  1  0.79352000  0.44087000  0.16560000  1.0
  C  C76  1  0.74232000  0.31920000  0.13287000  1.0
  C  C77  1  0.78779000  0.08733000  0.61413000  1.0
  C  C78  1  0.89691000  0.13611000  0.57570000  1.0
  C  C79  1  0.22041000  0.56852000  0.52062000  1.0
  C  C80  1  0.26791000  0.64512000  0.55249000  1.0
  C  C81  1  0.20218000  0.67929000  0.61543000  1.0
  C  C82  1  0.25820000  0.74566000  0.64936000  1.0
  C  C83  1  0.38199000  0.77806000  0.61990000  1.0
  C  C84  1  0.44403000  0.74761000  0.55429000  1.0
  C  C85  1  0.38735000  0.68169000  0.52150000  1.0
  C  C86  1  0.39151000  0.87847000  0.71499000  1.0
  C  C87  1  0.57483000  0.98300000  0.68978000  1.0
  C  C88  1  0.71199000  0.10170000  0.68608000  1.0
  C  C89  1  0.65600000  0.12177000  0.60475000  1.0
  C  C90  1  0.76884000  0.17587000  0.57872000  1.0
  C  C91  1  0.87461000  0.21882000  0.61948000  1.0
  C  C92  1  0.84768000  0.22150000  0.70182000  1.0
  C  C93  1  0.76571000  0.16569000  0.73384000  1.0
  C  C94  1  0.94310000  0.29214000  0.58445000  1.0
  C  C95  1  0.61951000  0.57905000  0.40833000  1.0
  C  C96  1  0.71091000  0.69557000  0.38202000  1.0
  C  C97  1  0.60901000  0.68478000  0.33495000  1.0
  C  C98  1  0.44611000  0.56731000  0.31585000  1.0
  C  C99  1  0.37812000  0.46229000  0.22700000  1.0
  C  C100  1  0.34323000  0.33759000  0.30730000  1.0
  C  C101  1  0.20619000  0.44102000  0.33435000  1.0
  C  C102  1  0.25787000  0.31936000  0.36738000  1.0
  C  C103  1  0.21373000  0.08754000  0.88487000  1.0
  C  C104  1  0.10444000  0.13589000  0.92389000  1.0
  C  C105  1  0.50015000  0.06941000  0.25109000  1.0
  C  C106  1  0.49986000  0.93059000  0.74891000  1.0
  C  C107  1  0.50034000  0.48548000  0.75011000  1.0
  C  C108  1  0.49967000  0.51453000  0.24990000  1.0
  N  N1  1  0.71637000  0.36993000  0.92794000  1.0
  N  N2  1  0.55279000  0.38937000  0.85214000  1.0
  N  N3  1  0.31050000  0.58500000  0.78646000  1.0
  N  N4  1  0.17352000  0.61591000  0.88372000  1.0
  N  N5  1  0.28344000  0.37083000  0.57272000  1.0
  N  N6  1  0.44776000  0.38982000  0.64808000  1.0
  N  N7  1  0.68992000  0.58496000  0.71364000  1.0
  N  N8  1  0.82644000  0.61570000  0.61616000  1.0
  N  N9  1  0.28364000  0.63008000  0.07206000  1.0
  N  N10  1  0.44722000  0.61063000  0.14787000  1.0
  N  N11  1  0.68951000  0.41500000  0.21355000  1.0
  N  N12  1  0.82649000  0.38409000  0.11629000  1.0
  N  N13  1  0.71657000  0.62917000  0.42729000  1.0
  N  N14  1  0.55225000  0.61019000  0.35192000  1.0
  N  N15  1  0.31009000  0.41505000  0.28637000  1.0
  N  N16  1  0.17357000  0.38430000  0.38385000  1.0
  O  O1  1  0.29501000  0.46811000  0.97380000  1.0
  O  O2  1  0.10335000  0.46087000  0.04806000  1.0
  O  O3  1  0.45477000  0.16378000  0.15539000  1.0
  O  O4  1  0.64708000  0.95601000  0.22955000  1.0
  O  O5  1  0.93193000  0.64195000  0.11854000  1.0
  O  O6  1  0.01307000  0.71840000  0.02317000  1.0
  O  O7  1  0.70439000  0.46828000  0.52653000  1.0
  O  O8  1  0.89637000  0.46060000  0.45230000  1.0
  O  O9  1  0.54588000  0.16214000  0.34804000  1.0
  O  O10  1  0.35308000  0.95641000  0.27202000  1.0
  O  O11  1  0.07332000  0.64195000  0.38159000  1.0
  O  O12  1  0.98655000  0.71778000  0.47627000  1.0
  O  O13  1  0.70500000  0.53190000  0.02621000  1.0
  O  O14  1  0.89665000  0.53913000  0.95194000  1.0
  O  O15  1  0.54524000  0.83623000  0.84461000  1.0
  O  O16  1  0.35293000  0.04400000  0.77046000  1.0
  O  O17  1  0.06808000  0.35805000  0.88147000  1.0
  O  O18  1  0.98694000  0.28160000  0.97683000  1.0
  O  O19  1  0.29562000  0.53173000  0.47347000  1.0
  O  O20  1  0.10364000  0.53940000  0.54770000  1.0
  O  O21  1  0.45413000  0.83787000  0.65196000  1.0
  O  O22  1  0.64693000  0.04360000  0.72798000  1.0
  O  O23  1  0.92668000  0.35805000  0.61841000  1.0
  O  O24  1  0.01347000  0.28223000  0.52374000  1.0
