# generated using pymatgen
data_GdH6C21(NO3)6
_symmetry_space_group_name_H-M   'P 1'
_cell_length_a   13.98825000
_cell_length_b   25.14500000
_cell_length_c   29.71152000
_cell_angle_alpha   90.00000000
_cell_angle_beta   90.00000000
_cell_angle_gamma   94.53619000
_symmetry_Int_Tables_number   1
_chemical_formula_structural   GdH6C21(NO3)6
_chemical_formula_sum   'Gd8 H48 C168 N48 O144'
_cell_volume   10417.83241005
_cell_formula_units_Z   8
loop_
 _symmetry_equiv_pos_site_id
 _symmetry_equiv_pos_as_xyz
  1  'x, y, z'
loop_
 _atom_site_type_symbol
 _atom_site_label
 _atom_site_symmetry_multiplicity
 _atom_site_fract_x
 _atom_site_fract_y
 _atom_site_fract_z
 _atom_site_occupancy
  Gd  Gd1  1  0.37403000  0.22384000  0.74169000  1.0
  Gd  Gd2  1  0.62142000  0.27953000  0.77891000  1.0
  Gd  Gd3  1  0.12597000  0.27615000  0.24169000  1.0
  Gd  Gd4  1  0.87858000  0.22047000  0.27891000  1.0
  Gd  Gd5  1  0.62597000  0.77615000  0.25831000  1.0
  Gd  Gd6  1  0.37858000  0.72047000  0.22109000  1.0
  Gd  Gd7  1  0.87402000  0.72384000  0.75831000  1.0
  Gd  Gd8  1  0.12142000  0.77953000  0.72109000  1.0
  H  H1  1  0.68095000  0.14318000  0.79965000  1.0
  H  H2  1  0.51916000  0.06365000  0.69162000  1.0
  H  H3  1  0.00710000  0.95557000  0.69940000  1.0
  H  H4  1  0.80370000  0.85458000  0.77692000  1.0
  H  H5  1  0.55262000  0.28290000  0.91427000  1.0
  H  H6  1  0.28155000  0.19201000  0.89362000  1.0
  H  H7  1  0.25351000  0.33640000  0.10804000  1.0
  H  H8  1  0.35438000  0.18378000  0.14299000  1.0
  H  H9  1  0.73052000  0.29347000  0.63321000  1.0
  H  H10  1  0.43727000  0.24053000  0.60169000  1.0
  H  H11  1  0.68573000  0.32160000  0.38309000  1.0
  H  H12  1  0.72755000  0.15644000  0.41100000  1.0
  H  H13  1  0.81904000  0.35682000  0.29965000  1.0
  H  H14  1  0.98083000  0.43635000  0.19162000  1.0
  H  H15  1  0.49290000  0.54442000  0.19941000  1.0
  H  H16  1  0.69629000  0.64542000  0.27693000  1.0
  H  H17  1  0.94738000  0.21710000  0.41427000  1.0
  H  H18  1  0.21845000  0.30799000  0.39362000  1.0
  H  H19  1  0.24648000  0.16360000  0.60804000  1.0
  H  H20  1  0.14562000  0.31622000  0.64299000  1.0
  H  H21  1  0.76947000  0.20653000  0.13321000  1.0
  H  H22  1  0.06273000  0.25947000  0.10169000  1.0
  H  H23  1  0.81426000  0.17840000  0.88309000  1.0
  H  H24  1  0.77245000  0.34356000  0.91100000  1.0
  H  H25  1  0.31904000  0.85682000  0.20035000  1.0
  H  H26  1  0.48084000  0.93635000  0.30837000  1.0
  H  H27  1  0.99290000  0.04442000  0.30059000  1.0
  H  H28  1  0.19629000  0.14542000  0.22307000  1.0
  H  H29  1  0.44738000  0.71709000  0.08572000  1.0
  H  H30  1  0.71844000  0.80799000  0.10638000  1.0
  H  H31  1  0.74648000  0.66360000  0.89196000  1.0
  H  H32  1  0.64562000  0.81622000  0.85701000  1.0
  H  H33  1  0.26947000  0.70653000  0.36679000  1.0
  H  H34  1  0.56273000  0.75947000  0.39831000  1.0
  H  H35  1  0.31426000  0.67840000  0.61691000  1.0
  H  H36  1  0.27245000  0.84356000  0.58900000  1.0
  H  H37  1  0.18096000  0.64318000  0.70035000  1.0
  H  H38  1  0.01916000  0.56365000  0.80837000  1.0
  H  H39  1  0.50709000  0.45557000  0.80059000  1.0
  H  H40  1  0.30370000  0.35458000  0.72307000  1.0
  H  H41  1  0.05262000  0.78290000  0.58572000  1.0
  H  H42  1  0.78155000  0.69201000  0.60638000  1.0
  H  H43  1  0.75351000  0.83640000  0.39196000  1.0
  H  H44  1  0.85438000  0.68378000  0.35701000  1.0
  H  H45  1  0.23053000  0.79347000  0.86679000  1.0
  H  H46  1  0.93727000  0.74053000  0.89831000  1.0
  H  H47  1  0.18573000  0.82159000  0.11691000  1.0
  H  H48  1  0.22755000  0.65644000  0.08900000  1.0
  C  C1  1  0.51883000  0.14864000  0.74745000  1.0
  C  C2  1  0.58952000  0.10755000  0.74650000  1.0
  C  C3  1  0.66789000  0.11036000  0.77596000  1.0
  C  C4  1  0.73021000  0.07017000  0.77523000  1.0
  C  C5  1  0.72138000  0.02692000  0.74489000  1.0
  C  C6  1  0.64452000  0.02739000  0.71419000  1.0
  C  C7  1  0.57846000  0.06606000  0.71537000  1.0
  C  C8  1  0.79109000  0.98467000  0.74420000  1.0
  C  C9  1  0.87879000  0.99017000  0.72063000  1.0
  C  C10  1  0.93987000  0.94917000  0.71769000  1.0
  C  C11  1  0.91430000  0.90005000  0.73794000  1.0
  C  C12  1  0.82717000  0.89249000  0.76117000  1.0
  C  C13  1  0.76873000  0.93439000  0.76426000  1.0
  C  C14  1  0.98009000  0.85667000  0.73369000  1.0
  C  C15  1  0.43839000  0.23941000  0.84830000  1.0
  C  C16  1  0.41946000  0.23734000  0.89769000  1.0
  C  C17  1  0.48693000  0.26257000  0.92711000  1.0
  C  C18  1  0.46899000  0.26349000  0.97295000  1.0
  C  C19  1  0.38453000  0.23891000  0.99231000  1.0
  C  C20  1  0.31968000  0.21243000  0.96170000  1.0
  C  C21  1  0.33536000  0.21210000  0.91541000  1.0
  C  C22  1  0.35915000  0.24733000  0.04060000  1.0
  C  C23  1  0.31433000  0.29294000  0.05449000  1.0
  C  C24  1  0.28718000  0.30044000  0.09894000  1.0
  C  C25  1  0.30035000  0.26136000  0.13116000  1.0
  C  C26  1  0.34364000  0.21522000  0.11875000  1.0
  C  C27  1  0.37347000  0.20953000  0.07454000  1.0
  C  C28  1  0.26081000  0.26858000  0.17712000  1.0
  C  C29  1  0.55613000  0.26370000  0.67207000  1.0
  C  C30  1  0.58115000  0.26606000  0.62342000  1.0
  C  C31  1  0.67455000  0.28087000  0.60925000  1.0
  C  C32  1  0.69752000  0.27819000  0.56384000  1.0
  C  C33  1  0.63015000  0.26012000  0.53069000  1.0
  C  C34  1  0.53585000  0.24780000  0.54641000  1.0
  C  C35  1  0.51094000  0.25080000  0.59143000  1.0
  C  C36  1  0.65641000  0.25283000  0.48245000  1.0
  C  C37  1  0.65533000  0.29394000  0.45029000  1.0
  C  C38  1  0.68447000  0.28777000  0.40597000  1.0
  C  C39  1  0.71144000  0.23814000  0.39154000  1.0
  C  C40  1  0.70850000  0.19550000  0.42184000  1.0
  C  C41  1  0.68298000  0.20347000  0.46637000  1.0
  C  C42  1  0.74817000  0.23060000  0.34505000  1.0
  C  C43  1  0.98117000  0.35136000  0.24745000  1.0
  C  C44  1  0.91047000  0.39245000  0.24650000  1.0
  C  C45  1  0.83211000  0.38964000  0.27597000  1.0
  C  C46  1  0.76978000  0.42983000  0.27523000  1.0
  C  C47  1  0.77861000  0.47308000  0.24489000  1.0
  C  C48  1  0.85547000  0.47261000  0.21419000  1.0
  C  C49  1  0.92154000  0.43394000  0.21537000  1.0
  C  C50  1  0.70890000  0.51533000  0.24421000  1.0
  C  C51  1  0.62121000  0.50983000  0.22063000  1.0
  C  C52  1  0.56013000  0.55083000  0.21769000  1.0
  C  C53  1  0.58570000  0.59995000  0.23794000  1.0
  C  C54  1  0.67283000  0.60751000  0.26117000  1.0
  C  C55  1  0.73127000  0.56561000  0.26426000  1.0
  C  C56  1  0.51991000  0.64333000  0.23369000  1.0
  C  C57  1  0.06161000  0.26059000  0.34830000  1.0
  C  C58  1  0.08053000  0.26266000  0.39769000  1.0
  C  C59  1  0.01307000  0.23743000  0.42712000  1.0
  C  C60  1  0.03101000  0.23651000  0.47295000  1.0
  C  C61  1  0.11547000  0.26109000  0.49231000  1.0
  C  C62  1  0.18032000  0.28757000  0.46170000  1.0
  C  C63  1  0.16464000  0.28790000  0.41542000  1.0
  C  C64  1  0.14085000  0.25267000  0.54060000  1.0
  C  C65  1  0.18567000  0.20706000  0.55449000  1.0
  C  C66  1  0.21282000  0.19956000  0.59894000  1.0
  C  C67  1  0.19965000  0.23864000  0.63115000  1.0
  C  C68  1  0.15636000  0.28478000  0.61875000  1.0
  C  C69  1  0.12652000  0.29047000  0.57454000  1.0
  C  C70  1  0.23918000  0.23142000  0.67712000  1.0
  C  C71  1  0.94386000  0.23630000  0.17207000  1.0
  C  C72  1  0.91884000  0.23394000  0.12342000  1.0
  C  C73  1  0.82545000  0.21913000  0.10925000  1.0
  C  C74  1  0.80248000  0.22181000  0.06385000  1.0
  C  C75  1  0.86984000  0.23988000  0.03070000  1.0
  C  C76  1  0.96414000  0.25220000  0.04641000  1.0
  C  C77  1  0.98906000  0.24920000  0.09143000  1.0
  C  C78  1  0.84359000  0.24717000  0.98245000  1.0
  C  C79  1  0.84466000  0.20606000  0.95029000  1.0
  C  C80  1  0.81552000  0.21223000  0.90596000  1.0
  C  C81  1  0.78856000  0.26186000  0.89154000  1.0
  C  C82  1  0.79150000  0.30449000  0.92184000  1.0
  C  C83  1  0.81701000  0.29653000  0.96637000  1.0
  C  C84  1  0.75182000  0.26940000  0.84505000  1.0
  C  C85  1  0.48117000  0.85136000  0.25255000  1.0
  C  C86  1  0.41047000  0.89245000  0.25350000  1.0
  C  C87  1  0.33211000  0.88964000  0.22403000  1.0
  C  C88  1  0.26979000  0.92983000  0.22477000  1.0
  C  C89  1  0.27861000  0.97308000  0.25510000  1.0
  C  C90  1  0.35548000  0.97261000  0.28581000  1.0
  C  C91  1  0.42154000  0.93394000  0.28463000  1.0
  C  C92  1  0.20890000  0.01533000  0.25579000  1.0
  C  C93  1  0.12121000  0.00983000  0.27937000  1.0
  C  C94  1  0.06013000  0.05083000  0.28231000  1.0
  C  C95  1  0.08570000  0.09995000  0.26206000  1.0
  C  C96  1  0.17283000  0.10751000  0.23882000  1.0
  C  C97  1  0.23127000  0.06561000  0.23573000  1.0
  C  C98  1  0.01991000  0.14333000  0.26631000  1.0
  C  C99  1  0.56161000  0.76059000  0.15170000  1.0
  C  C100  1  0.58053000  0.76266000  0.10231000  1.0
  C  C101  1  0.51307000  0.73743000  0.07288000  1.0
  C  C102  1  0.53101000  0.73651000  0.02705000  1.0
  C  C103  1  0.61547000  0.76109000  0.00769000  1.0
  C  C104  1  0.68032000  0.78756000  0.03830000  1.0
  C  C105  1  0.66464000  0.78790000  0.08458000  1.0
  C  C106  1  0.64085000  0.75266000  0.95940000  1.0
  C  C107  1  0.68567000  0.70706000  0.94550000  1.0
  C  C108  1  0.71282000  0.69956000  0.90106000  1.0
  C  C109  1  0.69965000  0.73864000  0.86884000  1.0
  C  C110  1  0.65636000  0.78478000  0.88125000  1.0
  C  C111  1  0.62652000  0.79047000  0.92546000  1.0
  C  C112  1  0.73918000  0.73142000  0.82288000  1.0
  C  C113  1  0.44386000  0.73630000  0.32793000  1.0
  C  C114  1  0.41884000  0.73394000  0.37658000  1.0
  C  C115  1  0.32545000  0.71913000  0.39075000  1.0
  C  C116  1  0.30248000  0.72181000  0.43615000  1.0
  C  C117  1  0.36984000  0.73988000  0.46930000  1.0
  C  C118  1  0.46414000  0.75220000  0.45359000  1.0
  C  C119  1  0.48906000  0.74920000  0.40857000  1.0
  C  C120  1  0.34359000  0.74717000  0.51755000  1.0
  C  C121  1  0.34466000  0.70606000  0.54971000  1.0
  C  C122  1  0.31553000  0.71223000  0.59403000  1.0
  C  C123  1  0.28856000  0.76186000  0.60845000  1.0
  C  C124  1  0.29150000  0.80449000  0.57816000  1.0
  C  C125  1  0.31701000  0.79653000  0.53363000  1.0
  C  C126  1  0.25183000  0.76940000  0.65495000  1.0
  C  C127  1  0.01883000  0.64864000  0.75255000  1.0
  C  C128  1  0.08952000  0.60755000  0.75350000  1.0
  C  C129  1  0.16789000  0.61036000  0.72403000  1.0
  C  C130  1  0.23021000  0.57017000  0.72477000  1.0
  C  C131  1  0.22138000  0.52692000  0.75510000  1.0
  C  C132  1  0.14452000  0.52739000  0.78581000  1.0
  C  C133  1  0.07846000  0.56606000  0.78463000  1.0
  C  C134  1  0.29109000  0.48467000  0.75579000  1.0
  C  C135  1  0.37879000  0.49017000  0.77937000  1.0
  C  C136  1  0.43987000  0.44917000  0.78231000  1.0
  C  C137  1  0.41430000  0.40005000  0.76205000  1.0
  C  C138  1  0.32717000  0.39249000  0.73882000  1.0
  C  C139  1  0.26873000  0.43439000  0.73573000  1.0
  C  C140  1  0.48009000  0.35667000  0.76631000  1.0
  C  C141  1  0.93839000  0.73941000  0.65170000  1.0
  C  C142  1  0.91946000  0.73734000  0.60231000  1.0
  C  C143  1  0.98693000  0.76257000  0.57288000  1.0
  C  C144  1  0.96899000  0.76349000  0.52705000  1.0
  C  C145  1  0.88452000  0.73890000  0.50769000  1.0
  C  C146  1  0.81968000  0.71243000  0.53830000  1.0
  C  C147  1  0.83536000  0.71210000  0.58458000  1.0
  C  C148  1  0.85915000  0.74733000  0.45940000  1.0
  C  C149  1  0.81433000  0.79294000  0.44550000  1.0
  C  C150  1  0.78718000  0.80044000  0.40106000  1.0
  C  C151  1  0.80034000  0.76136000  0.36884000  1.0
  C  C152  1  0.84364000  0.71522000  0.38125000  1.0
  C  C153  1  0.87347000  0.70952000  0.42546000  1.0
  C  C154  1  0.76081000  0.76858000  0.32288000  1.0
  C  C155  1  0.05613000  0.76370000  0.82793000  1.0
  C  C156  1  0.08116000  0.76606000  0.87657000  1.0
  C  C157  1  0.17455000  0.78087000  0.89075000  1.0
  C  C158  1  0.19752000  0.77819000  0.93615000  1.0
  C  C159  1  0.13016000  0.76012000  0.96930000  1.0
  C  C160  1  0.03585000  0.74780000  0.95359000  1.0
  C  C161  1  0.01093000  0.75080000  0.90857000  1.0
  C  C162  1  0.15641000  0.75283000  0.01755000  1.0
  C  C163  1  0.15534000  0.79394000  0.04971000  1.0
  C  C164  1  0.18447000  0.78777000  0.09403000  1.0
  C  C165  1  0.21144000  0.73814000  0.10846000  1.0
  C  C166  1  0.20850000  0.69550000  0.07816000  1.0
  C  C167  1  0.18298000  0.70347000  0.03363000  1.0
  C  C168  1  0.24817000  0.73059000  0.15495000  1.0
  N  N1  1  0.81008000  0.07471000  0.80786000  1.0
  N  N2  1  0.62697000  0.98562000  0.67917000  1.0
  N  N3  1  0.91257000  0.04111000  0.69863000  1.0
  N  N4  1  0.67773000  0.92424000  0.78921000  1.0
  N  N5  1  0.54055000  0.29444000  0.00118000  1.0
  N  N6  1  0.23105000  0.18187000  0.97734000  1.0
  N  N7  1  0.29196000  0.33593000  0.02266000  1.0
  N  N8  1  0.42141000  0.16066000  0.06339000  1.0
  N  N9  1  0.79913000  0.29144000  0.55207000  1.0
  N  N10  1  0.45754000  0.23074000  0.51506000  1.0
  N  N11  1  0.62680000  0.34709000  0.46388000  1.0
  N  N12  1  0.68187000  0.15701000  0.49695000  1.0
  N  N13  1  0.68992000  0.42529000  0.30786000  1.0
  N  N14  1  0.87303000  0.51438000  0.17917000  1.0
  N  N15  1  0.58742000  0.45889000  0.19863000  1.0
  N  N16  1  0.82227000  0.57576000  0.28921000  1.0
  N  N17  1  0.95944000  0.20556000  0.50118000  1.0
  N  N18  1  0.26895000  0.31813000  0.47734000  1.0
  N  N19  1  0.20804000  0.16407000  0.52265000  1.0
  N  N20  1  0.07859000  0.33934000  0.56339000  1.0
  N  N21  1  0.70087000  0.20856000  0.05207000  1.0
  N  N22  1  0.04246000  0.26926000  0.01506000  1.0
  N  N23  1  0.87320000  0.15291000  0.96388000  1.0
  N  N24  1  0.81812000  0.34299000  0.99695000  1.0
  N  N25  1  0.18992000  0.92529000  0.19214000  1.0
  N  N26  1  0.37303000  0.01438000  0.32083000  1.0
  N  N27  1  0.08742000  0.95889000  0.30137000  1.0
  N  N28  1  0.32227000  0.07576000  0.21079000  1.0
  N  N29  1  0.45945000  0.70556000  0.99882000  1.0
  N  N30  1  0.76895000  0.81813000  0.02266000  1.0
  N  N31  1  0.70804000  0.66407000  0.97734000  1.0
  N  N32  1  0.57859000  0.83934000  0.93661000  1.0
  N  N33  1  0.20087000  0.70856000  0.44793000  1.0
  N  N34  1  0.54245000  0.76925000  0.48494000  1.0
  N  N35  1  0.37320000  0.65291000  0.53612000  1.0
  N  N36  1  0.31813000  0.84299000  0.50304000  1.0
  N  N37  1  0.31008000  0.57471000  0.69214000  1.0
  N  N38  1  0.12697000  0.48562000  0.82083000  1.0
  N  N39  1  0.41257000  0.54111000  0.80136000  1.0
  N  N40  1  0.17773000  0.42424000  0.71079000  1.0
  N  N41  1  0.04055000  0.79444000  0.49882000  1.0
  N  N42  1  0.73104000  0.68187000  0.52266000  1.0
  N  N43  1  0.79196000  0.83593000  0.47734000  1.0
  N  N44  1  0.92141000  0.66066000  0.43661000  1.0
  N  N45  1  0.29913000  0.79144000  0.94792000  1.0
  N  N46  1  0.95754000  0.73074000  0.98494000  1.0
  N  N47  1  0.12680000  0.84709000  0.03612000  1.0
  N  N48  1  0.18187000  0.65701000  0.00305000  1.0
  O  O1  1  0.43358000  0.13757000  0.73409000  1.0
  O  O2  1  0.54651000  0.19591000  0.76181000  1.0
  O  O3  1  0.06588000  0.86740000  0.72067000  1.0
  O  O4  1  0.94806000  0.80831000  0.74302000  1.0
  O  O5  1  0.82925000  0.11903000  0.82514000  1.0
  O  O6  1  0.85243000  0.03419000  0.81580000  1.0
  O  O7  1  0.58121000  0.99751000  0.64554000  1.0
  O  O8  1  0.65775000  0.94142000  0.68631000  1.0
  O  O9  1  0.87593000  0.08208000  0.71107000  1.0
  O  O10  1  0.97650000  0.03968000  0.67006000  1.0
  O  O11  1  0.63762000  0.96366000  0.80245000  1.0
  O  O12  1  0.64785000  0.87718000  0.79535000  1.0
  O  O13  1  0.37502000  0.21964000  0.82064000  1.0
  O  O14  1  0.51934000  0.26227000  0.83664000  1.0
  O  O15  1  0.24266000  0.22800000  0.20294000  1.0
  O  O16  1  0.23795000  0.31491000  0.18910000  1.0
  O  O17  1  0.60468000  0.32247000  0.98160000  1.0
  O  O18  1  0.53278000  0.29073000  0.04268000  1.0
  O  O19  1  0.16263000  0.17728000  0.95072000  1.0
  O  O20  1  0.23264000  0.16168000  0.01536000  1.0
  O  O21  1  0.33391000  0.33833000  0.98585000  1.0
  O  O22  1  0.23322000  0.36711000  0.03515000  1.0
  O  O23  1  0.45227000  0.15654000  0.02448000  1.0
  O  O24  1  0.42809000  0.12724000  0.09349000  1.0
  O  O25  1  0.47213000  0.24345000  0.68175000  1.0
  O  O26  1  0.61970000  0.28062000  0.70073000  1.0
  O  O27  1  0.76290000  0.18350000  0.33143000  1.0
  O  O28  1  0.77129000  0.27149000  0.32022000  1.0
  O  O29  1  0.81971000  0.29616000  0.51149000  1.0
  O  O30  1  0.85738000  0.29672000  0.58344000  1.0
  O  O31  1  0.47662000  0.20457000  0.48138000  1.0
  O  O32  1  0.37653000  0.24351000  0.52529000  1.0
  O  O33  1  0.65266000  0.38555000  0.43969000  1.0
  O  O34  1  0.57847000  0.34929000  0.49888000  1.0
  O  O35  1  0.67671000  0.11232000  0.47952000  1.0
  O  O36  1  0.68571000  0.16622000  0.53808000  1.0
  O  O37  1  0.06642000  0.36243000  0.23409000  1.0
  O  O38  1  0.95348000  0.30409000  0.26181000  1.0
  O  O39  1  0.43412000  0.63260000  0.22067000  1.0
  O  O40  1  0.55194000  0.69169000  0.24302000  1.0
  O  O41  1  0.67074000  0.38097000  0.32515000  1.0
  O  O42  1  0.64757000  0.46581000  0.31580000  1.0
  O  O43  1  0.91878000  0.50249000  0.14554000  1.0
  O  O44  1  0.84224000  0.55858000  0.18631000  1.0
  O  O45  1  0.62407000  0.41792000  0.21107000  1.0
  O  O46  1  0.52349000  0.46032000  0.17006000  1.0
  O  O47  1  0.86237000  0.53634000  0.30245000  1.0
  O  O48  1  0.85215000  0.62282000  0.29535000  1.0
  O  O49  1  0.12497000  0.28036000  0.32064000  1.0
  O  O50  1  0.98065000  0.23773000  0.33664000  1.0
  O  O51  1  0.25734000  0.27200000  0.70293000  1.0
  O  O52  1  0.26205000  0.18509000  0.68910000  1.0
  O  O53  1  0.89532000  0.17753000  0.48160000  1.0
  O  O54  1  0.96721000  0.20927000  0.54268000  1.0
  O  O55  1  0.33737000  0.32272000  0.45073000  1.0
  O  O56  1  0.26736000  0.33832000  0.51536000  1.0
  O  O57  1  0.16609000  0.16167000  0.48585000  1.0
  O  O58  1  0.26678000  0.13289000  0.53515000  1.0
  O  O59  1  0.04772000  0.34346000  0.52448000  1.0
  O  O60  1  0.07191000  0.37276000  0.59349000  1.0
  O  O61  1  0.02787000  0.25655000  0.18175000  1.0
  O  O62  1  0.88029000  0.21938000  0.20073000  1.0
  O  O63  1  0.73709000  0.31650000  0.83143000  1.0
  O  O64  1  0.72871000  0.22850000  0.82022000  1.0
  O  O65  1  0.68029000  0.20384000  0.01149000  1.0
  O  O66  1  0.64262000  0.20328000  0.08344000  1.0
  O  O67  1  0.02338000  0.29543000  0.98138000  1.0
  O  O68  1  0.12347000  0.25649000  0.02529000  1.0
  O  O69  1  0.84734000  0.11445000  0.93969000  1.0
  O  O70  1  0.92153000  0.15071000  0.99888000  1.0
  O  O71  1  0.82329000  0.38768000  0.97952000  1.0
  O  O72  1  0.81429000  0.33378000  0.03808000  1.0
  O  O73  1  0.56642000  0.86243000  0.26590000  1.0
  O  O74  1  0.45348000  0.80409000  0.23819000  1.0
  O  O75  1  0.93412000  0.13260000  0.27933000  1.0
  O  O76  1  0.05194000  0.19169000  0.25698000  1.0
  O  O77  1  0.17074000  0.88097000  0.17485000  1.0
  O  O78  1  0.14757000  0.96581000  0.18420000  1.0
  O  O79  1  0.41878000  0.00249000  0.35446000  1.0
  O  O80  1  0.34224000  0.05858000  0.31369000  1.0
  O  O81  1  0.12407000  0.91792000  0.28893000  1.0
  O  O82  1  0.02350000  0.96032000  0.32994000  1.0
  O  O83  1  0.36237000  0.03634000  0.19754000  1.0
  O  O84  1  0.35215000  0.12282000  0.20464000  1.0
  O  O85  1  0.62497000  0.78035000  0.17936000  1.0
  O  O86  1  0.48066000  0.73773000  0.16335000  1.0
  O  O87  1  0.75733000  0.77200000  0.79706000  1.0
  O  O88  1  0.76205000  0.68509000  0.81089000  1.0
  O  O89  1  0.39532000  0.67753000  0.01839000  1.0
  O  O90  1  0.46722000  0.70927000  0.95732000  1.0
  O  O91  1  0.83736000  0.82272000  0.04927000  1.0
  O  O92  1  0.76735000  0.83832000  0.98464000  1.0
  O  O93  1  0.66609000  0.66167000  0.01415000  1.0
  O  O94  1  0.76678000  0.63289000  0.96485000  1.0
  O  O95  1  0.54772000  0.84346000  0.97552000  1.0
  O  O96  1  0.57190000  0.87276000  0.90651000  1.0
  O  O97  1  0.52787000  0.75655000  0.31824000  1.0
  O  O98  1  0.38029000  0.71938000  0.29927000  1.0
  O  O99  1  0.23709000  0.81650000  0.66857000  1.0
  O  O100  1  0.22871000  0.72850000  0.67978000  1.0
  O  O101  1  0.18029000  0.70384000  0.48851000  1.0
  O  O102  1  0.14262000  0.70328000  0.41656000  1.0
  O  O103  1  0.52338000  0.79543000  0.51862000  1.0
  O  O104  1  0.62347000  0.75649000  0.47471000  1.0
  O  O105  1  0.34734000  0.61445000  0.56030000  1.0
  O  O106  1  0.42153000  0.65071000  0.50112000  1.0
  O  O107  1  0.32329000  0.88768000  0.52048000  1.0
  O  O108  1  0.31429000  0.83378000  0.46192000  1.0
  O  O109  1  0.93358000  0.63757000  0.76590000  1.0
  O  O110  1  0.04652000  0.69591000  0.73818000  1.0
  O  O111  1  0.56588000  0.36740000  0.77933000  1.0
  O  O112  1  0.44806000  0.30831000  0.75698000  1.0
  O  O113  1  0.32925000  0.61903000  0.67485000  1.0
  O  O114  1  0.35243000  0.53419000  0.68420000  1.0
  O  O115  1  0.08121000  0.49751000  0.85446000  1.0
  O  O116  1  0.15776000  0.44142000  0.81369000  1.0
  O  O117  1  0.37593000  0.58208000  0.78893000  1.0
  O  O118  1  0.47650000  0.53968000  0.82994000  1.0
  O  O119  1  0.13762000  0.46366000  0.69754000  1.0
  O  O120  1  0.14785000  0.37718000  0.70464000  1.0
  O  O121  1  0.87502000  0.71964000  0.67936000  1.0
  O  O122  1  0.01934000  0.76227000  0.66335000  1.0
  O  O123  1  0.74266000  0.72800000  0.29706000  1.0
  O  O124  1  0.73794000  0.81491000  0.31090000  1.0
  O  O125  1  0.10468000  0.82247000  0.51839000  1.0
  O  O126  1  0.03278000  0.79073000  0.45732000  1.0
  O  O127  1  0.66263000  0.67728000  0.54927000  1.0
  O  O128  1  0.73264000  0.66168000  0.48464000  1.0
  O  O129  1  0.83391000  0.83833000  0.51415000  1.0
  O  O130  1  0.73322000  0.86711000  0.46485000  1.0
  O  O131  1  0.95227000  0.65654000  0.47552000  1.0
  O  O132  1  0.92809000  0.62724000  0.40651000  1.0
  O  O133  1  0.97213000  0.74345000  0.81824000  1.0
  O  O134  1  0.11971000  0.78062000  0.79927000  1.0
  O  O135  1  0.26291000  0.68350000  0.16857000  1.0
  O  O136  1  0.27129000  0.77149000  0.17978000  1.0
  O  O137  1  0.31971000  0.79615000  0.98851000  1.0
  O  O138  1  0.35738000  0.79672000  0.91656000  1.0
  O  O139  1  0.97661000  0.70457000  0.01862000  1.0
  O  O140  1  0.87652000  0.74350000  0.97471000  1.0
  O  O141  1  0.15266000  0.88555000  0.06031000  1.0
  O  O142  1  0.07847000  0.84929000  0.00112000  1.0
  O  O143  1  0.17671000  0.61232000  0.02048000  1.0
  O  O144  1  0.18571000  0.66622000  0.96192000  1.0
