# generated using pymatgen
data_VH13C16O5
_symmetry_space_group_name_H-M   'P 1'
_cell_length_a   7.23407000
_cell_length_b   14.88166000
_cell_length_c   21.88574000
_cell_angle_alpha   73.21003000
_cell_angle_beta   90.00392000
_cell_angle_gamma   90.00055000
_symmetry_Int_Tables_number   1
_chemical_formula_structural   VH13C16O5
_chemical_formula_sum   'V4 H52 C64 O20'
_cell_volume   2255.66795577
_cell_formula_units_Z   4
loop_
 _symmetry_equiv_pos_site_id
 _symmetry_equiv_pos_as_xyz
  1  'x, y, z'
loop_
 _atom_site_type_symbol
 _atom_site_label
 _atom_site_symmetry_multiplicity
 _atom_site_fract_x
 _atom_site_fract_y
 _atom_site_fract_z
 _atom_site_occupancy
  V  V0  1  0.93581000  0.99170000  0.49687000  1
  V  V1  1  0.43581000  0.00830000  0.50313000  1
  V  V2  1  0.32791000  0.00830000  0.00312000  1
  V  V3  1  0.82791000  0.99170000  0.99688000  1
  H  H4  1  0.39677000  0.00688000  0.80601000  1
  H  H5  1  0.89674000  0.99284000  0.19405000  1
  H  H6  1  0.98186000  0.96594000  0.80432000  1
  H  H7  1  0.48202000  0.03427000  0.19563000  1
  H  H8  1  0.36447000  0.93528000  0.71245000  1
  H  H9  1  0.86473000  0.06452000  0.28759000  1
  H  H10  1  0.12745000  0.38218000  0.12201000  1
  H  H11  1  0.62739000  0.61782000  0.87799000  1
  H  H12  1  0.15760000  0.25944000  0.33107000  1
  H  H13  1  0.65746000  0.74056000  0.66893000  1
  H  H14  1  0.13157000  0.30867000  0.51341000  1
  H  H15  1  0.63178000  0.69132000  0.48659000  1
  H  H16  1  0.07624000  0.61039000  0.36936000  1
  H  H17  1  0.57662000  0.38959000  0.63064000  1
  H  H18  1  0.10734000  0.69972000  0.97892000  1
  H  H19  1  0.60732000  0.30028000  0.02108000  1
  H  H20  1  0.12523000  0.73423000  0.16307000  1
  H  H21  1  0.62524000  0.26576000  0.83694000  1
  H  H22  1  0.13540000  0.31578000  0.23306000  1
  H  H23  1  0.63536000  0.68422000  0.76694000  1
  H  H24  1  0.06747000  0.67746000  0.25773000  1
  H  H25  1  0.56771000  0.32253000  0.74226000  1
  H  H26  1  0.10302000  0.47786000  0.46333000  1
  H  H27  1  0.60337000  0.52212000  0.53668000  1
  H  H28  1  0.90592000  0.29351000  0.63716000  1
  H  H29  1  0.90313000  0.25396000  0.72365000  1
  H  H30  1  0.07550000  0.33684000  0.68210000  1
  H  H31  1  0.21205000  0.17870000  0.72316000  1
  H  H32  1  0.21369000  0.21660000  0.63726000  1
  H  H33  1  0.92316000  0.12574000  0.63573000  1
  H  H34  1  0.92075000  0.08330000  0.71981000  1
  H  H35  1  0.40352000  0.70702000  0.36209000  1
  H  H36  1  0.40353000  0.74663000  0.27558000  1
  H  H37  1  0.57429000  0.66328000  0.31778000  1
  H  H38  1  0.71242000  0.82124000  0.27718000  1
  H  H39  1  0.71202000  0.78305000  0.36308000  1
  H  H40  1  0.42254000  0.87454000  0.36415000  1
  H  H41  1  0.42068000  0.91689000  0.28007000  1
  H  H42  1  0.24173000  0.43870000  0.91066000  1
  H  H43  1  0.99356000  0.43807000  0.91080000  1
  H  H44  1  0.11683000  0.52132000  0.84757000  1
  H  H45  1  0.99242000  0.59987000  0.92401000  1
  H  H46  1  0.23977000  0.60054000  0.92408000  1
  H  H47  1  0.23922000  0.45880000  0.02094000  1
  H  H48  1  0.99648000  0.45748000  0.02136000  1
  H  H49  1  0.74174000  0.56132000  0.08934000  1
  H  H50  1  0.49357000  0.56193000  0.08920000  1
  H  H51  1  0.61690000  0.47869000  0.15243000  1
  H  H52  1  0.49244000  0.40013000  0.07599000  1
  H  H53  1  0.73980000  0.39946000  0.07592000  1
  H  H54  1  0.73921000  0.54121000  0.97906000  1
  H  H55  1  0.49647000  0.54252000  0.97864000  1
  C  C56  1  0.65579000  0.82622000  0.54591000  1
  C  C57  1  0.15578000  0.17378000  0.45409000  1
  C  C58  1  0.65520000  0.99310000  0.38823000  1
  C  C59  1  0.15522000  0.00690000  0.61177000  1
  C  C60  1  0.26380000  0.99551000  0.78646000  1
  C  C61  1  0.76384000  0.00438000  0.21357000  1
  C  C62  1  0.11080000  0.98532000  0.82252000  1
  C  C63  1  0.61087000  0.01474000  0.17746000  1
  C  C64  1  0.26101000  0.98266000  0.72170000  1
  C  C65  1  0.76110000  0.01724000  0.27832000  1
  C  C66  1  0.14391000  0.02695000  0.67409000  1
  C  C67  1  0.64384000  0.97305000  0.32590000  1
  C  C68  1  0.11341000  0.72350000  0.06987000  1
  C  C69  1  0.61340000  0.27649000  0.93014000  1
  C  C70  1  0.14632000  0.27499000  0.42409000  1
  C  C71  1  0.64634000  0.72501000  0.57591000  1
  C  C72  1  0.11596000  0.56760000  0.05482000  1
  C  C73  1  0.61595000  0.43240000  0.94519000  1
  C  C74  1  0.11138000  0.66603000  0.02975000  1
  C  C75  1  0.61137000  0.33397000  0.97025000  1
  C  C76  1  0.11769000  0.68491000  0.13558000  1
  C  C77  1  0.61771000  0.31508000  0.86442000  1
  C  C78  1  0.11473000  0.58697000  0.16386000  1
  C  C79  1  0.61475000  0.41303000  0.83614000  1
  C  C80  1  0.11827000  0.52782000  0.12282000  1
  C  C81  1  0.61827000  0.47218000  0.87718000  1
  C  C82  1  0.11038000  0.54673000  0.23179000  1
  C  C83  1  0.61045000  0.45326000  0.76821000  1
  C  C84  1  0.12335000  0.44737000  0.25867000  1
  C  C85  1  0.62338000  0.55263000  0.74133000  1
  C  C86  1  0.12957000  0.39122000  0.21661000  1
  C  C87  1  0.62955000  0.60878000  0.78339000  1
  C  C88  1  0.12465000  0.43031000  0.15073000  1
  C  C89  1  0.62461000  0.56969000  0.84927000  1
  C  C90  1  0.08973000  0.60285000  0.27373000  1
  C  C91  1  0.58992000  0.39714000  0.72627000  1
  C  C92  1  0.09171000  0.56421000  0.33936000  1
  C  C93  1  0.59198000  0.43578000  0.66063000  1
  C  C94  1  0.11211000  0.46805000  0.36639000  1
  C  C95  1  0.61229000  0.53194000  0.63361000  1
  C  C96  1  0.12714000  0.40772000  0.32677000  1
  C  C97  1  0.62720000  0.59228000  0.67323000  1
  C  C98  1  0.11499000  0.43176000  0.43317000  1
  C  C99  1  0.61523000  0.56822000  0.56683000  1
  C  C100  1  0.13165000  0.33574000  0.46182000  1
  C  C101  1  0.63181000  0.66426000  0.53818000  1
  C  C102  1  0.14489000  0.31018000  0.35736000  1
  C  C103  1  0.64486000  0.68982000  0.64265000  1
  C  C104  1  0.60788000  0.00496000  0.11230000  1
  C  C105  1  0.10786000  0.99505000  0.88770000  1
  C  C106  1  0.60571000  0.17452000  0.95645000  1
  C  C107  1  0.10571000  0.82548000  0.04356000  1
  C  C108  1  0.01473000  0.10588000  0.67834000  1
  C  C109  1  0.12317000  0.19391000  0.68003000  1
  C  C110  1  0.99328000  0.27441000  0.68076000  1
  C  C111  1  0.51439000  0.89426000  0.32160000  1
  C  C112  1  0.62252000  0.80607000  0.32006000  1
  C  C113  1  0.49230000  0.72592000  0.31882000  1
  C  C114  1  0.11694000  0.50488000  0.01021000  1
  C  C115  1  0.11650000  0.55480000  0.93777000  1
  C  C116  1  0.11723000  0.48380000  0.89941000  1
  C  C117  1  0.61694000  0.49512000  0.98979000  1
  C  C118  1  0.61652000  0.44520000  0.06223000  1
  C  C119  1  0.61725000  0.51620000  0.10059000  1
  O  O120  1  0.49423000  0.00209000  0.41523000  1
  O  O121  1  0.99423000  0.99791000  0.58477000  1
  O  O122  1  0.82666000  0.86195000  0.53294000  1
  O  O123  1  0.32666000  0.13805000  0.46706000  1
  O  O124  1  0.82411000  0.99321000  0.41249000  1
  O  O125  1  0.32411000  0.00679000  0.58751000  1
  O  O126  1  0.99185000  0.13010000  0.46346000  1
  O  O127  1  0.49185000  0.86990000  0.53654000  1
  O  O128  1  0.65996000  0.04476000  0.51686000  1
  O  O129  1  0.15996000  0.95524000  0.48314000  1
  O  O130  1  0.76693000  0.13013000  0.96355000  1
  O  O131  1  0.26693000  0.86987000  0.03645000  1
  O  O132  1  0.43943000  0.00679000  0.08753000  1
  O  O133  1  0.93943000  0.99321000  0.91247000  1
  O  O134  1  0.43706000  0.13805000  0.96708000  1
  O  O135  1  0.93706000  0.86195000  0.03292000  1
  O  O136  1  0.26950000  0.00209000  0.91521000  1
  O  O137  1  0.76950000  0.99791000  0.08479000  1
  O  O138  1  0.60383000  0.95526000  0.98318000  1
  O  O139  1  0.10383000  0.04474000  0.01682000  1
