# generated using pymatgen
data_H7(C7N2)2
_symmetry_space_group_name_H-M   'P 1'
_cell_length_a   10.08666667
_cell_length_b   29.96975000
_cell_length_c   29.96980000
_cell_angle_alpha   120.00016557
_cell_angle_beta   89.99990000
_cell_angle_gamma   90.00000000
_symmetry_Int_Tables_number   1
_chemical_formula_structural   H7(C7N2)2
_chemical_formula_sum   'H42 C84 N24'
_cell_volume   7845.93202200
_cell_formula_units_Z   6
loop_
 _symmetry_equiv_pos_site_id
 _symmetry_equiv_pos_as_xyz
  1  'x, y, z'
loop_
 _atom_site_type_symbol
 _atom_site_label
 _atom_site_symmetry_multiplicity
 _atom_site_fract_x
 _atom_site_fract_y
 _atom_site_fract_z
 _atom_site_occupancy
  C  1  1  0.03591000  0.96707700  0.51520433  1
  C  2  1  0.03532800  0.01899067  0.52540300  1
  C  3  1  0.02469000  0.02988900  0.48438733  1
  C  4  1  0.02499800  0.98800300  0.43345100  1
  C  5  1  0.02797700  0.93610100  0.42136867  1
  C  6  1  0.03787100  0.92580933  0.46297633  1
  C  7  1  0.05419000  0.05844600  0.57691900  1
  C  8  1  0.05881000  0.87574467  0.45507900  1
  C  10  1  0.03586300  0.95665900  0.55716367  1
  C  11  1  0.03718300  0.99792633  0.60939633  1
  C  12  1  0.02735300  0.98761100  0.65099367  1
  C  13  1  0.02471700  0.93570067  0.63888733  1
  C  14  1  0.02495300  0.89381600  0.58794833  1
  C  15  1  0.03581000  0.90474100  0.54695567  1
  C  16  1  0.05740200  0.04803833  0.61732567  1
  C  18  1  0.05529600  0.86531700  0.49546833  1
  C  23  1  0.01311000  0.89935333  0.36831567  1
  C  24  1  0.00603000  0.84359400  0.58027333  1
  C  25  1  0.01198800  0.02431000  0.70403600  1
  C  26  1  0.00554000  0.08008467  0.49201600  1
  C  31  1  0.03522000  0.43563967  0.03093800  1
  C  32  1  0.03485700  0.39394400  0.97901267  1
  C  33  1  0.02427500  0.34201600  0.96807167  1
  C  34  1  0.02449700  0.33293833  0.00994067  1
  C  35  1  0.02745200  0.37272600  0.06185367  1
  C  36  1  0.03703800  0.42464700  0.07218633  1
  C  37  1  0.05394700  0.40602733  0.93958700  1
  C  38  1  0.05773500  0.46681467  0.12227067  1
  C  40  1  0.03509600  0.48802400  0.04137967  1
  C  41  1  0.03678500  0.49901667  0.00013100  1
  C  42  1  0.02691700  0.55092933  0.01045567  1
  C  43  1  0.02378900  0.59071400  0.06236933  1
  C  44  1  0.02378800  0.58164000  0.10424200  1
  C  45  1  0.03468900  0.52971800  0.09330600  1
  C  46  1  0.05749700  0.45685667  0.95004200  1
  C  48  1  0.05386700  0.51764367  0.13273533  1
  C  53  1  0.01280900  0.35636100  0.09856167  1
  C  54  1  0.00482700  0.62418133  0.15446700  1
  C  55  1  0.01203900  0.56728967  0.97375000  1
  C  56  1  0.00505900  0.29948000  0.91786433  1
  C  61  1  0.03435200  0.48282233  0.56233733  1
  C  62  1  0.03422400  0.47260733  0.60404333  1
  C  63  1  0.02355100  0.51360367  0.65596767  1
  C  64  1  0.02348700  0.56454433  0.66502833  1
  C  65  1  0.02618200  0.57665567  0.62522867  1
  C  66  1  0.03587400  0.53505833  0.57331233  1
  C  67  1  0.05349100  0.42110833  0.59197233  1
  C  68  1  0.05634200  0.54297667  0.53113400  1
  C  70  1  0.03438200  0.44086667  0.50995567  1
  C  71  1  0.03625100  0.38863067  0.49898033  1
  C  72  1  0.02662400  0.34702533  0.44706733  1
  C  73  1  0.02371400  0.35912967  0.40726567  1
  C  74  1  0.02346700  0.41006600  0.41631900  1
  C  75  1  0.03394100  0.45107633  0.46824533  1
  C  76  1  0.05701600  0.38072433  0.54115033  1
  C  78  1  0.05284800  0.50259067  0.48031300  1
  C  83  1  0.01130200  0.62972267  0.64158967  1
  C  84  1  0.00465800  0.41770500  0.37374433  1
  C  85  1  0.01203000  0.29395167  0.43071667  1
  C  86  1  0.00482700  0.50594033  0.69853233  1
  C  91  1  0.95472600  0.76007200  0.30047767  1
  C  93  1  0.98382900  0.71673100  0.21000833  1
  C  95  1  0.99090200  0.80787467  0.25653567  1
  C  96  1  0.97349900  0.80794467  0.30329867  1
  C  101  1  0.95434400  0.42770800  0.23781567  1
  C  103  1  0.98412100  0.38063200  0.28117467  1
  C  105  1  0.99132800  0.33601067  0.19003733  1
  C  106  1  0.97326000  0.38266300  0.18995033  1
  C  111  1  0.95433400  0.69768967  0.57021033  1
  C  113  1  0.98448300  0.78809533  0.61730700  1
  C  115  1  0.99068500  0.74157800  0.66193600  1
  C  116  1  0.97247200  0.69484867  0.61528133  1
  C  121  1  0.95388800  0.16360400  0.77193633  1
  C  123  1  0.98365200  0.20693767  0.86236367  1
  C  125  1  0.99028700  0.11578833  0.81585000  1
  C  126  1  0.97257100  0.11572300  0.76910300  1
  C  131  1  0.95438400  0.49586833  0.83442433  1
  C  133  1  0.98385900  0.54297800  0.79108500  1
  C  135  1  0.99060500  0.58761000  0.88223500  1
  C  136  1  0.97300800  0.54092500  0.88230200  1
  C  141  1  0.95428500  0.22599000  0.50205500  1
  C  143  1  0.98447800  0.13557467  0.45495767  1
  C  145  1  0.99115200  0.18211267  0.41035267  1
  C  146  1  0.97297800  0.22883700  0.45701400  1
  H  9  1  0.01536600  0.99548400  0.40375167  1
  H  17  1  0.01500000  0.92818533  0.66856400  1
  H  19  1  0.08105200  0.07831467  0.65233333  1
  H  20  1  0.07153000  0.09565000  0.58635767  1
  H  21  1  0.07306700  0.82814633  0.48606700  1
  H  22  1  0.08267800  0.84549767  0.42007900  1
  H  27  1  0.01745400  0.91104800  0.34155833  1
  H  28  1  0.99181500  0.81318533  0.54410867  1
  H  29  1  0.01653600  0.01260433  0.73078267  1
  H  30  1  0.99111000  0.11049667  0.52815733  1
  H  39  1  0.01518300  0.29573367  0.00242633  1
  H  47  1  0.01425500  0.62791267  0.06989167  1
  H  49  1  0.08126600  0.46160567  0.91978733  1
  H  50  1  0.07171900  0.37827667  0.90240833  1
  H  51  1  0.07165800  0.54539800  0.16990867  1
  H  52  1  0.08156200  0.46206600  0.15252267  1
  H  57  1  0.01737900  0.31790700  0.08684333  1
  H  58  1  0.99064000  0.61842667  0.18487800  1
  H  59  1  0.01639800  0.60574900  0.98547200  1
  H  60  1  0.99068900  0.30523867  0.88746733  1
  H  69  1  0.01404700  0.59422533  0.70222733  1
  H  77  1  0.01445900  0.32943333  0.37006433  1
  H  79  1  0.08098300  0.34573467  0.53639967  1
  H  80  1  0.07137100  0.41169867  0.61972667  1
  H  81  1  0.07063800  0.51201200  0.45256067  1
  H  82  1  0.08016400  0.57796900  0.53586600  1
  H  87  1  0.01594200  0.65645800  0.68004400  1
  H  88  1  0.99023800  0.45384600  0.37946700  1
  H  89  1  0.01666500  0.26721167  0.39226467  1
  H  90  1  0.99062900  0.46978267  0.69279367  1
  H  97  1  0.94369700  0.75757867  0.33308433  1
  H  99  1  0.00637400  0.84119000  0.25589533  1
  H  107  1  0.94293300  0.46279000  0.24029833  1
  H  109  1  0.00676000  0.30205900  0.15670967  1
  H  117  1  0.94271900  0.66509500  0.53513833  1
  H  119  1  0.00575900  0.74218933  0.69590033  1
  H  127  1  0.94237200  0.16607167  0.73933100  1
  H  129  1  0.00594300  0.08246767  0.81646167  1
  H  137  1  0.94322700  0.46077367  0.83193167  1
  H  139  1  0.00601100  0.62156600  0.91555900  1
  H  147  1  0.94281500  0.25857633  0.53714333  1
  H  149  1  0.00643800  0.18150633  0.37640233  1
  N  92  1  0.96285500  0.71606900  0.25445200  1
  N  94  1  0.99662700  0.76251100  0.21153033  1
  N  98  1  0.00182200  0.67343633  0.16450067  1
  N  100  1  0.98590100  0.84939667  0.35066233  1
  N  102  1  0.96267600  0.42570900  0.28182400  1
  N  104  1  0.99713900  0.33637833  0.23540433  1
  N  108  1  0.00203600  0.37846200  0.32449567  1
  N  110  1  0.98546900  0.38861200  0.14851667  1
  N  112  1  0.96306900  0.74368967  0.57221400  1
  N  114  1  0.99703400  0.78657000  0.66157167  1
  N  118  1  0.00284400  0.83357900  0.61950600  1
  N  120  1  0.98439000  0.64745700  0.60933367  1
  N  122  1  0.96227000  0.20760567  0.81794533  1
  N  124  1  0.99645500  0.16115667  0.86083700  1
  N  128  1  0.00200300  0.25022833  0.90784267  1
  N  130  1  0.98482600  0.07427567  0.72173000  1
  N  132  1  0.96273600  0.49788067  0.79042267  1
  N  134  1  0.99656900  0.58724100  0.83686700  1
  N  138  1  0.00188200  0.54517467  0.74778167  1
  N  140  1  0.98512300  0.53501600  0.92376200  1
  N  142  1  0.96292500  0.17998133  0.50004233  1
  N  144  1  0.99728300  0.13711233  0.41070833  1
  N  148  1  0.00269600  0.09009133  0.45277533  1
  N  150  1  0.98492900  0.27623467  0.46297467  1
