# generated using pymatgen
data_Zn3H22(C7O2)6
_symmetry_space_group_name_H-M   'P 1'
_cell_length_a   9.59880000
_cell_length_b   10.95923000
_cell_length_c   25.65473000
_cell_angle_alpha   92.56491000
_cell_angle_beta   90.04130000
_cell_angle_gamma   115.71945000
_symmetry_Int_Tables_number   1
_chemical_formula_structural   Zn3H22(C7O2)6
_chemical_formula_sum   'Zn6 H44 C84 O24'
_cell_volume   2428.34998972
_cell_formula_units_Z   2
loop_
 _symmetry_equiv_pos_site_id
 _symmetry_equiv_pos_as_xyz
  1  'x, y, z'
loop_
 _atom_site_type_symbol
 _atom_site_label
 _atom_site_symmetry_multiplicity
 _atom_site_fract_x
 _atom_site_fract_y
 _atom_site_fract_z
 _atom_site_occupancy
  Zn  Zn0  1  0.46468000  0.82973000  0.52696000  1
  Zn  Zn1  1  0.63047000  0.17016000  0.97289000  1
  Zn  Zn2  1  0.53533000  0.17028000  0.47304000  1
  Zn  Zn3  1  0.36954000  0.82985000  0.02711000  1
  Zn  Zn4  1  0.50001000  0.50000000  0.50000000  1
  Zn  Zn5  1  0.00001000  0.50000000  0.99999000  1
  H  H6  1  0.02093000  0.24592000  0.50356000  1
  H  H7  1  0.21129000  0.01685000  0.58562000  1
  H  H8  1  0.73455000  0.94200000  0.60597000  1
  H  H9  1  0.18178000  0.96479000  0.67328000  1
  H  H10  1  0.13325000  0.81134000  0.74543000  1
  H  H11  1  0.65893000  0.58898000  0.69273000  1
  H  H12  1  0.70951000  0.73915000  0.61974000  1
  H  H13  1  0.01698000  0.76759000  0.82314000  1
  H  H14  1  0.95933000  0.62717000  0.90013000  1
  H  H15  1  0.63691000  0.28266000  0.80911000  1
  H  H16  1  0.69270000  0.42195000  0.73088000  1
  H  H17  1  0.77648000  0.75519000  0.99632000  1
  H  H18  1  0.19524000  0.98221000  0.91499000  1
  H  H19  1  0.79439000  0.05945000  0.89341000  1
  H  H20  1  0.21810000  0.03457000  0.82678000  1
  H  H21  1  0.32243000  0.18787000  0.75464000  1
  H  H22  1  0.07051000  0.41181000  0.80716000  1
  H  H23  1  0.97133000  0.26176000  0.88009000  1
  H  H24  1  0.24840000  0.23164000  0.67682000  1
  H  H25  1  0.33203000  0.37210000  0.59995000  1
  H  H26  1  0.35422000  0.71780000  0.69089000  1
  H  H27  1  0.26980000  0.57825000  0.76904000  1
  H  H28  1  0.97908000  0.75408000  0.49643000  1
  H  H29  1  0.78872000  0.98316000  0.41438000  1
  H  H30  1  0.26546000  0.05801000  0.39403000  1
  H  H31  1  0.81824000  0.03522000  0.32672000  1
  H  H32  1  0.86676000  0.18867000  0.25457000  1
  H  H33  1  0.34109000  0.41103000  0.30727000  1
  H  H34  1  0.29051000  0.26086000  0.38026000  1
  H  H35  1  0.98303000  0.23241000  0.17686000  1
  H  H36  1  0.04069000  0.37284000  0.09987000  1
  H  H37  1  0.36311000  0.71735000  0.19089000  1
  H  H38  1  0.30732000  0.57806000  0.26912000  1
  H  H39  1  0.22354000  0.24481000  0.00368000  1
  H  H40  1  0.80477000  0.01780000  0.08501000  1
  H  H41  1  0.20563000  0.94055000  0.10659000  1
  H  H42  1  0.78191000  0.96543000  0.17322000  1
  H  H43  1  0.67759000  0.81213000  0.24536000  1
  H  H44  1  0.92951000  0.58820000  0.19284000  1
  H  H45  1  0.02868000  0.73825000  0.11991000  1
  H  H46  1  0.75161000  0.76837000  0.32318000  1
  H  H47  1  0.66799000  0.62791000  0.40005000  1
  H  H48  1  0.64580000  0.28220000  0.30911000  1
  H  H49  1  0.73022000  0.42176000  0.23096000  1
  C  C50  1  0.00613000  0.16783000  0.53058000  1
  C  C51  1  0.13116000  0.14047000  0.54340000  1
  C  C52  1  0.11328000  0.03920000  0.57814000  1
  C  C53  1  0.97093000  0.96688000  0.60202000  1
  C  C54  1  0.84639000  0.99463000  0.58810000  1
  C  C55  1  0.86181000  0.09145000  0.55199000  1
  C  C56  1  0.94816000  0.86645000  0.64181000  1
  C  C57  1  0.06723000  0.88224000  0.67727000  1
  C  C58  1  0.03933000  0.79625000  0.71833000  1
  C  C59  1  0.89185000  0.68997000  0.72539000  1
  C  C60  1  0.77448000  0.67009000  0.68846000  1
  C  C61  1  0.80240000  0.75654000  0.64759000  1
  C  C62  1  0.86050000  0.60479000  0.77091000  1
  C  C63  1  0.93650000  0.66067000  0.81922000  1
  C  C64  1  0.90405000  0.58248000  0.86271000  1
  C  C65  1  0.79634000  0.44583000  0.85935000  1
  C  C66  1  0.72045000  0.38866000  0.81133000  1
  C  C67  1  0.75167000  0.46732000  0.76791000  1
  C  C68  1  0.28497000  0.22031000  0.52016000  1
  C  C69  1  0.72093000  0.10465000  0.53476000  1
  C  C70  1  0.75818000  0.36446000  0.90618000  1
  C  C71  1  0.83994000  0.83308000  0.96935000  1
  C  C72  1  0.99208000  0.85994000  0.95690000  1
  C  C73  1  0.07517000  0.96070000  0.92212000  1
  C  C74  1  0.00518000  0.03327000  0.89790000  1
  C  C75  1  0.85308000  0.00622000  0.91153000  1
  C  C76  1  0.77192000  0.90966000  0.94761000  1
  C  C77  1  0.08281000  0.13364000  0.85818000  1
  C  C78  1  0.18605000  0.11751000  0.82279000  1
  C  C79  1  0.24373000  0.20333000  0.78170000  1
  C  C80  1  0.20228000  0.31001000  0.77458000  1
  C  C81  1  0.10505000  0.33036000  0.81147000  1
  C  C82  1  0.04685000  0.24402000  0.85233000  1
  C  C83  1  0.25552000  0.39512000  0.72907000  1
  C  C84  1  0.27526000  0.33884000  0.68076000  1
  C  C85  1  0.32140000  0.41709000  0.63732000  1
  C  C86  1  0.35111000  0.55424000  0.64073000  1
  C  C87  1  0.33181000  0.61158000  0.68868000  1
  C  C88  1  0.28390000  0.53283000  0.73204000  1
  C  C89  1  0.06561000  0.77965000  0.98056000  1
  C  C90  1  0.61779000  0.89565000  0.96492000  1
  C  C91  1  0.39588000  0.63605000  0.59404000  1
  C  C92  1  0.99388000  0.83217000  0.46942000  1
  C  C93  1  0.86886000  0.85953000  0.45659000  1
  C  C94  1  0.88673000  0.96081000  0.42186000  1
  C  C95  1  0.02909000  0.03313000  0.39798000  1
  C  C96  1  0.15362000  0.00538000  0.41190000  1
  C  C97  1  0.13820000  0.90855000  0.44801000  1
  C  C98  1  0.05185000  0.13355000  0.35819000  1
  C  C99  1  0.93279000  0.11776000  0.32273000  1
  C  C100  1  0.96068000  0.20376000  0.28167000  1
  C  C101  1  0.10816000  0.31004000  0.27461000  1
  C  C102  1  0.22554000  0.32991000  0.31154000  1
  C  C103  1  0.19761000  0.24346000  0.35240000  1
  C  C104  1  0.13952000  0.39522000  0.22909000  1
  C  C105  1  0.06352000  0.33933000  0.18078000  1
  C  C106  1  0.09596000  0.41752000  0.13729000  1
  C  C107  1  0.20368000  0.55418000  0.14065000  1
  C  C108  1  0.27956000  0.61134000  0.18867000  1
  C  C109  1  0.24835000  0.53269000  0.23209000  1
  C  C110  1  0.71505000  0.77969000  0.47984000  1
  C  C111  1  0.27908000  0.89535000  0.46524000  1
  C  C112  1  0.24183000  0.63555000  0.09382000  1
  C  C113  1  0.16007000  0.16693000  0.03065000  1
  C  C114  1  0.00793000  0.14006000  0.04310000  1
  C  C115  1  0.92485000  0.03931000  0.07788000  1
  C  C116  1  0.99484000  0.96674000  0.10210000  1
  C  C117  1  0.14693000  0.99378000  0.08847000  1
  C  C118  1  0.22810000  0.09035000  0.05239000  1
  C  C119  1  0.91720000  0.86636000  0.14182000  1
  C  C120  1  0.81396000  0.88250000  0.17721000  1
  C  C121  1  0.75628000  0.79667000  0.21830000  1
  C  C122  1  0.79774000  0.69000000  0.22542000  1
  C  C123  1  0.89497000  0.66965000  0.18853000  1
  C  C124  1  0.95316000  0.75598000  0.14767000  1
  C  C125  1  0.74449000  0.60488000  0.27093000  1
  C  C126  1  0.72475000  0.66116000  0.31924000  1
  C  C127  1  0.67862000  0.58291000  0.36268000  1
  C  C128  1  0.64890000  0.44577000  0.35927000  1
  C  C129  1  0.66821000  0.38843000  0.31132000  1
  C  C130  1  0.71611000  0.46717000  0.26796000  1
  C  C131  1  0.93441000  0.22035000  0.01944000  1
  C  C132  1  0.38222000  0.10435000  0.03508000  1
  C  C133  1  0.60414000  0.36395000  0.40596000  1
  O  O134  1  0.58965000  0.02428000  0.55187000  1
  O  O135  1  0.66506000  0.23826000  0.90108000  1
  O  O136  1  0.38821000  0.17778000  0.52591000  1
  O  O137  1  0.73696000  0.19537000  0.50234000  1
  O  O138  1  0.30432000  0.32888000  0.49772000  1
  O  O139  1  0.81292000  0.41990000  0.95138000  1
  O  O140  1  0.56332000  0.97440000  0.94804000  1
  O  O141  1  0.43134000  0.76285000  0.59912000  1
  O  O142  1  0.21117000  0.82217000  0.97601000  1
  O  O143  1  0.54644000  0.80501000  0.99770000  1
  O  O144  1  0.97510000  0.67041000  0.00216000  1
  O  O145  1  0.39406000  0.58025000  0.54872000  1
  O  O146  1  0.41037000  0.97572000  0.44813000  1
  O  O147  1  0.33495000  0.76175000  0.09892000  1
  O  O148  1  0.61180000  0.82222000  0.47409000  1
  O  O149  1  0.26305000  0.80463000  0.49766000  1
  O  O150  1  0.69569000  0.67112000  0.50228000  1
  O  O151  1  0.18710000  0.58010000  0.04861000  1
  O  O152  1  0.43669000  0.02561000  0.05196000  1
  O  O153  1  0.56867000  0.23716000  0.40088000  1
  O  O154  1  0.78884000  0.17784000  0.02399000  1
  O  O155  1  0.45357000  0.19500000  0.00230000  1
  O  O156  1  0.02492000  0.32959000  0.99784000  1
  O  O157  1  0.60596000  0.41975000  0.45128000  1
