# generated using pymatgen
data_BaCdH4C12(SO4)2
_symmetry_space_group_name_H-M   'P 1'
_cell_length_a   14.13016000
_cell_length_b   20.04661000
_cell_length_c   20.19217000
_cell_angle_alpha   89.79382000
_cell_angle_beta   89.96432000
_cell_angle_gamma   90.00449000
_symmetry_Int_Tables_number   1
_chemical_formula_structural   BaCdH4C12(SO4)2
_chemical_formula_sum   'Ba8 Cd8 H32 C96 S16 O64'
_cell_volume   5719.63239599
_cell_formula_units_Z   8
loop_
 _symmetry_equiv_pos_site_id
 _symmetry_equiv_pos_as_xyz
  1  'x, y, z'
loop_
 _atom_site_type_symbol
 _atom_site_label
 _atom_site_symmetry_multiplicity
 _atom_site_fract_x
 _atom_site_fract_y
 _atom_site_fract_z
 _atom_site_occupancy
  Ba  Ba1  1  0.36778000  0.28068000  0.60260000  1.0
  Ba  Ba2  1  0.13234000  0.78219000  0.39771000  1.0
  Ba  Ba3  1  0.63263000  0.21829000  0.10255000  1.0
  Ba  Ba4  1  0.86733000  0.72017000  0.89712000  1.0
  Ba  Ba5  1  0.63223000  0.71932000  0.39740000  1.0
  Ba  Ba6  1  0.86767000  0.21781000  0.60229000  1.0
  Ba  Ba7  1  0.36738000  0.78171000  0.89746000  1.0
  Ba  Ba8  1  0.13268000  0.27983000  0.10288000  1.0
  Cd  Cd1  1  0.12088000  0.26272000  0.55154000  1.0
  Cd  Cd2  1  0.37895000  0.76358000  0.44854000  1.0
  Cd  Cd3  1  0.87861000  0.23637000  0.05133000  1.0
  Cd  Cd4  1  0.62116000  0.73693000  0.94862000  1.0
  Cd  Cd5  1  0.87913000  0.73728000  0.44846000  1.0
  Cd  Cd6  1  0.62106000  0.23642000  0.55146000  1.0
  Cd  Cd7  1  0.12140000  0.76363000  0.94867000  1.0
  Cd  Cd8  1  0.37885000  0.26308000  0.05139000  1.0
  H  H1  1  0.25541000  0.26597000  0.79718000  1.0
  H  H2  1  0.19524000  0.26218000  0.92092000  1.0
  H  H3  1  0.41131000  0.12672000  0.48622000  1.0
  H  H4  1  0.46187000  0.00526000  0.44763000  1.0
  H  H5  1  0.24463000  0.76682000  0.20242000  1.0
  H  H6  1  0.30485000  0.76181000  0.07879000  1.0
  H  H7  1  0.08882000  0.62694000  0.51376000  1.0
  H  H8  1  0.03798000  0.50538000  0.55207000  1.0
  H  H9  1  0.74416000  0.23306000  0.29717000  1.0
  H  H10  1  0.80441000  0.23825000  0.42057000  1.0
  H  H11  1  0.58802000  0.37334000  0.98650000  1.0
  H  H12  1  0.53747000  0.49472000  0.94760000  1.0
  H  H13  1  0.75588000  0.73398000  0.70315000  1.0
  H  H14  1  0.69552000  0.73767000  0.57966000  1.0
  H  H15  1  0.91197000  0.87359000  0.01364000  1.0
  H  H16  1  0.96248000  0.99485000  0.05268000  1.0
  H  H17  1  0.74460000  0.73403000  0.20282000  1.0
  H  H18  1  0.80477000  0.73782000  0.07908000  1.0
  H  H19  1  0.58870000  0.87328000  0.51379000  1.0
  H  H20  1  0.53814000  0.99474000  0.55238000  1.0
  H  H21  1  0.75538000  0.23318000  0.79758000  1.0
  H  H22  1  0.69516000  0.23819000  0.92122000  1.0
  H  H23  1  0.91119000  0.37306000  0.48624000  1.0
  H  H24  1  0.96203000  0.49462000  0.44794000  1.0
  H  H25  1  0.25585000  0.76694000  0.70283000  1.0
  H  H26  1  0.19560000  0.76175000  0.57943000  1.0
  H  H27  1  0.41199000  0.62666000  0.01351000  1.0
  H  H28  1  0.46254000  0.50528000  0.05240000  1.0
  H  H29  1  0.24413000  0.26602000  0.29686000  1.0
  H  H30  1  0.30449000  0.26233000  0.42034000  1.0
  H  H31  1  0.08804000  0.12641000  0.98637000  1.0
  H  H32  1  0.03753000  0.00515000  0.94732000  1.0
  C  C1  1  0.11523000  0.25112000  0.69346000  1.0
  C  C2  1  0.10898000  0.25115000  0.76600000  1.0
  C  C3  1  0.18195000  0.25926000  0.81154000  1.0
  C  C4  1  0.14995000  0.25777000  0.87764000  1.0
  C  C5  1  0.05262000  0.24872000  0.88188000  1.0
  C  C6  1  0.99289000  0.24427000  0.94138000  1.0
  C  C7  1  0.21592000  0.14542000  0.52477000  1.0
  C  C8  1  0.26939000  0.08698000  0.50200000  1.0
  C  C9  1  0.36441000  0.08384000  0.48410000  1.0
  C  C10  1  0.39142000  0.01943000  0.46381000  1.0
  C  C11  1  0.31698000  0.97410000  0.46680000  1.0
  C  C12  1  0.32027000  0.90183000  0.45370000  1.0
  C  C13  1  0.38475000  0.75352000  0.30647000  1.0
  C  C14  1  0.39091000  0.75207000  0.23392000  1.0
  C  C15  1  0.31805000  0.75980000  0.18820000  1.0
  C  C16  1  0.35009000  0.75756000  0.12215000  1.0
  C  C17  1  0.44738000  0.74826000  0.11811000  1.0
  C  C18  1  0.50712000  0.74385000  0.05866000  1.0
  C  C19  1  0.28408000  0.64585000  0.47519000  1.0
  C  C20  1  0.23077000  0.58719000  0.49799000  1.0
  C  C21  1  0.13566000  0.58400000  0.51573000  1.0
  C  C22  1  0.10850000  0.51944000  0.53589000  1.0
  C  C23  1  0.18288000  0.47410000  0.53317000  1.0
  C  C24  1  0.18059000  0.40190000  0.54750000  1.0
  C  C25  1  0.88419000  0.24655000  0.19268000  1.0
  C  C26  1  0.89040000  0.24797000  0.26530000  1.0
  C  C27  1  0.81762000  0.24018000  0.31116000  1.0
  C  C28  1  0.84970000  0.24243000  0.37720000  1.0
  C  C29  1  0.94698000  0.25169000  0.38128000  1.0
  C  C30  1  0.00716000  0.25599000  0.44065000  1.0
  C  C31  1  0.78396000  0.35428000  0.02394000  1.0
  C  C32  1  0.73045000  0.41286000  0.00111000  1.0
  C  C33  1  0.63516000  0.41610000  0.98388000  1.0
  C  C34  1  0.60816000  0.48053000  0.96322000  1.0
  C  C35  1  0.68285000  0.52568000  0.96491000  1.0
  C  C36  1  0.68055000  0.59776000  0.94996000  1.0
  C  C37  1  0.61561000  0.74898000  0.80738000  1.0
  C  C38  1  0.60941000  0.74880000  0.73475000  1.0
  C  C39  1  0.68233000  0.74068000  0.68908000  1.0
  C  C40  1  0.65027000  0.74214000  0.62299000  1.0
  C  C41  1  0.55297000  0.75119000  0.61872000  1.0
  C  C42  1  0.49293000  0.75565000  0.55927000  1.0
  C  C43  1  0.71597000  0.85460000  0.97650000  1.0
  C  C44  1  0.76970000  0.91311000  0.99900000  1.0
  C  C45  1  0.86492000  0.91637000  0.01629000  1.0
  C  C46  1  0.89189000  0.98069000  0.03687000  1.0
  C  C47  1  0.81725000  0.02590000  0.03474000  1.0
  C  C48  1  0.82022000  0.09804000  0.04880000  1.0
  C  C49  1  0.88478000  0.74888000  0.30655000  1.0
  C  C50  1  0.89103000  0.74886000  0.23400000  1.0
  C  C51  1  0.81806000  0.74074000  0.18846000  1.0
  C  C52  1  0.85006000  0.74223000  0.12236000  1.0
  C  C53  1  0.94739000  0.75128000  0.11812000  1.0
  C  C54  1  0.00712000  0.75573000  0.05862000  1.0
  C  C55  1  0.78409000  0.85458000  0.47523000  1.0
  C  C56  1  0.73062000  0.91302000  0.49801000  1.0
  C  C57  1  0.63560000  0.91616000  0.51591000  1.0
  C  C58  1  0.60859000  0.98057000  0.53619000  1.0
  C  C59  1  0.68303000  0.02590000  0.53321000  1.0
  C  C60  1  0.67974000  0.09817000  0.54630000  1.0
  C  C61  1  0.61526000  0.24648000  0.69353000  1.0
  C  C62  1  0.60910000  0.24793000  0.76608000  1.0
  C  C63  1  0.68196000  0.24020000  0.81181000  1.0
  C  C64  1  0.64992000  0.24244000  0.87786000  1.0
  C  C65  1  0.55263000  0.25174000  0.88189000  1.0
  C  C66  1  0.49289000  0.25615000  0.94134000  1.0
  C  C67  1  0.71593000  0.35415000  0.52481000  1.0
  C  C68  1  0.76924000  0.41281000  0.50201000  1.0
  C  C69  1  0.86435000  0.41600000  0.48427000  1.0
  C  C70  1  0.89151000  0.48056000  0.46411000  1.0
  C  C71  1  0.81713000  0.52590000  0.46683000  1.0
  C  C72  1  0.81942000  0.59810000  0.45250000  1.0
  C  C73  1  0.11582000  0.75345000  0.80732000  1.0
  C  C74  1  0.10961000  0.75203000  0.73470000  1.0
  C  C75  1  0.18239000  0.75982000  0.68884000  1.0
  C  C76  1  0.15031000  0.75757000  0.62280000  1.0
  C  C77  1  0.05303000  0.74831000  0.61872000  1.0
  C  C78  1  0.99285000  0.74401000  0.55935000  1.0
  C  C79  1  0.21605000  0.64572000  0.97606000  1.0
  C  C80  1  0.26956000  0.58714000  0.99890000  1.0
  C  C81  1  0.36485000  0.58390000  0.01612000  1.0
  C  C82  1  0.39185000  0.51947000  0.03678000  1.0
  C  C83  1  0.31716000  0.47432000  0.03509000  1.0
  C  C84  1  0.31946000  0.40224000  0.05004000  1.0
  C  C85  1  0.38440000  0.25102000  0.19263000  1.0
  C  C86  1  0.39060000  0.25120000  0.26525000  1.0
  C  C87  1  0.31768000  0.25932000  0.31093000  1.0
  C  C88  1  0.34973000  0.25786000  0.37701000  1.0
  C  C89  1  0.44703000  0.24882000  0.38129000  1.0
  C  C90  1  0.50708000  0.24435000  0.44073000  1.0
  C  C91  1  0.28404000  0.14540000  0.02351000  1.0
  C  C92  1  0.23031000  0.08689000  0.00100000  1.0
  C  C93  1  0.13509000  0.08363000  0.98371000  1.0
  C  C94  1  0.10812000  0.01931000  0.96313000  1.0
  C  C95  1  0.18276000  0.97410000  0.96527000  1.0
  C  C96  1  0.17979000  0.90196000  0.95121000  1.0
  S  S1  1  0.00086000  0.24165000  0.80485000  1.0
  S  S2  1  0.21339000  0.01085000  0.49364000  1.0
  S  S3  1  0.49900000  0.74168000  0.19529000  1.0
  S  S4  1  0.28664000  0.51102000  0.50657000  1.0
  S  S5  1  0.99851000  0.25835000  0.30394000  1.0
  S  S6  1  0.78661000  0.48880000  0.99143000  1.0
  S  S7  1  0.50129000  0.75828000  0.69589000  1.0
  S  S8  1  0.71360000  0.98914000  0.00806000  1.0
  S  S9  1  0.99915000  0.75835000  0.19516000  1.0
  S  S10  1  0.78662000  0.98915000  0.50637000  1.0
  S  S11  1  0.50101000  0.25832000  0.80471000  1.0
  S  S12  1  0.71337000  0.48898000  0.49344000  1.0
  S  S13  1  0.00150000  0.74165000  0.69607000  1.0
  S  S14  1  0.21340000  0.51120000  0.00857000  1.0
  S  S15  1  0.49872000  0.24172000  0.30411000  1.0
  S  S16  1  0.28641000  0.01086000  0.99195000  1.0
  O  O1  1  0.03864000  0.24282000  0.65960000  1.0
  O  O2  1  0.19581000  0.26001000  0.66622000  1.0
  O  O3  1  0.90534000  0.23220000  0.93528000  1.0
  O  O4  1  0.03301000  0.25240000  0.99831000  1.0
  O  O5  1  0.26216000  0.20121000  0.53189000  1.0
  O  O6  1  0.12807000  0.14138000  0.53554000  1.0
  O  O7  1  0.40134000  0.87552000  0.44417000  1.0
  O  O8  1  0.24239000  0.86881000  0.45426000  1.0
  O  O9  1  0.46112000  0.74440000  0.34040000  1.0
  O  O10  1  0.30455000  0.76427000  0.33361000  1.0
  O  O11  1  0.59434000  0.73057000  0.06464000  1.0
  O  O12  1  0.46723000  0.75365000  0.00183000  1.0
  O  O13  1  0.23723000  0.70127000  0.46784000  1.0
  O  O14  1  0.37205000  0.64257000  0.46454000  1.0
  O  O15  1  0.09988000  0.37443000  0.55571000  1.0
  O  O16  1  0.25950000  0.37023000  0.54935000  1.0
  O  O17  1  0.96037000  0.25568000  0.15852000  1.0
  O  O18  1  0.80406000  0.23582000  0.16546000  1.0
  O  O19  1  0.09428000  0.26911000  0.43411000  1.0
  O  O20  1  0.96778000  0.24630000  0.49787000  1.0
  O  O21  1  0.73712000  0.29881000  0.03124000  1.0
  O  O22  1  0.87182000  0.35771000  0.03462000  1.0
  O  O23  1  0.60007000  0.62484000  0.93974000  1.0
  O  O24  1  0.75926000  0.62979000  0.94963000  1.0
  O  O25  1  0.53918000  0.75728000  0.84144000  1.0
  O  O26  1  0.69613000  0.74021000  0.83473000  1.0
  O  O27  1  0.40548000  0.76758000  0.56588000  1.0
  O  O28  1  0.53268000  0.74763000  0.50202000  1.0
  O  O29  1  0.76221000  0.79877000  0.96946000  1.0
  O  O30  1  0.62818000  0.85869000  0.96591000  1.0
  O  O31  1  0.90075000  0.12430000  0.06039000  1.0
  O  O32  1  0.74239000  0.13111000  0.04703000  1.0
  O  O33  1  0.96137000  0.75718000  0.34040000  1.0
  O  O34  1  0.80420000  0.73999000  0.33378000  1.0
  O  O35  1  0.09467000  0.76780000  0.06473000  1.0
  O  O36  1  0.96700000  0.74760000  0.00169000  1.0
  O  O37  1  0.73785000  0.79879000  0.46811000  1.0
  O  O38  1  0.87194000  0.85862000  0.46446000  1.0
  O  O39  1  0.59867000  0.12448000  0.55583000  1.0
  O  O40  1  0.75762000  0.13119000  0.54575000  1.0
  O  O41  1  0.53889000  0.25560000  0.65960000  1.0
  O  O42  1  0.69546000  0.23573000  0.66640000  1.0
  O  O43  1  0.40567000  0.26943000  0.93536000  1.0
  O  O44  1  0.53278000  0.24635000  0.99818000  1.0
  O  O45  1  0.76278000  0.29873000  0.53216000  1.0
  O  O46  1  0.62796000  0.35743000  0.53546000  1.0
  O  O47  1  0.90013000  0.62557000  0.44429000  1.0
  O  O48  1  0.74051000  0.62977000  0.45066000  1.0
  O  O49  1  0.03964000  0.74432000  0.84149000  1.0
  O  O50  1  0.19595000  0.76418000  0.83455000  1.0
  O  O51  1  0.90573000  0.73089000  0.56589000  1.0
  O  O52  1  0.03223000  0.75370000  0.50213000  1.0
  O  O53  1  0.26289000  0.70119000  0.96876000  1.0
  O  O54  1  0.12819000  0.64230000  0.96538000  1.0
  O  O55  1  0.39994000  0.37516000  0.06027000  1.0
  O  O56  1  0.24075000  0.37021000  0.05037000  1.0
  O  O57  1  0.46083000  0.24272000  0.15856000  1.0
  O  O58  1  0.30388000  0.25979000  0.16527000  1.0
  O  O59  1  0.59453000  0.23242000  0.43412000  1.0
  O  O60  1  0.46733000  0.25237000  0.49798000  1.0
  O  O61  1  0.23780000  0.20123000  0.03054000  1.0
  O  O62  1  0.37183000  0.14132000  0.03409000  1.0
  O  O63  1  0.09926000  0.87570000  0.93961000  1.0
  O  O64  1  0.25762000  0.86889000  0.95298000  1.0
