# generated using pymatgen
data_H7(C5N2)2
_symmetry_space_group_name_H-M   'P 1'
_cell_length_a   25.36530000
_cell_length_b   25.36530000
_cell_length_c   42.46610000
_cell_angle_alpha   90.00000000
_cell_angle_beta   90.00000000
_cell_angle_gamma   90.00000000
_symmetry_Int_Tables_number   1
_chemical_formula_structural   H7(C5N2)2
_chemical_formula_sum   'H224 C320 N128'
_cell_volume   27322.62266657
_cell_formula_units_Z   32
loop_
 _symmetry_equiv_pos_site_id
 _symmetry_equiv_pos_as_xyz
  1  'x, y, z'
loop_
 _atom_site_type_symbol
 _atom_site_label
 _atom_site_symmetry_multiplicity
 _atom_site_fract_x
 _atom_site_fract_y
 _atom_site_fract_z
 _atom_site_occupancy
  H  7  1  0.21065100  0.48116100  0.91764300  1
  H  16  1  0.25662400  0.43359600  0.83126600  1
  H  17  1  0.07283800  0.49771900  0.77992400  1
  H  18  1  0.12710900  0.49098200  0.75935900  1
  H  19  1  0.27467600  0.29779800  0.96957600  1
  H  20  1  0.26998800  0.35287900  0.98967500  1
  H  21  1  0.22322100  0.34090500  0.86586300  1
  H  22  1  0.11729000  0.44861300  0.88366300  1
  H  29  1  0.28885100  0.46969300  0.41765300  1
  H  38  1  0.24292100  0.51730500  0.33125700  1
  H  39  1  0.42673600  0.45308300  0.27998800  1
  H  40  1  0.37250600  0.45984100  0.25939100  1
  H  41  1  0.22477200  0.65303700  0.46960100  1
  H  42  1  0.22946900  0.59795000  0.48969000  1
  H  43  1  0.27628600  0.60995900  0.36587800  1
  H  44  1  0.38218800  0.50222500  0.38371600  1
  H  51  1  0.74378700  0.93668900  0.16756900  1
  H  60  1  0.79020500  0.98270400  0.08128200  1
  H  61  1  0.72606600  0.79870900  0.03011700  1
  H  62  1  0.73187000  0.85311000  0.00959900  1
  H  63  1  0.92721100  0.00067600  0.21944300  1
  H  64  1  0.87215200  0.99603300  0.23955100  1
  H  65  1  0.88399500  0.94914700  0.11573100  1
  H  66  1  0.77773100  0.84293900  0.13347900  1
  H  73  1  0.75569300  0.01440600  0.66759200  1
  H  82  1  0.70933500  0.96833800  0.58129200  1
  H  83  1  0.77306800  0.15242700  0.53010100  1
  H  84  1  0.76733100  0.09800500  0.50959000  1
  H  85  1  0.57224200  0.95051800  0.71945900  1
  H  86  1  0.62730500  0.95513900  0.73957200  1
  H  87  1  0.61551000  0.00188100  0.61573600  1
  H  88  1  0.72171000  0.10811300  0.63348900  1
  H  95  1  0.29152600  0.48202800  0.58118200  1
  H  104  1  0.24389800  0.43621000  0.66761100  1
  H  105  1  0.42735100  0.49999400  0.71953200  1
  H  106  1  0.37227100  0.49537700  0.73962800  1
  H  107  1  0.22712400  0.29821700  0.53000200  1
  H  108  1  0.23399300  0.35241200  0.50937600  1
  H  109  1  0.27630000  0.34284300  0.63368700  1
  H  110  1  0.38413400  0.44868800  0.61580000  1
  H  117  1  0.20803600  0.46881700  0.08119500  1
  H  126  1  0.25570400  0.51467100  0.16759400  1
  H  127  1  0.07227100  0.45090700  0.21956200  1
  H  128  1  0.12736100  0.45550800  0.23964800  1
  H  129  1  0.27251400  0.65258000  0.02995800  1
  H  130  1  0.26563000  0.59836800  0.00935400  1
  H  131  1  0.22326900  0.60804300  0.13366900  1
  H  132  1  0.11542400  0.50224100  0.11581500  1
  H  139  1  0.75660400  0.93404300  0.33126000  1
  H  148  1  0.71199600  0.98180100  0.41753800  1
  H  149  1  0.77587400  0.79826700  0.46938700  1
  H  150  1  0.77232600  0.85354400  0.48934400  1
  H  151  1  0.57276600  0.99849000  0.28011500  1
  H  152  1  0.62695100  0.99167700  0.25948700  1
  H  153  1  0.61744600  0.94915400  0.38380500  1
  H  154  1  0.72172600  0.84103000  0.36606400  1
  H  161  1  0.74298700  0.01703400  0.83125000  1
  H  170  1  0.78760700  0.96927200  0.91753000  1
  H  171  1  0.72398900  0.15286900  0.96940500  1
  H  172  1  0.72751300  0.09759100  0.98936200  1
  H  173  1  0.92685600  0.95276200  0.78007200  1
  H  174  1  0.87264000  0.95950300  0.75946300  1
  H  175  1  0.88216900  0.00194500  0.88378300  1
  H  176  1  0.77788500  0.11004200  0.86604900  1
  H  183  1  0.78828900  0.46944400  0.08200300  1
  H  192  1  0.74232500  0.51557800  0.16825400  1
  H  193  1  0.92653300  0.45226700  0.21948200  1
  H  194  1  0.87205300  0.45773900  0.23996100  1
  H  195  1  0.72461900  0.65297400  0.03013700  1
  H  196  1  0.72918500  0.59790700  0.01002600  1
  H  197  1  0.77596100  0.60964400  0.13385400  1
  H  198  1  0.88218500  0.50368000  0.11609600  1
  H  205  1  0.71134900  0.48162200  0.58198200  1
  H  214  1  0.75724300  0.43548800  0.66827000  1
  H  215  1  0.57297500  0.49887000  0.71939600  1
  H  216  1  0.62741200  0.49340200  0.73991100  1
  H  217  1  0.77512500  0.29807900  0.53016200  1
  H  218  1  0.77053600  0.35313100  0.51004300  1
  H  219  1  0.72368100  0.34145300  0.63387100  1
  H  220  1  0.61747300  0.44742200  0.61603100  1
  H  227  1  0.25635300  0.01244700  0.83202900  1
  H  236  1  0.20999000  0.96788900  0.91817500  1
  H  237  1  0.27383100  0.15205100  0.96924700  1
  H  238  1  0.26817700  0.09765700  0.98977800  1
  H  239  1  0.07256200  0.94908000  0.78029100  1
  H  240  1  0.12782700  0.95240300  0.76031300  1
  H  241  1  0.11565200  0.00315600  0.88359700  1
  H  242  1  0.22214800  0.10760400  0.86590300  1
  H  249  1  0.24325700  0.93837200  0.33203500  1
  H  258  1  0.28956900  0.98302700  0.41816900  1
  H  259  1  0.22621600  0.79878400  0.46932100  1
  H  260  1  0.23177000  0.85321600  0.48982900  1
  H  261  1  0.42704800  0.00161700  0.28025700  1
  H  262  1  0.37177300  0.99830400  0.26028300  1
  H  263  1  0.38396900  0.94773500  0.38359100  1
  H  264  1  0.27756900  0.84325400  0.36593500  1
  H  271  1  0.70864500  0.46851400  0.41829400  1
  H  280  1  0.75622600  0.51296400  0.33205100  1
  H  281  1  0.57247900  0.44974000  0.28019500  1
  H  282  1  0.62777500  0.45306400  0.26024800  1
  H  283  1  0.77271300  0.65243800  0.46946700  1
  H  284  1  0.76603000  0.59821100  0.49007800  1
  H  285  1  0.72346000  0.60774300  0.36578400  1
  H  286  1  0.61544300  0.50362100  0.38354200  1
  H  293  1  0.79094200  0.48252100  0.91829300  1
  H  302  1  0.74325100  0.43811000  0.83206200  1
  H  303  1  0.92698600  0.50128700  0.78016400  1
  H  304  1  0.87167500  0.49800700  0.76023100  1
  H  305  1  0.72671700  0.29863100  0.96947100  1
  H  306  1  0.73347400  0.35284500  0.99008000  1
  H  307  1  0.77598900  0.34331900  0.86576900  1
  H  308  1  0.88408100  0.44735500  0.88351700  1
  H  315  1  0.24233700  0.01508700  0.66822500  1
  H  324  1  0.28694800  0.96881100  0.58206000  1
  H  325  1  0.22331800  0.15252900  0.53034600  1
  H  326  1  0.22676300  0.09729000  0.51035600  1
  H  327  1  0.42659000  0.95141300  0.71925000  1
  H  328  1  0.37219400  0.95696400  0.73979300  1
  H  329  1  0.38203000  0.00310800  0.61592000  1
  H  330  1  0.27742500  0.10947700  0.63364700  1
  H  337  1  0.25718600  0.93574200  0.16821200  1
  H  346  1  0.21256400  0.98208900  0.08207600  1
  H  347  1  0.27580500  0.79832200  0.03026600  1
  H  348  1  0.27243000  0.85359100  0.01029900  1
  H  349  1  0.07292500  0.99912000  0.21932600  1
  H  350  1  0.12736100  0.99362500  0.23984600  1
  H  351  1  0.11743400  0.94770800  0.11595900  1
  H  352  1  0.22198200  0.84136200  0.13361400  1
  H  360  1  0.25768300  0.59947600  0.72965800  1
  H  361  1  0.28897200  0.56941500  0.70043000  1
  H  362  1  0.21900900  0.55154800  0.77306000  1
  H  370  1  0.24196700  0.35143600  0.22963400  1
  H  371  1  0.21067900  0.38150200  0.20040800  1
  H  372  1  0.28060500  0.39935200  0.27305100  1
  H  380  1  0.62421100  0.98338600  0.97963600  1
  H  381  1  0.65432300  0.01438400  0.95031400  1
  H  382  1  0.67211900  0.94497900  0.02315800  1
  H  390  1  0.87535300  0.96798700  0.47960600  1
  H  391  1  0.84529200  0.93690100  0.45029800  1
  H  392  1  0.82739000  0.00633900  0.52312100  1
  H  400  1  0.74196600  0.34968000  0.26991200  1
  H  401  1  0.71106200  0.37977800  0.29927700  1
  H  402  1  0.78025400  0.39762600  0.22635900  1
  H  410  1  0.75745600  0.60136800  0.76994900  1
  H  411  1  0.78836000  0.57126000  0.79930900  1
  H  412  1  0.71920700  0.55344100  0.72637500  1
  H  420  1  0.37593300  0.96755400  0.01986700  1
  H  421  1  0.34580100  0.93683400  0.04928900  1
  H  422  1  0.32804100  0.00572800  0.97626700  1
  H  430  1  0.12358600  0.98305500  0.51988600  1
  H  431  1  0.15365300  0.01386800  0.54929700  1
  H  432  1  0.17156100  0.94492800  0.47630300  1
  H  440  1  0.75743200  0.09993800  0.22960200  1
  H  441  1  0.78874200  0.06988500  0.20038000  1
  H  442  1  0.71884800  0.05202500  0.27303000  1
  H  450  1  0.74211600  0.85115400  0.72959900  1
  H  451  1  0.71074200  0.88119900  0.70039900  1
  H  452  1  0.78075100  0.89907400  0.77301000  1
  H  460  1  0.12559700  0.48296700  0.47955000  1
  H  461  1  0.15564000  0.51451800  0.45041600  1
  H  462  1  0.17351700  0.44422900  0.52293300  1
  H  470  1  0.37393700  0.46770600  0.97957500  1
  H  471  1  0.34387600  0.43620200  0.95042900  1
  H  472  1  0.32603000  0.50653800  0.02293300  1
  H  480  1  0.24210300  0.84916400  0.76990200  1
  H  481  1  0.21118400  0.87926000  0.79926200  1
  H  482  1  0.28034800  0.89709500  0.72633800  1
  H  490  1  0.25742000  0.10163600  0.26992100  1
  H  491  1  0.28837800  0.07154500  0.29926700  1
  H  492  1  0.21916900  0.05370400  0.22635700  1
  H  500  1  0.87458800  0.46778400  0.51990700  1
  H  501  1  0.84454700  0.43655700  0.54916600  1
  H  502  1  0.82663700  0.50631300  0.47647000  1
  H  510  1  0.62503100  0.48334900  0.01993000  1
  H  511  1  0.65509900  0.51456100  0.04918500  1
  H  512  1  0.67295000  0.44473700  0.97650400  1
  H  520  1  0.38338800  0.25784100  0.91590100  1
  H  521  1  0.35268900  0.31558000  0.91438900  1
  H  522  1  0.33592600  0.17483000  0.91433500  1
  H  530  1  0.11621000  0.69320600  0.41600000  1
  H  531  1  0.14682100  0.63542300  0.41446000  1
  H  532  1  0.16379300  0.77614700  0.41443000  1
  H  540  1  0.96744700  0.10914800  0.16585200  1
  H  541  1  0.90964000  0.07859100  0.16424700  1
  H  542  1  0.05034500  0.06149400  0.16439900  1
  H  550  1  0.53227000  0.84180700  0.66587500  1
  H  551  1  0.59003000  0.87246300  0.66431900  1
  H  552  1  0.44929100  0.88932500  0.66432800  1
  H  560  1  0.11628400  0.26001500  0.58342600  1
  H  561  1  0.14724200  0.31760500  0.58510500  1
  H  562  1  0.16335200  0.17678100  0.58507700  1
  H  570  1  0.38319100  0.69099100  0.08332900  1
  H  571  1  0.35230300  0.63336100  0.08502200  1
  H  572  1  0.33602900  0.77416700  0.08498400  1
  H  580  1  0.53428900  0.10902100  0.33349500  1
  H  581  1  0.59193800  0.07818600  0.33524900  1
  H  582  1  0.45115200  0.06178700  0.33502300  1
  H  590  1  0.96510500  0.84202800  0.83341400  1
  H  591  1  0.90750300  0.87295600  0.83513700  1
  H  592  1  0.04831900  0.88912400  0.83503800  1
  H  600  1  0.61603800  0.69329700  0.08365400  1
  H  601  1  0.64650900  0.63545000  0.08535300  1
  H  602  1  0.66382000  0.77613500  0.08504900  1
  H  610  1  0.88352900  0.25759200  0.58363800  1
  H  611  1  0.85314100  0.31548000  0.58535000  1
  H  612  1  0.83562900  0.17482100  0.58502900  1
  H  620  1  0.88328500  0.69107800  0.41606200  1
  H  621  1  0.85253400  0.63338500  0.41428800  1
  H  622  1  0.83592100  0.77414400  0.41459200  1
  H  630  1  0.61625100  0.25987300  0.91617400  1
  H  631  1  0.64694600  0.31759700  0.91439800  1
  H  632  1  0.66369400  0.17684500  0.91462400  1
  H  640  1  0.46737400  0.60874900  0.66600700  1
  H  641  1  0.40960300  0.57812800  0.66436800  1
  H  642  1  0.55033400  0.56118400  0.66451600  1
  H  650  1  0.03209400  0.34225700  0.16604700  1
  H  651  1  0.08989000  0.37282700  0.16439300  1
  H  652  1  0.94917400  0.38989800  0.16458700  1
  H  660  1  0.03444500  0.60851600  0.83330100  1
  H  661  1  0.09205800  0.57760800  0.83502000  1
  H  662  1  0.95124800  0.56138100  0.83488500  1
  H  670  1  0.46515500  0.34237100  0.33329000  1
  H  671  1  0.40752100  0.37324300  0.33501100  1
  H  672  1  0.54832400  0.38955600  0.33492900  1
  C  1  1  0.21530800  0.41502700  0.88775100  1
  C  2  1  0.22104400  0.44212300  0.91650400  1
  C  3  1  0.24084000  0.41643900  0.94356300  1
  C  4  1  0.25334300  0.36158900  0.94260000  1
  C  5  1  0.24797900  0.33442300  0.91331500  1
  C  6  1  0.22913800  0.36129700  0.88643500  1
  C  9  1  0.19094900  0.43934400  0.86140800  1
  C  10  1  0.13747900  0.45404500  0.86297100  1
  C  11  1  0.11046500  0.47283900  0.83614100  1
  C  12  1  0.13725200  0.47739600  0.80667900  1
  C  13  1  0.19202400  0.46441800  0.80547400  1
  C  14  1  0.21770000  0.44437500  0.83249100  1
  C  23  1  0.28418100  0.53583400  0.38776800  1
  C  24  1  0.27843900  0.50872600  0.41651100  1
  C  25  1  0.25865100  0.53441100  0.44357500  1
  C  26  1  0.24616100  0.58926100  0.44261700  1
  C  27  1  0.25150100  0.61641700  0.41333000  1
  C  28  1  0.27027600  0.58954500  0.38643300  1
  C  31  1  0.30856500  0.51152900  0.36142500  1
  C  32  1  0.36201400  0.49675300  0.36302200  1
  C  33  1  0.38904500  0.47799900  0.33619100  1
  C  34  1  0.36230800  0.47347300  0.30671300  1
  C  35  1  0.30753900  0.48646000  0.30548900  1
  C  36  1  0.28183600  0.50650300  0.33250100  1
  C  45  1  0.80989300  0.94131700  0.13765100  1
  C  46  1  0.78282100  0.94708900  0.16641000  1
  C  47  1  0.80853300  0.96687200  0.19346600  1
  C  48  1  0.86340000  0.97930600  0.19248000  1
  C  49  1  0.89053500  0.97394000  0.16318500  1
  C  50  1  0.86363200  0.95511100  0.13630800  1
  C  53  1  0.78550600  0.91686600  0.11135500  1
  C  54  1  0.77150600  0.86320600  0.11289200  1
  C  55  1  0.75235400  0.83618100  0.08615800  1
  C  56  1  0.74676400  0.86311200  0.05680500  1
  C  57  1  0.75937600  0.91798600  0.05558200  1
  C  58  1  0.77970300  0.94370600  0.08252000  1
  C  67  1  0.68960700  0.00971800  0.63766000  1
  C  68  1  0.71666800  0.00398400  0.66642600  1
  C  69  1  0.69094700  0.98421800  0.69348500  1
  C  70  1  0.63608500  0.97176000  0.69249400  1
  C  71  1  0.60895400  0.97716500  0.66319800  1
  C  72  1  0.63588800  0.99586400  0.63630300  1
  C  75  1  0.71398700  0.03417800  0.61136600  1
  C  76  1  0.72793500  0.08785100  0.61289900  1
  C  77  1  0.74700400  0.11491000  0.58616000  1
  C  78  1  0.75265800  0.08797300  0.55680900  1
  C  79  1  0.74008900  0.03308900  0.55558700  1
  C  80  1  0.71979400  0.00734800  0.58252600  1
  C  89  1  0.28566800  0.41643500  0.61137500  1
  C  90  1  0.28068200  0.44312500  0.58243700  1
  C  91  1  0.26062600  0.41741600  0.55543200  1
  C  92  1  0.24753100  0.36267100  0.55669200  1
  C  93  1  0.25203200  0.33594200  0.58617600  1
  C  94  1  0.27089400  0.36298800  0.61297900  1
  C  97  1  0.31002000  0.44080700  0.63770400  1
  C  98  1  0.36375300  0.45462500  0.63637400  1
  C  99  1  0.39065600  0.47341800  0.66325400  1
  C  100  1  0.36351800  0.47880000  0.69254400  1
  C  101  1  0.30865400  0.46637300  0.69351100  1
  C  102  1  0.28294200  0.44657800  0.66645900  1
  C  111  1  0.21389900  0.53443800  0.11136700  1
  C  112  1  0.21888200  0.50772100  0.08243800  1
  C  113  1  0.23893500  0.53341000  0.05542500  1
  C  114  1  0.25201100  0.58816100  0.05666600  1
  C  115  1  0.24753800  0.61489500  0.08615100  1
  C  116  1  0.22872200  0.58787400  0.11297100  1
  C  119  1  0.18955100  0.51009000  0.13770800  1
  C  120  1  0.13582200  0.49625200  0.13637700  1
  C  121  1  0.10893800  0.47751400  0.16327600  1
  C  122  1  0.13608200  0.47213300  0.19256300  1
  C  123  1  0.19095200  0.48453200  0.19351100  1
  C  124  1  0.21665800  0.50430700  0.16645200  1
  C  133  1  0.69101800  0.93986200  0.36147000  1
  C  134  1  0.71770100  0.94487700  0.33252700  1
  C  135  1  0.69197600  0.96493200  0.30552400  1
  C  136  1  0.63721300  0.97795800  0.30679800  1
  C  137  1  0.61050300  0.97345100  0.33629000  1
  C  138  1  0.63756400  0.95459900  0.36309200  1
  C  141  1  0.71546500  0.91545900  0.38776100  1
  C  142  1  0.72850700  0.86152700  0.38650600  1
  C  143  1  0.74771800  0.83466300  0.41329500  1
  C  144  1  0.75427000  0.86202000  0.44242900  1
  C  145  1  0.74222200  0.91698800  0.44337500  1
  C  146  1  0.72207700  0.94268500  0.41640100  1
  C  155  1  0.80857300  0.01120800  0.86145700  1
  C  156  1  0.78189500  0.00620700  0.83251200  1
  C  157  1  0.80762300  0.98618100  0.80550400  1
  C  158  1  0.86238600  0.97316400  0.80677100  1
  C  159  1  0.88911600  0.97774100  0.83625800  1
  C  160  1  0.86202800  0.99647500  0.86307700  1
  C  163  1  0.78413800  0.03561300  0.88775100  1
  C  164  1  0.77112000  0.08954900  0.88649400  1
  C  165  1  0.75198400  0.11642600  0.91329400  1
  C  166  1  0.74539200  0.08907600  0.94242800  1
  C  167  1  0.75744000  0.03410600  0.94337700  1
  C  168  1  0.77754600  0.00839700  0.91639500  1
  C  177  1  0.78368800  0.53553400  0.11193100  1
  C  178  1  0.77790100  0.50848200  0.08317000  1
  C  179  1  0.75813800  0.53423000  0.05612300  1
  C  180  1  0.74575100  0.58910400  0.05711000  1
  C  181  1  0.75116000  0.61622300  0.08640700  1
  C  182  1  0.76996500  0.58928900  0.11327800  1
  C  185  1  0.80821000  0.51117400  0.13820300  1
  C  186  1  0.86193700  0.49743500  0.13668800  1
  C  187  1  0.88900100  0.47834600  0.16341800  1
  C  188  1  0.86206300  0.47255900  0.19275500  1
  C  189  1  0.80713800  0.48494600  0.19395500  1
  C  190  1  0.78136200  0.50522500  0.16702300  1
  C  199  1  0.71595400  0.41554400  0.61192400  1
  C  200  1  0.72175700  0.44258900  0.58316200  1
  C  201  1  0.74152000  0.41682500  0.55611900  1
  C  202  1  0.75391100  0.36195300  0.55711800  1
  C  203  1  0.74851800  0.33486400  0.58642600  1
  C  204  1  0.72973700  0.36180600  0.61329900  1
  C  207  1  0.69139700  0.43991200  0.63818500  1
  C  208  1  0.63769000  0.45371000  0.63662800  1
  C  209  1  0.61057800  0.47276000  0.66335100  1
  C  210  1  0.63747300  0.47852700  0.69270400  1
  C  211  1  0.69239800  0.46614400  0.69393300  1
  C  212  1  0.71821300  0.44586500  0.66701500  1
  C  221  1  0.19004400  0.00917500  0.86184600  1
  C  222  1  0.21721500  0.00244700  0.83319500  1
  C  223  1  0.19142500  0.98235700  0.80623700  1
  C  224  1  0.13641900  0.97047900  0.80722100  1
  C  225  1  0.10911800  0.97715700  0.83636700  1
  C  226  1  0.13606900  0.99634900  0.86313100  1
  C  229  1  0.21459400  0.03368600  0.88806200  1
  C  230  1  0.22847100  0.08737300  0.88649100  1
  C  231  1  0.24760900  0.11446200  0.91321100  1
  C  232  1  0.25327600  0.08757700  0.94257600  1
  C  233  1  0.24078500  0.03268000  0.94382700  1
  C  234  1  0.22047800  0.00688800  0.91690600  1
  C  243  1  0.30956400  0.94171100  0.36184900  1
  C  244  1  0.28239000  0.94839400  0.33319500  1
  C  245  1  0.30817700  0.96844800  0.30622800  1
  C  246  1  0.36317800  0.98035500  0.30720800  1
  C  247  1  0.39049500  0.97365600  0.33634900  1
  C  248  1  0.36352800  0.95458700  0.36313700  1
  C  251  1  0.28504100  0.91719700  0.38807500  1
  C  252  1  0.27123900  0.86349000  0.38652300  1
  C  253  1  0.25219800  0.83638200  0.41325500  1
  C  254  1  0.24645200  0.86329300  0.44261000  1
  C  255  1  0.25887800  0.91821100  0.44384100  1
  C  256  1  0.27913900  0.94401000  0.41691400  1
  C  265  1  0.71436100  0.53411500  0.38809300  1
  C  266  1  0.71945100  0.50742500  0.41702500  1
  C  267  1  0.73949000  0.53317300  0.44402300  1
  C  268  1  0.75244100  0.58794900  0.44276300  1
  C  269  1  0.74782400  0.61468200  0.41328300  1
  C  270  1  0.72898000  0.58760600  0.38648300  1
  C  273  1  0.68987100  0.50970400  0.36182800  1
  C  274  1  0.63590000  0.49684800  0.36308500  1
  C  275  1  0.60899300  0.47767600  0.33630600  1
  C  276  1  0.63632200  0.47100100  0.30717200  1
  C  277  1  0.69132200  0.48288800  0.30622800  1
  C  278  1  0.71707800  0.50299000  0.33319300  1
  C  287  1  0.78515100  0.41692400  0.88809300  1
  C  288  1  0.78010100  0.44361800  0.91702600  1
  C  289  1  0.76006200  0.41787800  0.94402400  1
  C  290  1  0.74709500  0.36310500  0.94276700  1
  C  291  1  0.75164100  0.33640000  0.91327500  1
  C  292  1  0.77040600  0.36347300  0.88645600  1
  C  295  1  0.80963700  0.44132700  0.86182000  1
  C  296  1  0.86360800  0.45419100  0.86307500  1
  C  297  1  0.89051100  0.47331600  0.83628200  1
  C  298  1  0.86316700  0.48001000  0.80715500  1
  C  299  1  0.80815500  0.46816300  0.80623000  1
  C  300  1  0.78240300  0.44807300  0.83319700  1
  C  309  1  0.30813600  0.01061900  0.63810700  1
  C  310  1  0.28135600  0.00467400  0.66695400  1
  C  311  1  0.30717800  0.98438000  0.69386900  1
  C  312  1  0.36209100  0.97194100  0.69260000  1
  C  313  1  0.38896100  0.97768200  0.66323300  1
  C  314  1  0.36184600  0.99684600  0.63653200  1
  C  317  1  0.28352400  0.03508600  0.61189600  1
  C  318  1  0.27056700  0.08903200  0.61319800  1
  C  319  1  0.25136800  0.11597300  0.58642800  1
  C  320  1  0.24477200  0.08868200  0.55727300  1
  C  321  1  0.25673000  0.03369800  0.55628700  1
  C  322  1  0.27686300  0.00792400  0.58323700  1
  C  331  1  0.19136300  0.94023700  0.13811300  1
  C  332  1  0.21816400  0.94615400  0.16695400  1
  C  333  1  0.19235800  0.96641000  0.19388400  1
  C  334  1  0.13744000  0.97883700  0.19263800  1
  C  335  1  0.11053200  0.97304500  0.16328300  1
  C  336  1  0.13765600  0.95403100  0.13655100  1
  C  339  1  0.21594300  0.91578200  0.11188800  1
  C  340  1  0.22883800  0.86181900  0.11316800  1
  C  341  1  0.24793900  0.83487200  0.08638000  1
  C  342  1  0.25459400  0.86219300  0.05723800  1
  C  343  1  0.24267700  0.91719000  0.05626800  1
  C  344  1  0.22260600  0.94296100  0.08323600  1
  C  353  1  0.22218000  0.46861200  0.77752000  1
  C  354  1  0.23257200  0.51749800  0.76294300  1
  C  355  1  0.26104300  0.51945700  0.73432500  1
  C  356  1  0.27835700  0.47076900  0.72138300  1
  C  363  1  0.27741700  0.48228500  0.27752300  1
  C  364  1  0.26704100  0.43340300  0.26293700  1
  C  365  1  0.23858100  0.43145100  0.23431600  1
  C  366  1  0.22125900  0.48014000  0.22137900  1
  C  373  1  0.75505100  0.94808200  0.02759600  1
  C  374  1  0.70617300  0.95843900  0.01300100  1
  C  375  1  0.70423300  0.98667800  0.98428900  1
  C  376  1  0.75292200  0.00384300  0.97127400  1
  C  383  1  0.74446900  0.00298700  0.52760500  1
  C  384  1  0.79335900  0.99276500  0.51298600  1
  C  385  1  0.79534200  0.96454600  0.48427100  1
  C  386  1  0.74668500  0.94724200  0.47128000  1
  C  393  1  0.77706100  0.48055800  0.22193500  1
  C  394  1  0.76679500  0.43166400  0.23653500  1
  C  395  1  0.73866200  0.42970100  0.26527800  1
  C  396  1  0.72154000  0.47838200  0.27832100  1
  C  403  1  0.72242400  0.47050900  0.72193400  1
  C  404  1  0.73267000  0.51939800  0.73654600  1
  C  405  1  0.76079100  0.52135400  0.76529100  1
  C  406  1  0.77792800  0.47266900  0.77832500  1
  C  413  1  0.24510200  0.00267400  0.97184900  1
  C  414  1  0.29397900  0.99237500  0.98646500  1
  C  415  1  0.29590200  0.96436000  0.01525300  1
  C  416  1  0.24720100  0.94737200  0.02833500  1
  C  423  1  0.25448500  0.94824400  0.47185200  1
  C  424  1  0.20559100  0.95840700  0.48648000  1
  C  425  1  0.20361300  0.98641000  0.51527000  1
  C  426  1  0.25227400  0.00354400  0.52833700  1
  C  433  1  0.72206900  0.96910300  0.27752700  1
  C  434  1  0.73242100  0.01797300  0.26292300  1
  C  435  1  0.76087800  0.01992600  0.23429400  1
  C  436  1  0.77824400  0.97125200  0.22135900  1
  C  443  1  0.77751100  0.98199500  0.77751500  1
  C  444  1  0.76715000  0.93312100  0.76291300  1
  C  445  1  0.73864600  0.93116100  0.73430200  1
  C  446  1  0.72123300  0.97983000  0.72137800  1
  C  453  1  0.25643300  0.44755600  0.52746600  1
  C  454  1  0.20755900  0.45790900  0.51286400  1
  C  455  1  0.20559400  0.48653400  0.48430000  1
  C  456  1  0.25426000  0.50406600  0.47143500  1
  C  463  1  0.24311200  0.50325400  0.02746400  1
  C  464  1  0.29198100  0.49287000  0.01286500  1
  C  465  1  0.29392900  0.46426800  0.98429200  1
  C  466  1  0.24525100  0.44678300  0.97142000  1
  C  473  1  0.27716300  0.98002300  0.72189200  1
  C  474  1  0.26689600  0.93114200  0.73650800  1
  C  475  1  0.23876400  0.92918600  0.76525600  1
  C  476  1  0.22161400  0.97785900  0.77829900  1
  C  483  1  0.22240000  0.97078200  0.22189600  1
  C  484  1  0.23264800  0.01966200  0.23651800  1
  C  485  1  0.26080000  0.02162000  0.26526100  1
  C  486  1  0.27798600  0.97295100  0.27829300  1
  C  493  1  0.74370500  0.50308900  0.47201000  1
  C  494  1  0.79259400  0.49276300  0.48660000  1
  C  495  1  0.79456900  0.46437000  0.51524700  1
  C  496  1  0.74589700  0.44705900  0.52821500  1
  C  503  1  0.75587500  0.44796200  0.97201600  1
  C  504  1  0.70700100  0.45829500  0.98662100  1
  C  505  1  0.70505300  0.48667600  0.01527400  1
  C  506  1  0.75373800  0.50396800  0.02822900  1
  C  513  1  0.25302700  0.16973800  0.91045400  1
  C  514  1  0.30183700  0.19618300  0.91233800  1
  C  515  1  0.30336600  0.25198500  0.91247700  1
  C  516  1  0.25444300  0.27916300  0.91061200  1
  C  523  1  0.24669600  0.78111800  0.41050900  1
  C  524  1  0.19784800  0.75474300  0.41241200  1
  C  525  1  0.19623600  0.69894300  0.41253400  1
  C  526  1  0.24511600  0.67169300  0.41064600  1
  C  533  1  0.05526400  0.97858400  0.16051500  1
  C  534  1  0.02892100  0.02745400  0.16236700  1
  C  535  1  0.97312000  0.02911400  0.16241200  1
  C  536  1  0.94582700  0.98025600  0.16050800  1
  C  543  1  0.44423700  0.97222100  0.66044300  1
  C  544  1  0.47066200  0.92339500  0.66229600  1
  C  545  1  0.52646700  0.92183000  0.66239000  1
  C  546  1  0.55367700  0.97073100  0.66050400  1
  C  553  1  0.24622500  0.17129900  0.58898600  1
  C  554  1  0.19753500  0.19797200  0.58712300  1
  C  555  1  0.19625000  0.25378000  0.58706400  1
  C  556  1  0.24527200  0.28073800  0.58909900  1
  C  563  1  0.25315200  0.77955300  0.08892200  1
  C  564  1  0.30187300  0.75293800  0.08704400  1
  C  565  1  0.30322200  0.69712900  0.08699700  1
  C  566  1  0.25423300  0.67011200  0.08904600  1
  C  573  1  0.44581700  0.97890400  0.33891500  1
  C  574  1  0.47240100  0.02764500  0.33709300  1
  C  575  1  0.52821000  0.02904100  0.33712300  1
  C  576  1  0.55526600  0.98007100  0.33917900  1
  C  583  1  0.05378600  0.97199300  0.83894000  1
  C  584  1  0.02712000  0.92329600  0.83711300  1
  C  585  1  0.97131100  0.92198700  0.83710400  1
  C  586  1  0.94433300  0.97100300  0.83915200  1
  C  593  1  0.74673600  0.78092900  0.08893200  1
  C  594  1  0.69782300  0.75466400  0.08710200  1
  C  595  1  0.69607700  0.69886800  0.08711900  1
  C  596  1  0.74488700  0.67150800  0.08909100  1
  C  603  1  0.75270900  0.17015000  0.58893400  1
  C  604  1  0.80165800  0.19634200  0.58709700  1
  C  605  1  0.80348700  0.25213600  0.58712800  1
  C  606  1  0.75471600  0.27956700  0.58910800  1
  C  613  1  0.75302400  0.77935200  0.41074400  1
  C  614  1  0.80181100  0.75284300  0.41253400  1
  C  615  1  0.80329400  0.69704200  0.41246800  1
  C  616  1  0.75435700  0.66992300  0.41042200  1
  C  623  1  0.74659000  0.17172700  0.91073400  1
  C  624  1  0.69778000  0.19818400  0.91253600  1
  C  625  1  0.69624200  0.25398500  0.91248600  1
  C  626  1  0.74514700  0.28115100  0.91041900  1
  C  633  1  0.55532900  0.47828700  0.66057400  1
  C  634  1  0.52894300  0.52712500  0.66246500  1
  C  635  1  0.47314600  0.52873000  0.66251500  1
  C  636  1  0.44591600  0.47984800  0.66056300  1
  C  643  1  0.94425800  0.47280700  0.16067400  1
  C  644  1  0.97059700  0.42393700  0.16253700  1
  C  645  1  0.02639300  0.42228100  0.16256300  1
  C  646  1  0.05366700  0.47114300  0.16060900  1
  C  653  1  0.94583100  0.47850800  0.83881300  1
  C  654  1  0.97246600  0.52721600  0.83694800  1
  C  655  1  0.02826900  0.52854900  0.83694100  1
  C  656  1  0.05525100  0.47954100  0.83898500  1
  C  663  1  0.55368500  0.47243300  0.33886100  1
  C  664  1  0.52708600  0.42370500  0.33701000  1
  C  665  1  0.47128100  0.42233700  0.33699800  1
  C  666  1  0.44426000  0.47132500  0.33905200  1
  N  8  1  0.26807100  0.33545900  0.96935500  1
  N  15  1  0.11050200  0.49113900  0.77993600  1
  N  30  1  0.23145700  0.61539200  0.46937900  1
  N  37  1  0.38909000  0.45977700  0.27997400  1
  N  52  1  0.88956900  0.99396400  0.21923900  1
  N  59  1  0.73263400  0.83637400  0.03013000  1
  N  74  1  0.60991200  0.95707900  0.71924700  1
  N  81  1  0.76676800  0.11471800  0.53013200  1
  N  96  1  0.23377600  0.33587000  0.52997100  1
  N  103  1  0.38967700  0.49347300  0.71930600  1
  N  118  1  0.26574800  0.61495000  0.02993900  1
  N  125  1  0.10993300  0.45749900  0.21933400  1
  N  140  1  0.61038900  0.99165700  0.28007500  1
  N  147  1  0.76943300  0.83594900  0.46912300  1
  N  162  1  0.88921400  0.95945600  0.78005100  1
  N  169  1  0.73024900  0.11515600  0.96912400  1
  N  184  1  0.73111700  0.61529700  0.03035300  1
  N  191  1  0.88880400  0.45844100  0.21943400  1
  N  206  1  0.76853400  0.33574000  0.53036700  1
  N  213  1  0.61068800  0.49260200  0.71937700  1
  N  228  1  0.11026800  0.95537900  0.78054100  1
  N  235  1  0.26735200  0.11437400  0.96924200  1
  N  250  1  0.38931900  0.99546200  0.28052300  1
  N  257  1  0.23240600  0.83650800  0.46928500  1
  N  272  1  0.76615300  0.61476900  0.46948800  1
  N  279  1  0.61021100  0.45587800  0.28048000  1
  N  294  1  0.73341100  0.33627400  0.96949200  1
  N  301  1  0.88926200  0.49509700  0.78045400  1
  N  316  1  0.38890400  0.95784700  0.71925700  1
  N  323  1  0.22967300  0.11483400  0.53059100  1
  N  338  1  0.11065100  0.99292300  0.21930500  1
  N  345  1  0.26965800  0.83605100  0.03054400  1
  N  357  1  0.26714300  0.42542700  0.73705700  1
  N  358  1  0.24064900  0.42430800  0.76342400  1
  N  359  1  0.27031900  0.56676600  0.72034900  1
  N  367  1  0.23245000  0.52547700  0.23706200  1
  N  368  1  0.25893500  0.52659300  0.26343400  1
  N  369  1  0.22932500  0.38414500  0.22032900  1
  N  377  1  0.79824800  0.99266700  0.98697600  1
  N  378  1  0.79935900  0.96635500  0.01340900  1
  N  379  1  0.65693600  0.99590700  0.97029200  1
  N  387  1  0.70135100  0.95826900  0.48700800  1
  N  388  1  0.70020000  0.98457300  0.51344300  1
  N  389  1  0.84264300  0.95545800  0.47024800  1
  N  397  1  0.73260700  0.52372300  0.26261000  1
  N  398  1  0.75882400  0.52485800  0.23614600  1
  N  399  1  0.72948000  0.38239900  0.27927900  1
  N  407  1  0.76689000  0.42733900  0.76259700  1
  N  408  1  0.74068900  0.42621200  0.73613100  1
  N  409  1  0.76994900  0.56865100  0.77930700  1
  N  417  1  0.20188000  0.95847400  0.01261000  1
  N  418  1  0.20078100  0.98458500  0.98610500  1
  N  419  1  0.34319900  0.95515900  0.02925800  1
  N  427  1  0.29761200  0.99258800  0.51259300  1
  N  428  1  0.29876400  0.96647700  0.48608900  1
  N  429  1  0.15630200  0.99546200  0.52929600  1
  N  437  1  0.76707100  0.92592200  0.23706200  1
  N  438  1  0.74059000  0.92480600  0.26343900  1
  N  439  1  0.77009900  0.06723500  0.22030100  1
  N  447  1  0.73243300  0.02516200  0.73707300  1
  N  448  1  0.75895400  0.02628400  0.76343500  1
  N  449  1  0.72942500  0.88385300  0.72030900  1
  N  457  1  0.29959300  0.49287400  0.48712500  1
  N  458  1  0.30071900  0.46624700  0.51344500  1
  N  459  1  0.15829300  0.49574800  0.47029500  1
  N  467  1  0.19992500  0.45799200  0.98711300  1
  N  468  1  0.19881400  0.48460700  0.01343800  1
  N  469  1  0.34122500  0.45503100  0.97028800  1
  N  477  1  0.23267900  0.02318500  0.76257100  1
  N  478  1  0.25889100  0.02431300  0.73610100  1
  N  479  1  0.22960500  0.88188100  0.77926500  1
  N  487  1  0.26692100  0.92762500  0.26256300  1
  N  488  1  0.24069500  0.92649400  0.23609900  1
  N  489  1  0.26994100  0.06892100  0.27927500  1
  N  497  1  0.70055100  0.45821600  0.51252700  1
  N  498  1  0.69941200  0.48463400  0.48613200  1
  N  499  1  0.84188600  0.45516100  0.52923200  1
  N  507  1  0.79907200  0.49282700  0.01252300  1
  N  508  1  0.80018300  0.46640900  0.98612400  1
  N  509  1  0.65774900  0.49588600  0.02927300  1
  N  517  1  0.20931700  0.25053500  0.90858200  1
  N  518  1  0.20852900  0.19914900  0.90850200  1
  N  519  1  0.35040700  0.27734100  0.91467900  1
  N  527  1  0.29027800  0.70025500  0.40857800  1
  N  528  1  0.29114300  0.75164100  0.40850500  1
  N  529  1  0.14916100  0.67365600  0.41475700  1
  N  537  1  0.97436600  0.93507200  0.15847000  1
  N  538  1  0.02575200  0.93416500  0.15846000  1
  N  539  1  0.94787300  0.07621400  0.16459500  1
  N  547  1  0.52507500  0.01587300  0.65849000  1
  N  548  1  0.47368600  0.01669300  0.65845500  1
  N  549  1  0.55178900  0.87476900  0.66457100  1
  N  557  1  0.29026600  0.25190300  0.59112600  1
  N  558  1  0.29083200  0.20051200  0.59111400  1
  N  559  1  0.14934500  0.27935700  0.58476600  1
  N  567  1  0.20921100  0.69889900  0.09110500  1
  N  568  1  0.20858400  0.75028800  0.09109100  1
  N  569  1  0.35015400  0.67161000  0.08468100  1
  N  577  1  0.52650600  0.93502900  0.34120400  1
  N  578  1  0.47511300  0.93436300  0.34112900  1
  N  579  1  0.55369300  0.07600000  0.33485600  1
  N  587  1  0.97316000  0.01600400  0.84116100  1
  N  588  1  0.02455200  0.01658500  0.84110700  1
  N  589  1  0.94575200  0.87507300  0.83483400  1
  N  597  1  0.79012200  0.69997600  0.09105700  1
  N  598  1  0.79111200  0.75135700  0.09100400  1
  N  599  1  0.64894100  0.67368000  0.08495300  1
  N  607  1  0.70944500  0.25116200  0.59110000  1
  N  608  1  0.70838100  0.19978100  0.59104400  1
  N  609  1  0.85065800  0.27725600  0.58494500  1
  N  617  1  0.70926800  0.69860800  0.40841800  1
  N  618  1  0.70852300  0.74999700  0.40851900  1
  N  619  1  0.85029100  0.67162200  0.41470500  1
  N  627  1  0.79026800  0.25251500  0.90841200  1
  N  628  1  0.79106500  0.20112800  0.90851400  1
  N  629  1  0.64921700  0.27935800  0.91473300  1
  N  637  1  0.47448300  0.43468800  0.65854000  1
  N  638  1  0.52586800  0.43383300  0.65853300  1
  N  639  1  0.44784000  0.57579800  0.66472400  1
  N  647  1  0.02513500  0.51632700  0.15858200  1
  N  648  1  0.97375500  0.51723000  0.15859300  1
  N  649  1  0.05165800  0.37519300  0.16476100  1
  N  657  1  0.02645500  0.43453000  0.84106000  1
  N  658  1  0.97506800  0.43392700  0.84102000  1
  N  659  1  0.05381200  0.57547100  0.83465200  1
  N  667  1  0.47303200  0.51635900  0.34109400  1
  N  668  1  0.52441700  0.51699300  0.34104600  1
  N  669  1  0.44576600  0.37539600  0.33471700  1
