# generated using pymatgen
data_CuH4(C7O2)2
_symmetry_space_group_name_H-M   'P 1'
_cell_length_a   34.98949000
_cell_length_b   34.99936000
_cell_length_c   34.99968045
_cell_angle_alpha   60.18270528
_cell_angle_beta   89.70935372
_cell_angle_gamma   119.88458000
_symmetry_Int_Tables_number   1
_chemical_formula_structural   CuH4(C7O2)2
_chemical_formula_sum   'Cu24 H96 C336 O96'
_cell_volume   30366.60551537
_cell_formula_units_Z   24
loop_
 _symmetry_equiv_pos_site_id
 _symmetry_equiv_pos_as_xyz
  1  'x, y, z'
loop_
 _atom_site_type_symbol
 _atom_site_label
 _atom_site_symmetry_multiplicity
 _atom_site_fract_x
 _atom_site_fract_y
 _atom_site_fract_z
 _atom_site_occupancy
  Cu  Cu1  1  0.99656000  0.23067000  0.00156000  1.0
  Cu  Cu2  1  0.99662000  0.30047000  0.00177000  1.0
  Cu  Cu3  1  0.76624000  0.76895000  0.23148000  1.0
  Cu  Cu4  1  0.69609000  0.69958000  0.30120000  1.0
  Cu  Cu5  1  0.23289000  0.23247000  0.76800000  1.0
  Cu  Cu6  1  0.30309000  0.30235000  0.69822000  1.0
  Cu  Cu7  1  0.99991000  0.76734000  0.00036000  1.0
  Cu  Cu8  1  0.99970000  0.69720000  0.00046000  1.0
  Cu  Cu9  1  0.00092000  0.00001000  0.23312000  1.0
  Cu  Cu10  1  0.00019000  0.99990000  0.30311000  1.0
  Cu  Cu11  1  0.23161000  0.99725000  0.00005000  1.0
  Cu  Cu12  1  0.30187000  0.99789000  0.00023000  1.0
  Cu  Cu13  1  0.76691000  0.00128000  0.99809000  1.0
  Cu  Cu14  1  0.69679000  0.00105000  0.99766000  1.0
  Cu  Cu15  1  0.00036000  0.00011000  0.76738000  1.0
  Cu  Cu16  1  0.00166000  0.00036000  0.69723000  1.0
  Cu  Cu17  1  0.23022000  0.23132000  0.00013000  1.0
  Cu  Cu18  1  0.30027000  0.30114000  0.00007000  1.0
  Cu  Cu19  1  0.00072000  0.23294000  0.76679000  1.0
  Cu  Cu20  1  0.00114000  0.30319000  0.69708000  1.0
  Cu  Cu21  1  0.99925000  0.76775000  0.23335000  1.0
  Cu  Cu22  1  0.99887000  0.69781000  0.30322000  1.0
  Cu  Cu23  1  0.76709000  0.76807000  0.99918000  1.0
  Cu  Cu24  1  0.69740000  0.69807000  0.99918000  1.0
  H  H1  1  0.85068000  0.24221000  0.02623000  1.0
  H  H2  1  0.73061000  0.75925000  0.38595000  1.0
  H  H3  1  0.38897000  0.24372000  0.73281000  1.0
  H  H4  1  0.02997000  0.75965000  0.85464000  1.0
  H  H5  1  0.03131000  0.88502000  0.38655000  1.0
  H  H6  1  0.38320000  0.11374000  0.03117000  1.0
  H  H7  1  0.72976000  0.11580000  0.85099000  1.0
  H  H8  1  0.85656000  0.88339000  0.72978000  1.0
  H  H9  1  0.38582000  0.41328000  0.85590000  1.0
  H  H10  1  0.02790000  0.41377000  0.73159000  1.0
  H  H11  1  0.85416000  0.58916000  0.38841000  1.0
  H  H12  1  0.73050000  0.58520000  0.02868000  1.0
  H  H13  1  0.27043000  0.88187000  0.96855000  1.0
  H  H14  1  0.14739000  0.11620000  0.61435000  1.0
  H  H15  1  0.97126000  0.11680000  0.27047000  1.0
  H  H16  1  0.61524000  0.88907000  0.14495000  1.0
  H  H17  1  0.27078000  0.41500000  0.61264000  1.0
  H  H18  1  0.14348000  0.41434000  0.97140000  1.0
  H  H19  1  0.97672000  0.58848000  0.14449000  1.0
  H  H20  1  0.61323000  0.58358000  0.26973000  1.0
  H  H21  1  0.27089000  0.23978000  0.14663000  1.0
  H  H22  1  0.14423000  0.75697000  0.26975000  1.0
  H  H23  1  0.97645000  0.24421000  0.61090000  1.0
  H  H24  1  0.61515000  0.76292000  0.96584000  1.0
  H  H25  1  0.14629000  0.75871000  0.96897000  1.0
  H  H26  1  0.26946000  0.24226000  0.61303000  1.0
  H  H27  1  0.61368000  0.76433000  0.26841000  1.0
  H  H28  1  0.97236000  0.24072000  0.14677000  1.0
  H  H29  1  0.97945000  0.12285000  0.60923000  1.0
  H  H30  1  0.61417000  0.88532000  0.96737000  1.0
  H  H31  1  0.26707000  0.87667000  0.14520000  1.0
  H  H32  1  0.14622000  0.11901000  0.26943000  1.0
  H  H33  1  0.61336000  0.58526000  0.14523000  1.0
  H  H34  1  0.97410000  0.58701000  0.26892000  1.0
  H  H35  1  0.14830000  0.41730000  0.61259000  1.0
  H  H36  1  0.26619000  0.41231000  0.97169000  1.0
  H  H37  1  0.72919000  0.12128000  0.02189000  1.0
  H  H38  1  0.85441000  0.87913000  0.38911000  1.0
  H  H39  1  0.02927000  0.88179000  0.73096000  1.0
  H  H40  1  0.38780000  0.11793000  0.85486000  1.0
  H  H41  1  0.72971000  0.58758000  0.38843000  1.0
  H  H42  1  0.85395000  0.58467000  0.02940000  1.0
  H  H43  1  0.02773000  0.41480000  0.85472000  1.0
  H  H44  1  0.38834000  0.41510000  0.73134000  1.0
  H  H45  1  0.73192000  0.75838000  0.85260000  1.0
  H  H46  1  0.85463000  0.24072000  0.72827000  1.0
  H  H47  1  0.03061000  0.76049000  0.38766000  1.0
  H  H48  1  0.38230000  0.23751000  0.02999000  1.0
  H  H49  1  0.85649000  0.13052000  0.01053000  1.0
  H  H50  1  0.85969000  0.87127000  0.27046000  1.0
  H  H51  1  0.27154000  0.12974000  0.86046000  1.0
  H  H52  1  0.00857000  0.86817000  0.85975000  1.0
  H  H53  1  0.01429000  0.87144000  0.27121000  1.0
  H  H54  1  0.26875000  0.12817000  0.00954000  1.0
  H  H55  1  0.85852000  0.12991000  0.85715000  1.0
  H  H56  1  0.85860000  0.86965000  0.85886000  1.0
  H  H57  1  0.26922000  0.28393000  0.85742000  1.0
  H  H58  1  0.00882000  0.28040000  0.86066000  1.0
  H  H59  1  0.85789000  0.72033000  0.27190000  1.0
  H  H60  1  0.85840000  0.71724000  0.01306000  1.0
  H  H61  1  0.14203000  0.86907000  0.98820000  1.0
  H  H62  1  0.14206000  0.12721000  0.73115000  1.0
  H  H63  1  0.98675000  0.12739000  0.14281000  1.0
  H  H64  1  0.72756000  0.87089000  0.13902000  1.0
  H  H65  1  0.14129000  0.28207000  0.72755000  1.0
  H  H66  1  0.13663000  0.27938000  0.99064000  1.0
  H  H67  1  0.98734000  0.71764000  0.14201000  1.0
  H  H68  1  0.72694000  0.71984000  0.14013000  1.0
  H  H69  1  0.14190000  0.13084000  0.14128000  1.0
  H  H70  1  0.14053000  0.86880000  0.14145000  1.0
  H  H71  1  0.99198000  0.13217000  0.72709000  1.0
  H  H72  1  0.72874000  0.87081000  0.98721000  1.0
  H  H73  1  0.73027000  0.34508000  0.04414000  1.0
  H  H74  1  0.60690000  0.65323000  0.61365000  1.0
  H  H75  1  0.61114000  0.34398000  0.60870000  1.0
  H  H76  1  0.05055000  0.65585000  0.73287000  1.0
  H  H77  1  0.04708000  0.77874000  0.61325000  1.0
  H  H78  1  0.60546000  0.21909000  0.04855000  1.0
  H  H79  1  0.60797000  0.21603000  0.72983000  1.0
  H  H80  1  0.73071000  0.78461000  0.60433000  1.0
  H  H81  1  0.61279000  0.66120000  0.73287000  1.0
  H  H82  1  0.04686000  0.65750000  0.60876000  1.0
  H  H83  1  0.73355000  0.34187000  0.60859000  1.0
  H  H84  1  0.60531000  0.34191000  0.04951000  1.0
  H  H85  1  0.39198000  0.78244000  0.94615000  1.0
  H  H86  1  0.26835000  0.21871000  0.39099000  1.0
  H  H87  1  0.95206000  0.22023000  0.39014000  1.0
  H  H88  1  0.38958000  0.78467000  0.26949000  1.0
  H  H89  1  0.39651000  0.66797000  0.39162000  1.0
  H  H90  1  0.26789000  0.65582000  0.95053000  1.0
  H  H91  1  0.95055000  0.34189000  0.26737000  1.0
  H  H92  1  0.39294000  0.34029000  0.39131000  1.0
  H  H93  1  0.39340000  0.33753000  0.26930000  1.0
  H  H94  1  0.26699000  0.65500000  0.39357000  1.0
  H  H95  1  0.95222000  0.34398000  0.38975000  1.0
  H  H96  1  0.39192000  0.65711000  0.95000000  1.0
  C  C1  1  0.90901000  0.21618000  0.01472000  1.0
  C  C2  1  0.85860000  0.18906000  0.01826000  1.0
  C  C3  1  0.83359000  0.20817000  0.02368000  1.0
  C  C4  1  0.76938000  0.78564000  0.30256000  1.0
  C  C5  1  0.79269000  0.81269000  0.32589000  1.0
  C  C6  1  0.76725000  0.79323000  0.36974000  1.0
  C  C7  1  0.30540000  0.21765000  0.77153000  1.0
  C  C8  1  0.32811000  0.18959000  0.79426000  1.0
  C  C9  1  0.37195000  0.20876000  0.76898000  1.0
  C  C10  1  0.01255000  0.78245000  0.91311000  1.0
  C  C11  1  0.01858000  0.81095000  0.86222000  1.0
  C  C12  1  0.02698000  0.79334000  0.83712000  1.0
  C  C13  1  0.01680000  0.92811000  0.30405000  1.0
  C  C14  1  0.02283000  0.88321000  0.32645000  1.0
  C  C15  1  0.02937000  0.86519000  0.36990000  1.0
  C  C16  1  0.30194000  0.07087000  0.01475000  1.0
  C  C17  1  0.32378000  0.11624000  0.02020000  1.0
  C  C18  1  0.36655000  0.13384000  0.02821000  1.0
  C  C19  1  0.76884000  0.07370000  0.90988000  1.0
  C  C20  1  0.79178000  0.11833000  0.85887000  1.0
  C  C21  1  0.76646000  0.13583000  0.83356000  1.0
  C  C22  1  0.91313000  0.92753000  0.76894000  1.0
  C  C23  1  0.86251000  0.88145000  0.79177000  1.0
  C  C24  1  0.83831000  0.86338000  0.76620000  1.0
  C  C25  1  0.30198000  0.31797000  0.91220000  1.0
  C  C26  1  0.32519000  0.34627000  0.86147000  1.0
  C  C27  1  0.36936000  0.39543000  0.83754000  1.0
  C  C28  1  0.01344000  0.31708000  0.77039000  1.0
  C  C29  1  0.01837000  0.34469000  0.79355000  1.0
  C  C30  1  0.02562000  0.39504000  0.76808000  1.0
  C  C31  1  0.91166000  0.68454000  0.30504000  1.0
  C  C32  1  0.86097000  0.65722000  0.32790000  1.0
  C  C33  1  0.83628000  0.60758000  0.37164000  1.0
  C  C34  1  0.76884000  0.68163000  0.01493000  1.0
  C  C35  1  0.79187000  0.65371000  0.02057000  1.0
  C  C36  1  0.76689000  0.60385000  0.02683000  1.0
  C  C37  1  0.23116000  0.92496000  0.98472000  1.0
  C  C38  1  0.20855000  0.88001000  0.97874000  1.0
  C  C39  1  0.23380000  0.86215000  0.97116000  1.0
  C  C40  1  0.08903000  0.07204000  0.69694000  1.0
  C  C41  1  0.13985000  0.11736000  0.67477000  1.0
  C  C42  1  0.16479000  0.13626000  0.63092000  1.0
  C  C43  1  0.98478000  0.07218000  0.23187000  1.0
  C  C44  1  0.97930000  0.11751000  0.20899000  1.0
  C  C45  1  0.97315000  0.13622000  0.23408000  1.0
  C  C46  1  0.69564000  0.92876000  0.08588000  1.0
  C  C47  1  0.67353000  0.88448000  0.13700000  1.0
  C  C48  1  0.63123000  0.86833000  0.16244000  1.0
  C  C49  1  0.23112000  0.31786000  0.69508000  1.0
  C  C50  1  0.20853000  0.34608000  0.67245000  1.0
  C  C51  1  0.23433000  0.39653000  0.62937000  1.0
  C  C52  1  0.08441000  0.31660000  0.98702000  1.0
  C  C53  1  0.13530000  0.34451000  0.98113000  1.0
  C  C54  1  0.16074000  0.39500000  0.97372000  1.0
  C  C55  1  0.98726000  0.68279000  0.08771000  1.0
  C  C56  1  0.98236000  0.65549000  0.13834000  1.0
  C  C57  1  0.97759000  0.60649000  0.16264000  1.0
  C  C58  1  0.69415000  0.68255000  0.23020000  1.0
  C  C59  1  0.67219000  0.65435000  0.20736000  1.0
  C  C60  1  0.62970000  0.60321000  0.23292000  1.0
  C  C61  1  0.23114000  0.21667000  0.08802000  1.0
  C  C62  1  0.20864000  0.18826000  0.13899000  1.0
  C  C63  1  0.23412000  0.20616000  0.16407000  1.0
  C  C64  1  0.08662000  0.78243000  0.23095000  1.0
  C  C65  1  0.13733000  0.81000000  0.20798000  1.0
  C  C66  1  0.16182000  0.79072000  0.23308000  1.0
  C  C67  1  0.98889000  0.21829000  0.69434000  1.0
  C  C68  1  0.98485000  0.19106000  0.67105000  1.0
  C  C69  1  0.97907000  0.21023000  0.62726000  1.0
  C  C70  1  0.69638000  0.78538000  0.98294000  1.0
  C  C71  1  0.67432000  0.81437000  0.97655000  1.0
  C  C72  1  0.63161000  0.79691000  0.96844000  1.0
  C  C73  1  0.08802000  0.78294000  0.98483000  1.0
  C  C74  1  0.13901000  0.81115000  0.97885000  1.0
  C  C75  1  0.16393000  0.79290000  0.97132000  1.0
  C  C76  1  0.23113000  0.21518000  0.69740000  1.0
  C  C77  1  0.20839000  0.18717000  0.67461000  1.0
  C  C78  1  0.23340000  0.20692000  0.63039000  1.0
  C  C79  1  0.69481000  0.78574000  0.22892000  1.0
  C  C80  1  0.67293000  0.81496000  0.20620000  1.0
  C  C81  1  0.63045000  0.79831000  0.23183000  1.0
  C  C82  1  0.98392000  0.21441000  0.08923000  1.0
  C  C83  1  0.97940000  0.18657000  0.13982000  1.0
  C  C84  1  0.97365000  0.20580000  0.16455000  1.0
  C  C85  1  0.98999000  0.07632000  0.69363000  1.0
  C  C86  1  0.98581000  0.12261000  0.67051000  1.0
  C  C87  1  0.98058000  0.14186000  0.62646000  1.0
  C  C88  1  0.69527000  0.92702000  0.98442000  1.0
  C  C89  1  0.67370000  0.88278000  0.97756000  1.0
  C  C90  1  0.63100000  0.86566000  0.96940000  1.0
  C  C91  1  0.22944000  0.92283000  0.08761000  1.0
  C  C92  1  0.20633000  0.87750000  0.13844000  1.0
  C  C93  1  0.23097000  0.85814000  0.16316000  1.0
  C  C94  1  0.08806000  0.07511000  0.23051000  1.0
  C  C95  1  0.13903000  0.12008000  0.20789000  1.0
  C  C96  1  0.16403000  0.13807000  0.23315000  1.0
  C  C97  1  0.69453000  0.68363000  0.08662000  1.0
  C  C98  1  0.67227000  0.65516000  0.13769000  1.0
  C  C99  1  0.62971000  0.60410000  0.16295000  1.0
  C  C100  1  0.98476000  0.68196000  0.23124000  1.0
  C  C101  1  0.98085000  0.65475000  0.20792000  1.0
  C  C102  1  0.97605000  0.60571000  0.23252000  1.0
  C  C103  1  0.08893000  0.31950000  0.69467000  1.0
  C  C104  1  0.13982000  0.34715000  0.67226000  1.0
  C  C105  1  0.16539000  0.39773000  0.62925000  1.0
  C  C106  1  0.22651000  0.31502000  0.98749000  1.0
  C  C107  1  0.20388000  0.34335000  0.98148000  1.0
  C  C108  1  0.22968000  0.39385000  0.97396000  1.0
  C  C109  1  0.76809000  0.07593000  0.01046000  1.0
  C  C110  1  0.79046000  0.12128000  0.01593000  1.0
  C  C111  1  0.76520000  0.14017000  0.02129000  1.0
  C  C112  1  0.91304000  0.92473000  0.30576000  1.0
  C  C113  1  0.86208000  0.87969000  0.32770000  1.0
  C  C114  1  0.83687000  0.86056000  0.37153000  1.0
  C  C115  1  0.01310000  0.92502000  0.76982000  1.0
  C  C116  1  0.01862000  0.87971000  0.79287000  1.0
  C  C117  1  0.02668000  0.86211000  0.76755000  1.0
  C  C118  1  0.30440000  0.07271000  0.91284000  1.0
  C  C119  1  0.32753000  0.11924000  0.86246000  1.0
  C  C120  1  0.37135000  0.13811000  0.83749000  1.0
  C  C121  1  0.76786000  0.68343000  0.30472000  1.0
  C  C122  1  0.79129000  0.65643000  0.32784000  1.0
  C  C123  1  0.76633000  0.60674000  0.37161000  1.0
  C  C124  1  0.91184000  0.68153000  0.01538000  1.0
  C  C125  1  0.86100000  0.65351000  0.02075000  1.0
  C  C126  1  0.83623000  0.60353000  0.02713000  1.0
  C  C127  1  0.01108000  0.31669000  0.91375000  1.0
  C  C128  1  0.01763000  0.34494000  0.86268000  1.0
  C  C129  1  0.02530000  0.39554000  0.83736000  1.0
  C  C130  1  0.30456000  0.31970000  0.76868000  1.0
  C  C131  1  0.32661000  0.34724000  0.79189000  1.0
  C  C132  1  0.37082000  0.39642000  0.76760000  1.0
  C  C133  1  0.76976000  0.78229000  0.91169000  1.0
  C  C134  1  0.79295000  0.81101000  0.86075000  1.0
  C  C135  1  0.76833000  0.79297000  0.83531000  1.0
  C  C136  1  0.91281000  0.21709000  0.76783000  1.0
  C  C137  1  0.86160000  0.18800000  0.79017000  1.0
  C  C138  1  0.83664000  0.20600000  0.76459000  1.0
  C  C139  1  0.01535000  0.78385000  0.30542000  1.0
  C  C140  1  0.02223000  0.81329000  0.32719000  1.0
  C  C141  1  0.02896000  0.79514000  0.37056000  1.0
  C  C142  1  0.30127000  0.21468000  0.01307000  1.0
  C  C143  1  0.32336000  0.18571000  0.01931000  1.0
  C  C144  1  0.36606000  0.20346000  0.02746000  1.0
  C  C145  1  0.83701000  0.14532000  0.01476000  1.0
  C  C146  1  0.78642000  0.18363000  0.02562000  1.0
  C  C147  1  0.76104000  0.20280000  0.03121000  1.0
  C  C148  1  0.73924000  0.21989000  0.03568000  1.0
  C  C149  1  0.71575000  0.23930000  0.04012000  1.0
  C  C150  1  0.69469000  0.25748000  0.04373000  1.0
  C  C151  1  0.67069000  0.27927000  0.04636000  1.0
  C  C152  1  0.84003000  0.85619000  0.30456000  1.0
  C  C153  1  0.78899000  0.81723000  0.39294000  1.0
  C  C154  1  0.76297000  0.79760000  0.43711000  1.0
  C  C155  1  0.73974000  0.77979000  0.47554000  1.0
  C  C156  1  0.71525000  0.76035000  0.51813000  1.0
  C  C157  1  0.69370000  0.74238000  0.55738000  1.0
  C  C158  1  0.67128000  0.72159000  0.60345000  1.0
  C  C159  1  0.30560000  0.14457000  0.84092000  1.0
  C  C160  1  0.39396000  0.18293000  0.79022000  1.0
  C  C161  1  0.43812000  0.20201000  0.76461000  1.0
  C  C162  1  0.47654000  0.21884000  0.74220000  1.0
  C  C163  1  0.51901000  0.23775000  0.71783000  1.0
  C  C164  1  0.55807000  0.25548000  0.69597000  1.0
  C  C165  1  0.60400000  0.27720000  0.67196000  1.0
  C  C166  1  0.01485000  0.85445000  0.84015000  1.0
  C  C167  1  0.03126000  0.81885000  0.78939000  1.0
  C  C168  1  0.03864000  0.80009000  0.76443000  1.0
  C  C169  1  0.04317000  0.78189000  0.74380000  1.0
  C  C170  1  0.04658000  0.76129000  0.72110000  1.0
  C  C171  1  0.04831000  0.74205000  0.70038000  1.0
  C  C172  1  0.04889000  0.72001000  0.67593000  1.0
  C  C173  1  0.01963000  0.85762000  0.30483000  1.0
  C  C174  1  0.03269000  0.82102000  0.39241000  1.0
  C  C175  1  0.03796000  0.80188000  0.43693000  1.0
  C  C176  1  0.04108000  0.78437000  0.47623000  1.0
  C  C177  1  0.04385000  0.76400000  0.51963000  1.0
  C  C178  1  0.04570000  0.74452000  0.55942000  1.0
  C  C179  1  0.04735000  0.72128000  0.60538000  1.0
  C  C180  1  0.30187000  0.14181000  0.01602000  1.0
  C  C181  1  0.38811000  0.17762000  0.03208000  1.0
  C  C182  1  0.43178000  0.19636000  0.03918000  1.0
  C  C183  1  0.47042000  0.21393000  0.04390000  1.0
  C  C184  1  0.51350000  0.23438000  0.04752000  1.0
  C  C185  1  0.55327000  0.25400000  0.04952000  1.0
  C  C186  1  0.59991000  0.27751000  0.04945000  1.0
  C  C187  1  0.83915000  0.14378000  0.83717000  1.0
  C  C188  1  0.78855000  0.17969000  0.78589000  1.0
  C  C189  1  0.76317000  0.19799000  0.76049000  1.0
  C  C190  1  0.74104000  0.21446000  0.73923000  1.0
  C  C191  1  0.71734000  0.23371000  0.71612000  1.0
  C  C192  1  0.69637000  0.25244000  0.69527000  1.0
  C  C193  1  0.67325000  0.27582000  0.67172000  1.0
  C  C194  1  0.83986000  0.85564000  0.83896000  1.0
  C  C195  1  0.79069000  0.81936000  0.78748000  1.0
  C  C196  1  0.76610000  0.80199000  0.76116000  1.0
  C  C197  1  0.74518000  0.78696000  0.73806000  1.0
  C  C198  1  0.72170000  0.76851000  0.71399000  1.0
  C  C199  1  0.70002000  0.75000000  0.69318000  1.0
  C  C200  1  0.67472000  0.72577000  0.67120000  1.0
  C  C201  1  0.30345000  0.32224000  0.83869000  1.0
  C  C202  1  0.39263000  0.42134000  0.79015000  1.0
  C  C203  1  0.43738000  0.47096000  0.76609000  1.0
  C  C204  1  0.47641000  0.51387000  0.74561000  1.0
  C  C205  1  0.51935000  0.56094000  0.72267000  1.0
  C  C206  1  0.55861000  0.60359000  0.70170000  1.0
  C  C207  1  0.60418000  0.65207000  0.67602000  1.0
  C  C208  1  0.01460000  0.31961000  0.84082000  1.0
  C  C209  1  0.02945000  0.42117000  0.78966000  1.0
  C  C210  1  0.03624000  0.47174000  0.76393000  1.0
  C  C211  1  0.04087000  0.51500000  0.74155000  1.0
  C  C212  1  0.04493000  0.56193000  0.71755000  1.0
  C  C213  1  0.04760000  0.60407000  0.69613000  1.0
  C  C214  1  0.04877000  0.65138000  0.67334000  1.0
  C  C215  1  0.83857000  0.68168000  0.30581000  1.0
  C  C216  1  0.78854000  0.58158000  0.39394000  1.0
  C  C217  1  0.76369000  0.53126000  0.43808000  1.0
  C  C218  1  0.74293000  0.48773000  0.47659000  1.0
  C  C219  1  0.72009000  0.44019000  0.51899000  1.0
  C  C220  1  0.69948000  0.39710000  0.55784000  1.0
  C  C221  1  0.67505000  0.34830000  0.60311000  1.0
  C  C222  1  0.83889000  0.67853000  0.01785000  1.0
  C  C223  1  0.78867000  0.57795000  0.03042000  1.0
  C  C224  1  0.76319000  0.52781000  0.03621000  1.0
  C  C225  1  0.74060000  0.48494000  0.04004000  1.0
  C  C226  1  0.71628000  0.43842000  0.04329000  1.0
  C  C227  1  0.69462000  0.39654000  0.04546000  1.0
  C  C228  1  0.67054000  0.34885000  0.04707000  1.0
  C  C229  1  0.16132000  0.85489000  0.98227000  1.0
  C  C230  1  0.21170000  0.81838000  0.96721000  1.0
  C  C231  1  0.23687000  0.79958000  0.96033000  1.0
  C  C232  1  0.25857000  0.78256000  0.95548000  1.0
  C  C233  1  0.28219000  0.76309000  0.95151000  1.0
  C  C234  1  0.30323000  0.74439000  0.94916000  1.0
  C  C235  1  0.32715000  0.72195000  0.94820000  1.0
  C  C236  1  0.16162000  0.14221000  0.69702000  1.0
  C  C237  1  0.21200000  0.18134000  0.60821000  1.0
  C  C238  1  0.23716000  0.20108000  0.56358000  1.0
  C  C239  1  0.25865000  0.21828000  0.52461000  1.0
  C  C240  1  0.28236000  0.23769000  0.48166000  1.0
  C  C241  1  0.30368000  0.25547000  0.44238000  1.0
  C  C242  1  0.32790000  0.27663000  0.39675000  1.0
  C  C243  1  0.98198000  0.14220000  0.16201000  1.0
  C  C244  1  0.96997000  0.18048000  0.21214000  1.0
  C  C245  1  0.96405000  0.19984000  0.23713000  1.0
  C  C246  1  0.95952000  0.21729000  0.25852000  1.0
  C  C247  1  0.95540000  0.23705000  0.28172000  1.0
  C  C248  1  0.95240000  0.25557000  0.30267000  1.0
  C  C249  1  0.95088000  0.27809000  0.32628000  1.0
  C  C250  1  0.69474000  0.85830000  0.15888000  1.0
  C  C251  1  0.60925000  0.82516000  0.21032000  1.0
  C  C252  1  0.56612000  0.80813000  0.23606000  1.0
  C  C253  1  0.52800000  0.79227000  0.25817000  1.0
  C  C254  1  0.48525000  0.77318000  0.28211000  1.0
  C  C255  1  0.44550000  0.75427000  0.30344000  1.0
  C  C256  1  0.39863000  0.72949000  0.32784000  1.0
  C  C257  1  0.16134000  0.32138000  0.69416000  1.0
  C  C258  1  0.21313000  0.42318000  0.60746000  1.0
  C  C259  1  0.23928000  0.47427000  0.56400000  1.0
  C  C260  1  0.26188000  0.51826000  0.52586000  1.0
  C  C261  1  0.28565000  0.56576000  0.48335000  1.0
  C  C262  1  0.30652000  0.60832000  0.44408000  1.0
  C  C263  1  0.32916000  0.65611000  0.39815000  1.0
  C  C264  1  0.15676000  0.31869000  0.98470000  1.0
  C  C265  1  0.20844000  0.42038000  0.96986000  1.0
  C  C266  1  0.23444000  0.47090000  0.96330000  1.0
  C  C267  1  0.25725000  0.51406000  0.95894000  1.0
  C  C268  1  0.28163000  0.56095000  0.95501000  1.0
  C  C269  1  0.30342000  0.60314000  0.95232000  1.0
  C  C270  1  0.32729000  0.65116000  0.95011000  1.0
  C  C271  1  0.98359000  0.67955000  0.16093000  1.0
  C  C272  1  0.97392000  0.58073000  0.21022000  1.0
  C  C273  1  0.96833000  0.53077000  0.23505000  1.0
  C  C274  1  0.96306000  0.48711000  0.25672000  1.0
  C  C275  1  0.95782000  0.43948000  0.28036000  1.0
  C  C276  1  0.95370000  0.39647000  0.30172000  1.0
  C  C277  1  0.95131000  0.34836000  0.32588000  1.0
  C  C278  1  0.69385000  0.68020000  0.15986000  1.0
  C  C279  1  0.60809000  0.57729000  0.21103000  1.0
  C  C280  1  0.56491000  0.52581000  0.23668000  1.0
  C  C281  1  0.52678000  0.48172000  0.25867000  1.0
  C  C282  1  0.48428000  0.43409000  0.28254000  1.0
  C  C283  1  0.44496000  0.39153000  0.30378000  1.0
  C  C284  1  0.39865000  0.34427000  0.32760000  1.0
  C  C285  1  0.16134000  0.14477000  0.16092000  1.0
  C  C286  1  0.21208000  0.18094000  0.21165000  1.0
  C  C287  1  0.23740000  0.19917000  0.23713000  1.0
  C  C288  1  0.25903000  0.21565000  0.25912000  1.0
  C  C289  1  0.28275000  0.23474000  0.28272000  1.0
  C  C290  1  0.30421000  0.25294000  0.30380000  1.0
  C  C291  1  0.32824000  0.27519000  0.32754000  1.0
  C  C292  1  0.15960000  0.85377000  0.16081000  1.0
  C  C293  1  0.20907000  0.81475000  0.21098000  1.0
  C  C294  1  0.23369000  0.79512000  0.23648000  1.0
  C  C295  1  0.25467000  0.77771000  0.25916000  1.0
  C  C296  1  0.27813000  0.75894000  0.28357000  1.0
  C  C297  1  0.29969000  0.74189000  0.30543000  1.0
  C  C298  1  0.32537000  0.72251000  0.32894000  1.0
  C  C299  1  0.98772000  0.14696000  0.69299000  1.0
  C  C300  1  0.97663000  0.18560000  0.60450000  1.0
  C  C301  1  0.97037000  0.20456000  0.56041000  1.0
  C  C302  1  0.96469000  0.22120000  0.52219000  1.0
  C  C303  1  0.95907000  0.24001000  0.47998000  1.0
  C  C304  1  0.95464000  0.25776000  0.44122000  1.0
  C  C305  1  0.95189000  0.27918000  0.39564000  1.0
  C  C306  1  0.69565000  0.85754000  0.98077000  1.0
  C  C307  1  0.60954000  0.82258000  0.96458000  1.0
  C  C308  1  0.56578000  0.80412000  0.95760000  1.0
  C  C309  1  0.52706000  0.78664000  0.95304000  1.0
  C  C310  1  0.48385000  0.76610000  0.94973000  1.0
  C  C311  1  0.44397000  0.74630000  0.94803000  1.0
  C  C312  1  0.39745000  0.72271000  0.94784000  1.0
  C  C313  1  0.69392000  0.32606000  0.04589000  1.0
  C  C314  1  0.62562000  0.67387000  0.62936000  1.0
  C  C315  1  0.62829000  0.32478000  0.62614000  1.0
  C  C316  1  0.04969000  0.67416000  0.69741000  1.0
  C  C317  1  0.04788000  0.74351000  0.62985000  1.0
  C  C318  1  0.62358000  0.25500000  0.04839000  1.0
  C  C319  1  0.62651000  0.25261000  0.69446000  1.0
  C  C320  1  0.69552000  0.74773000  0.62436000  1.0
  C  C321  1  0.62887000  0.67813000  0.69678000  1.0
  C  C322  1  0.04773000  0.67509000  0.62732000  1.0
  C  C323  1  0.69737000  0.32362000  0.62599000  1.0
  C  C324  1  0.62346000  0.32436000  0.04890000  1.0
  C  C325  1  0.37397000  0.74597000  0.94715000  1.0
  C  C326  1  0.30471000  0.25339000  0.37351000  1.0
  C  C327  1  0.95138000  0.25557000  0.37252000  1.0
  C  C328  1  0.37291000  0.74917000  0.30539000  1.0
  C  C329  1  0.37668000  0.68316000  0.37435000  1.0
  C  C330  1  0.30401000  0.67461000  0.94956000  1.0
  C  C331  1  0.95059000  0.32431000  0.30315000  1.0
  C  C332  1  0.37494000  0.32197000  0.37370000  1.0
  C  C333  1  0.37530000  0.32043000  0.30483000  1.0
  C  C334  1  0.30370000  0.67606000  0.37534000  1.0
  C  C335  1  0.95154000  0.32538000  0.37226000  1.0
  C  C336  1  0.37402000  0.67533000  0.94924000  1.0
  O  O1  1  0.92901000  0.19509000  0.01166000  1.0
  O  O2  1  0.92833000  0.25858000  0.01437000  1.0
  O  O3  1  0.79290000  0.80750000  0.26094000  1.0
  O  O4  1  0.72789000  0.74220000  0.32643000  1.0
  O  O5  1  0.26489000  0.19761000  0.79613000  1.0
  O  O6  1  0.32830000  0.25962000  0.72930000  1.0
  O  O7  1  0.01127000  0.80460000  0.93273000  1.0
  O  O8  1  0.00870000  0.73794000  0.93303000  1.0
  O  O9  1  0.01396000  0.94498000  0.26300000  1.0
  O  O10  1  0.01409000  0.94541000  0.32803000  1.0
  O  O11  1  0.26102000  0.05366000  0.01144000  1.0
  O  O12  1  0.32602000  0.05324000  0.01329000  1.0
  O  O13  1  0.79261000  0.05639000  0.93001000  1.0
  O  O14  1  0.72764000  0.05696000  0.92946000  1.0
  O  O15  1  0.93233000  0.94526000  0.79278000  1.0
  O  O16  1  0.93337000  0.94506000  0.72765000  1.0
  O  O17  1  0.26051000  0.27472000  0.93169000  1.0
  O  O18  1  0.32590000  0.33890000  0.93233000  1.0
  O  O19  1  0.00880000  0.27213000  0.79476000  1.0
  O  O20  1  0.01378000  0.34036000  0.72816000  1.0
  O  O21  1  0.93165000  0.72800000  0.26368000  1.0
  O  O22  1  0.93112000  0.66248000  0.32878000  1.0
  O  O23  1  0.79291000  0.72595000  0.01142000  1.0
  O  O24  1  0.72727000  0.65946000  0.01330000  1.0
  O  O25  1  0.20679000  0.94163000  0.98790000  1.0
  O  O26  1  0.27253000  0.94266000  0.98692000  1.0
  O  O27  1  0.06854000  0.05461000  0.73807000  1.0
  O  O28  1  0.06988000  0.05511000  0.67257000  1.0
  O  O29  1  0.98798000  0.05516000  0.20784000  1.0
  O  O30  1  0.98659000  0.05459000  0.27334000  1.0
  O  O31  1  0.73700000  0.94612000  0.06607000  1.0
  O  O32  1  0.67132000  0.94528000  0.06594000  1.0
  O  O33  1  0.20607000  0.27263000  0.73518000  1.0
  O  O34  1  0.27352000  0.34093000  0.67237000  1.0
  O  O35  1  0.06421000  0.27206000  0.99092000  1.0
  O  O36  1  0.06492000  0.33885000  0.98842000  1.0
  O  O37  1  0.98816000  0.72549000  0.06809000  1.0
  O  O38  1  0.99070000  0.66164000  0.06790000  1.0
  O  O39  1  0.73566000  0.72590000  0.20658000  1.0
  O  O40  1  0.66964000  0.66161000  0.27111000  1.0
  O  O41  1  0.20711000  0.19511000  0.06839000  1.0
  O  O42  1  0.27223000  0.26072000  0.06797000  1.0
  O  O43  1  0.06692000  0.80395000  0.20707000  1.0
  O  O44  1  0.06679000  0.73898000  0.27235000  1.0
  O  O45  1  0.99258000  0.19755000  0.73504000  1.0
  O  O46  1  0.98888000  0.26040000  0.67164000  1.0
  O  O47  1  0.73703000  0.80588000  0.98683000  1.0
  O  O48  1  0.67272000  0.74202000  0.98483000  1.0
  O  O49  1  0.06798000  0.80350000  0.98905000  1.0
  O  O50  1  0.06824000  0.74004000  0.98596000  1.0
  O  O51  1  0.20817000  0.19243000  0.73956000  1.0
  O  O52  1  0.27158000  0.26010000  0.67269000  1.0
  O  O53  1  0.73562000  0.80606000  0.20469000  1.0
  O  O54  1  0.67091000  0.74262000  0.27051000  1.0
  O  O55  1  0.98481000  0.19226000  0.06947000  1.0
  O  O56  1  0.98696000  0.25845000  0.06954000  1.0
  O  O57  1  0.99133000  0.05842000  0.73524000  1.0
  O  O58  1  0.99218000  0.05846000  0.67002000  1.0
  O  O59  1  0.73597000  0.94358000  0.98823000  1.0
  O  O60  1  0.67120000  0.94446000  0.98641000  1.0
  O  O61  1  0.20575000  0.94046000  0.06778000  1.0
  O  O62  1  0.27082000  0.94007000  0.06790000  1.0
  O  O63  1  0.06849000  0.05766000  0.20661000  1.0
  O  O64  1  0.06798000  0.05794000  0.27170000  1.0
  O  O65  1  0.73593000  0.72710000  0.06685000  1.0
  O  O66  1  0.67037000  0.66251000  0.06672000  1.0
  O  O67  1  0.98662000  0.72526000  0.20764000  1.0
  O  O68  1  0.98672000  0.66029000  0.27266000  1.0
  O  O69  1  0.06925000  0.27701000  0.73661000  1.0
  O  O70  1  0.06901000  0.34012000  0.66998000  1.0
  O  O71  1  0.20235000  0.27074000  0.99093000  1.0
  O  O72  1  0.26803000  0.33697000  0.98921000  1.0
  O  O73  1  0.79243000  0.05903000  0.00782000  1.0
  O  O74  1  0.72661000  0.05795000  0.00850000  1.0
  O  O75  1  0.93336000  0.94235000  0.26450000  1.0
  O  O76  1  0.93240000  0.94178000  0.32999000  1.0
  O  O77  1  0.00946000  0.94179000  0.79393000  1.0
  O  O78  1  0.01202000  0.94303000  0.72809000  1.0
  O  O79  1  0.26245000  0.05402000  0.93233000  1.0
  O  O80  1  0.32852000  0.05573000  0.93263000  1.0
  O  O81  1  0.79207000  0.72726000  0.26360000  1.0
  O  O82  1  0.72584000  0.66110000  0.32785000  1.0
  O  O83  1  0.93191000  0.72613000  0.01139000  1.0
  O  O84  1  0.93137000  0.65915000  0.01444000  1.0
  O  O85  1  0.00933000  0.27345000  0.93356000  1.0
  O  O86  1  0.00704000  0.33743000  0.93371000  1.0
  O  O87  1  0.26248000  0.27735000  0.79141000  1.0
  O  O88  1  0.32975000  0.34006000  0.72833000  1.0
  O  O89  1  0.79310000  0.80404000  0.93150000  1.0
  O  O90  1  0.72879000  0.73813000  0.93155000  1.0
  O  O91  1  0.93224000  0.19467000  0.79093000  1.0
  O  O92  1  0.93321000  0.26230000  0.72767000  1.0
  O  O93  1  0.01243000  0.80485000  0.26440000  1.0
  O  O94  1  0.01206000  0.73968000  0.32971000  1.0
  O  O95  1  0.26041000  0.19412000  0.00961000  1.0
  O  O96  1  0.32519000  0.25797000  0.01125000  1.0
