# generated using pymatgen
data_Zn4H26C48O13
_symmetry_space_group_name_H-M   'P 1'
_cell_length_a   30.64408000
_cell_length_b   30.64335000
_cell_length_c   30.64248000
_cell_angle_alpha   90.27519000
_cell_angle_beta   90.00475000
_cell_angle_gamma   89.77236000
_symmetry_Int_Tables_number   1
_chemical_formula_structural   Zn4H26C48O13
_chemical_formula_sum   'Zn24 H156 C288 O78'
_cell_volume   28773.87167749
_cell_formula_units_Z   6
loop_
 _symmetry_equiv_pos_site_id
 _symmetry_equiv_pos_as_xyz
  1  'x, y, z'
loop_
 _atom_site_type_symbol
 _atom_site_label
 _atom_site_symmetry_multiplicity
 _atom_site_fract_x
 _atom_site_fract_y
 _atom_site_fract_z
 _atom_site_occupancy
  Zn  Zn1  1  0.94658000  0.49896000  0.21540000  1.0
  Zn  Zn2  1  0.50090000  0.21069000  0.05109000  1.0
  Zn  Zn3  1  0.78932000  0.05111000  0.49904000  1.0
  Zn  Zn4  1  0.05104000  0.49921000  0.21056000  1.0
  Zn  Zn5  1  0.94896000  0.50079000  0.78944000  1.0
  Zn  Zn6  1  0.50084000  0.21528000  0.94667000  1.0
  Zn  Zn7  1  0.49916000  0.78471000  0.05333000  1.0
  Zn  Zn8  1  0.78468000  0.94678000  0.50048000  1.0
  Zn  Zn9  1  0.21531000  0.05322000  0.49954000  1.0
  Zn  Zn10  1  0.00066000  0.44891000  0.28928000  1.0
  Zn  Zn11  1  0.00085000  0.55330000  0.28470000  1.0
  Zn  Zn12  1  0.99915000  0.44669000  0.71529000  1.0
  Zn  Zn13  1  0.99934000  0.55109000  0.71071000  1.0
  Zn  Zn14  1  0.28937000  0.99897000  0.55107000  1.0
  Zn  Zn15  1  0.28462000  0.99947000  0.44669000  1.0
  Zn  Zn16  1  0.71537000  0.00054000  0.55332000  1.0
  Zn  Zn17  1  0.71063000  0.00103000  0.44893000  1.0
  Zn  Zn18  1  0.55333000  0.71530000  0.99915000  1.0
  Zn  Zn19  1  0.44891000  0.71067000  0.99908000  1.0
  Zn  Zn20  1  0.55108000  0.28933000  0.00092000  1.0
  Zn  Zn21  1  0.44667000  0.28470000  0.00085000  1.0
  Zn  Zn22  1  0.05342000  0.50104000  0.78460000  1.0
  Zn  Zn23  1  0.49910000  0.78931000  0.94892000  1.0
  Zn  Zn24  1  0.21067000  0.94889000  0.50096000  1.0
  H  H1  1  0.05975000  0.50002000  0.06891000  1.0
  H  H2  1  0.94025000  0.49998000  0.93108000  1.0
  H  H3  1  0.49998000  0.06920000  0.05975000  1.0
  H  H4  1  0.50002000  0.93080000  0.94026000  1.0
  H  H5  1  0.93083000  0.05973000  0.50000000  1.0
  H  H6  1  0.06916000  0.94027000  0.50000000  1.0
  H  H7  1  0.99998000  0.44026000  0.43079000  1.0
  H  H8  1  0.00002000  0.55975000  0.56920000  1.0
  H  H9  1  0.43109000  0.00001000  0.55977000  1.0
  H  H10  1  0.56890000  0.99999000  0.44024000  1.0
  H  H11  1  0.44027000  0.56917000  0.00002000  1.0
  H  H12  1  0.55973000  0.43083000  0.99998000  1.0
  H  H13  1  0.92073000  0.50003000  0.08688000  1.0
  H  H14  1  0.07927000  0.49997000  0.91312000  1.0
  H  H15  1  0.49997000  0.08651000  0.92073000  1.0
  H  H16  1  0.50003000  0.91349000  0.07928000  1.0
  H  H17  1  0.91345000  0.92071000  0.50003000  1.0
  H  H18  1  0.08654000  0.07929000  0.49997000  1.0
  H  H19  1  0.99998000  0.57927000  0.41349000  1.0
  H  H20  1  0.00002000  0.42072000  0.58651000  1.0
  H  H21  1  0.41312000  0.00003000  0.42073000  1.0
  H  H22  1  0.58687000  0.99996000  0.57927000  1.0
  H  H23  1  0.57929000  0.58655000  0.00003000  1.0
  H  H24  1  0.42070000  0.41345000  0.99997000  1.0
  H  H25  1  0.90932000  0.50000000  0.00647000  1.0
  H  H26  1  0.09067000  0.50000000  0.99353000  1.0
  H  H27  1  0.50000000  0.00604000  0.90932000  1.0
  H  H28  1  0.50000000  0.99395000  0.09069000  1.0
  H  H29  1  0.99391000  0.90932000  0.50000000  1.0
  H  H30  1  0.00609000  0.09068000  0.50000000  1.0
  H  H31  1  1.00000000  0.59068000  0.49396000  1.0
  H  H32  1  0.00000000  0.40932000  0.50604000  1.0
  H  H33  1  0.49353000  1.00000000  0.40933000  1.0
  H  H34  1  0.50646000  1.00000000  0.59067000  1.0
  H  H35  1  0.59068000  0.50609000  0.00000000  1.0
  H  H36  1  0.40932000  0.49390000  1.00000000  1.0
  H  H37  1  0.19271000  0.74956000  0.30722000  1.0
  H  H38  1  0.80721000  0.24962000  0.30744000  1.0
  H  H39  1  0.19297000  0.24954000  0.69265000  1.0
  H  H40  1  0.80746000  0.74960000  0.69302000  1.0
  H  H41  1  0.24998000  0.30720000  0.80719000  1.0
  H  H42  1  0.75008000  0.30684000  0.19302000  1.0
  H  H43  1  0.74992000  0.69271000  0.80714000  1.0
  H  H44  1  0.25002000  0.69235000  0.19234000  1.0
  H  H45  1  0.69261000  0.80716000  0.74998000  1.0
  H  H46  1  0.69272000  0.19274000  0.24996000  1.0
  H  H47  1  0.30684000  0.80687000  0.25005000  1.0
  H  H48  1  0.30747000  0.19229000  0.75003000  1.0
  H  H49  1  0.80728000  0.25043000  0.69279000  1.0
  H  H50  1  0.19279000  0.75038000  0.69256000  1.0
  H  H51  1  0.80703000  0.75046000  0.30735000  1.0
  H  H52  1  0.19254000  0.25040000  0.30698000  1.0
  H  H53  1  0.75002000  0.69280000  0.19281000  1.0
  H  H54  1  0.24992000  0.69316000  0.80698000  1.0
  H  H55  1  0.25008000  0.30729000  0.19286000  1.0
  H  H56  1  0.74997000  0.30765000  0.80767000  1.0
  H  H57  1  0.30738000  0.19284000  0.25002000  1.0
  H  H58  1  0.30728000  0.80726000  0.75004000  1.0
  H  H59  1  0.69316000  0.19313000  0.74996000  1.0
  H  H60  1  0.69253000  0.80771000  0.24998000  1.0
  H  H61  1  0.16631000  0.57673000  0.21758000  1.0
  H  H62  1  0.83457000  0.42198000  0.21937000  1.0
  H  H63  1  0.16583000  0.42266000  0.78121000  1.0
  H  H64  1  0.83473000  0.57729000  0.78166000  1.0
  H  H65  1  0.42284000  0.21866000  0.83403000  1.0
  H  H66  1  0.57745000  0.21832000  0.16548000  1.0
  H  H67  1  0.57694000  0.78228000  0.83383000  1.0
  H  H68  1  0.42219000  0.78065000  0.16527000  1.0
  H  H69  1  0.78140000  0.83366000  0.57757000  1.0
  H  H70  1  0.78177000  0.16558000  0.42264000  1.0
  H  H71  1  0.21783000  0.83397000  0.42300000  1.0
  H  H72  1  0.21936000  0.16495000  0.57732000  1.0
  H  H73  1  0.92285000  0.33346000  0.28237000  1.0
  H  H74  1  0.07758000  0.66530000  0.28072000  1.0
  H  H75  1  0.07737000  0.33403000  0.71874000  1.0
  H  H76  1  0.92275000  0.66517000  0.71840000  1.0
  H  H77  1  0.28215000  0.07660000  0.66570000  1.0
  H  H78  1  0.28050000  0.92219000  0.33493000  1.0
  H  H79  1  0.71860000  0.92250000  0.66632000  1.0
  H  H80  1  0.71815000  0.07739000  0.33430000  1.0
  H  H81  1  0.66520000  0.71938000  0.92232000  1.0
  H  H82  1  0.33385000  0.71771000  0.07680000  1.0
  H  H83  1  0.66553000  0.28169000  0.07760000  1.0
  H  H84  1  0.33400000  0.28135000  0.92274000  1.0
  H  H85  1  0.83369000  0.42327000  0.78243000  1.0
  H  H86  1  0.16542000  0.57802000  0.78064000  1.0
  H  H87  1  0.83416000  0.57733000  0.21879000  1.0
  H  H88  1  0.16527000  0.42271000  0.21834000  1.0
  H  H89  1  0.57716000  0.78134000  0.16597000  1.0
  H  H90  1  0.42254000  0.78167000  0.83452000  1.0
  H  H91  1  0.42306000  0.21772000  0.16617000  1.0
  H  H92  1  0.57780000  0.21935000  0.83473000  1.0
  H  H93  1  0.21860000  0.16635000  0.42244000  1.0
  H  H94  1  0.21823000  0.83443000  0.57737000  1.0
  H  H95  1  0.78217000  0.16604000  0.57701000  1.0
  H  H96  1  0.78063000  0.83505000  0.42268000  1.0
  H  H97  1  0.07715000  0.66654000  0.71763000  1.0
  H  H98  1  0.92242000  0.33470000  0.71928000  1.0
  H  H99  1  0.92263000  0.66595000  0.28127000  1.0
  H  H100  1  0.07725000  0.33483000  0.28161000  1.0
  H  H101  1  0.71784000  0.92340000  0.33430000  1.0
  H  H102  1  0.71950000  0.07781000  0.66507000  1.0
  H  H103  1  0.28140000  0.07751000  0.33369000  1.0
  H  H104  1  0.28185000  0.92261000  0.66571000  1.0
  H  H105  1  0.33480000  0.28062000  0.07768000  1.0
  H  H106  1  0.66615000  0.28229000  0.92321000  1.0
  H  H107  1  0.33447000  0.71831000  0.92240000  1.0
  H  H108  1  0.66601000  0.71865000  0.07727000  1.0
  H  H109  1  0.22428000  0.63309000  0.21984000  1.0
  H  H110  1  0.77656000  0.36589000  0.22057000  1.0
  H  H111  1  0.22401000  0.36605000  0.77954000  1.0
  H  H112  1  0.77633000  0.63365000  0.77972000  1.0
  H  H113  1  0.36638000  0.22020000  0.77591000  1.0
  H  H114  1  0.63367000  0.22021000  0.22368000  1.0
  H  H115  1  0.63346000  0.77989000  0.77577000  1.0
  H  H116  1  0.36593000  0.77939000  0.22343000  1.0
  H  H117  1  0.77985000  0.77570000  0.63383000  1.0
  H  H118  1  0.77977000  0.22356000  0.36651000  1.0
  H  H119  1  0.22008000  0.77570000  0.36643000  1.0
  H  H120  1  0.22067000  0.22321000  0.63386000  1.0
  H  H121  1  0.86650000  0.27553000  0.28010000  1.0
  H  H122  1  0.13373000  0.72331000  0.27951000  1.0
  H  H123  1  0.13394000  0.27579000  0.72032000  1.0
  H  H124  1  0.86634000  0.72350000  0.72042000  1.0
  H  H125  1  0.27995000  0.13317000  0.72402000  1.0
  H  H126  1  0.27927000  0.86578000  0.27666000  1.0
  H  H127  1  0.72027000  0.86614000  0.72420000  1.0
  H  H128  1  0.72009000  0.13348000  0.27627000  1.0
  H  H129  1  0.72341000  0.72048000  0.86611000  1.0
  H  H130  1  0.27573000  0.71995000  0.13326000  1.0
  H  H131  1  0.72368000  0.27963000  0.13385000  1.0
  H  H132  1  0.27595000  0.27965000  0.86622000  1.0
  H  H133  1  0.77572000  0.36690000  0.78016000  1.0
  H  H134  1  0.22343000  0.63410000  0.77944000  1.0
  H  H135  1  0.77598000  0.63395000  0.22046000  1.0
  H  H136  1  0.22367000  0.36635000  0.22029000  1.0
  H  H137  1  0.63362000  0.77980000  0.22409000  1.0
  H  H138  1  0.36633000  0.77979000  0.77632000  1.0
  H  H139  1  0.36654000  0.22011000  0.22423000  1.0
  H  H140  1  0.63406000  0.22061000  0.77658000  1.0
  H  H141  1  0.22014000  0.22430000  0.36617000  1.0
  H  H142  1  0.22023000  0.77644000  0.63349000  1.0
  H  H143  1  0.77991000  0.22431000  0.63358000  1.0
  H  H144  1  0.77933000  0.77680000  0.36615000  1.0
  H  H145  1  0.13349000  0.72447000  0.71990000  1.0
  H  H146  1  0.86626000  0.27668000  0.72050000  1.0
  H  H147  1  0.86607000  0.72420000  0.27967000  1.0
  H  H148  1  0.13366000  0.27650000  0.27958000  1.0
  H  H149  1  0.72005000  0.86683000  0.27598000  1.0
  H  H150  1  0.72072000  0.13421000  0.72335000  1.0
  H  H151  1  0.27972000  0.13386000  0.27580000  1.0
  H  H152  1  0.27991000  0.86652000  0.72373000  1.0
  H  H153  1  0.27659000  0.27953000  0.13389000  1.0
  H  H154  1  0.72427000  0.28005000  0.86674000  1.0
  H  H155  1  0.27631000  0.72037000  0.86615000  1.0
  H  H156  1  0.72405000  0.72035000  0.13379000  1.0
  C  C1  1  0.99624000  0.50001000  0.13128000  1.0
  C  C2  1  0.00376000  0.49999000  0.86872000  1.0
  C  C3  1  0.49999000  0.13124000  0.99623000  1.0
  C  C4  1  0.50001000  0.86875000  0.00377000  1.0
  C  C5  1  0.86875000  0.99622000  0.50003000  1.0
  C  C6  1  0.13124000  0.00378000  0.49997000  1.0
  C  C7  1  0.99997000  0.50377000  0.36875000  1.0
  C  C8  1  0.00004000  0.49623000  0.63125000  1.0
  C  C9  1  0.36871000  1.00000000  0.49625000  1.0
  C  C10  1  0.63128000  0.99999000  0.50375000  1.0
  C  C11  1  0.50378000  0.63125000  0.00001000  1.0
  C  C12  1  0.49622000  0.36875000  0.99999000  1.0
  C  C13  1  0.99113000  0.50005000  0.08260000  1.0
  C  C14  1  0.00887000  0.49995000  0.91739000  1.0
  C  C15  1  0.49995000  0.08255000  0.99112000  1.0
  C  C16  1  0.50005000  0.91744000  0.00888000  1.0
  C  C17  1  0.91744000  0.99110000  0.50003000  1.0
  C  C18  1  0.08255000  0.00890000  0.49998000  1.0
  C  C19  1  0.99995000  0.50888000  0.41744000  1.0
  C  C20  1  0.00005000  0.49112000  0.58255000  1.0
  C  C21  1  0.41739000  0.00004000  0.49114000  1.0
  C  C22  1  0.58260000  0.99996000  0.50886000  1.0
  C  C23  1  0.50889000  0.58256000  0.00005000  1.0
  C  C24  1  0.49110000  0.41744000  0.99995000  1.0
  C  C25  1  0.02165000  0.50000000  0.00903000  1.0
  C  C26  1  0.97835000  0.50000000  0.99097000  1.0
  C  C27  1  0.49999000  0.00913000  0.02166000  1.0
  C  C28  1  0.50000000  0.99086000  0.97835000  1.0
  C  C29  1  0.99088000  0.02165000  0.50000000  1.0
  C  C30  1  0.00912000  0.97835000  0.50000000  1.0
  C  C31  1  0.00000000  0.47835000  0.49086000  1.0
  C  C32  1  0.00001000  0.52165000  0.50913000  1.0
  C  C33  1  0.49096000  1.00000000  0.52165000  1.0
  C  C34  1  0.50903000  0.00000000  0.47835000  1.0
  C  C35  1  0.47835000  0.50912000  1.00000000  1.0
  C  C36  1  0.52165000  0.49088000  0.99999000  1.0
  C  C37  1  0.02705000  0.50003000  0.05505000  1.0
  C  C38  1  0.97294000  0.49997000  0.94495000  1.0
  C  C39  1  0.49997000  0.05517000  0.02706000  1.0
  C  C40  1  0.50003000  0.94482000  0.97295000  1.0
  C  C41  1  0.94484000  0.02704000  0.50001000  1.0
  C  C42  1  0.05515000  0.97296000  0.49999000  1.0
  C  C43  1  0.99997000  0.47295000  0.44482000  1.0
  C  C44  1  0.00003000  0.52705000  0.55517000  1.0
  C  C45  1  0.44495000  0.00002000  0.52707000  1.0
  C  C46  1  0.55504000  0.99998000  0.47293000  1.0
  C  C47  1  0.47296000  0.55515000  0.00003000  1.0
  C  C48  1  0.52704000  0.44484000  0.99997000  1.0
  C  C49  1  0.94829000  0.50004000  0.06457000  1.0
  C  C50  1  0.05171000  0.49996000  0.93543000  1.0
  C  C51  1  0.49996000  0.06432000  0.94828000  1.0
  C  C52  1  0.50004000  0.93567000  0.05173000  1.0
  C  C53  1  0.93565000  0.94827000  0.50003000  1.0
  C  C54  1  0.06435000  0.05173000  0.49997000  1.0
  C  C55  1  0.99997000  0.55172000  0.43567000  1.0
  C  C56  1  0.00003000  0.44828000  0.56432000  1.0
  C  C57  1  0.43543000  0.00004000  0.44829000  1.0
  C  C58  1  0.56456000  0.99996000  0.55171000  1.0
  C  C59  1  0.55173000  0.56435000  0.00004000  1.0
  C  C60  1  0.44826000  0.43564000  0.99996000  1.0
  C  C61  1  0.94215000  0.50001000  0.02005000  1.0
  C  C62  1  0.05785000  0.49999000  0.97995000  1.0
  C  C63  1  0.49999000  0.01977000  0.94214000  1.0
  C  C64  1  0.50001000  0.98022000  0.05786000  1.0
  C  C65  1  0.98019000  0.94214000  0.50001000  1.0
  C  C66  1  0.01980000  0.05786000  0.49999000  1.0
  C  C67  1  0.99999000  0.55786000  0.48022000  1.0
  C  C68  1  0.00001000  0.44214000  0.51978000  1.0
  C  C69  1  0.47994000  0.00001000  0.44215000  1.0
  C  C70  1  0.52005000  0.99999000  0.55785000  1.0
  C  C71  1  0.55786000  0.51981000  0.00001000  1.0
  C  C72  1  0.44214000  0.48019000  0.99999000  1.0
  C  C73  1  0.08377000  0.58339000  0.24925000  1.0
  C  C74  1  0.91648000  0.41597000  0.25071000  1.0
  C  C75  1  0.08378000  0.41622000  0.74998000  1.0
  C  C76  1  0.91666000  0.58333000  0.75003000  1.0
  C  C77  1  0.41621000  0.25000000  0.91622000  1.0
  C  C78  1  0.58347000  0.25000000  0.08348000  1.0
  C  C79  1  0.58340000  0.75073000  0.91621000  1.0
  C  C80  1  0.41620000  0.74928000  0.08340000  1.0
  C  C81  1  0.75002000  0.91595000  0.58413000  1.0
  C  C82  1  0.74997000  0.08348000  0.41651000  1.0
  C  C83  1  0.24877000  0.91645000  0.41653000  1.0
  C  C84  1  0.25130000  0.08332000  0.58310000  1.0
  C  C85  1  0.91621000  0.41661000  0.75074000  1.0
  C  C86  1  0.08352000  0.58402000  0.74929000  1.0
  C  C87  1  0.91620000  0.58377000  0.25001000  1.0
  C  C88  1  0.08334000  0.41667000  0.24998000  1.0
  C  C89  1  0.58379000  0.75000000  0.08378000  1.0
  C  C90  1  0.41653000  0.75000000  0.91653000  1.0
  C  C91  1  0.41659000  0.24927000  0.08379000  1.0
  C  C92  1  0.58380000  0.25072000  0.91660000  1.0
  C  C93  1  0.24997000  0.08405000  0.41588000  1.0
  C  C94  1  0.25003000  0.91652000  0.58349000  1.0
  C  C95  1  0.75119000  0.08357000  0.58347000  1.0
  C  C96  1  0.74867000  0.91667000  0.41692000  1.0
  C  C97  1  0.11836000  0.61747000  0.24901000  1.0
  C  C98  1  0.88233000  0.38137000  0.25099000  1.0
  C  C99  1  0.11814000  0.38182000  0.74996000  1.0
  C  C100  1  0.88222000  0.61776000  0.75007000  1.0
  C  C101  1  0.38190000  0.24999000  0.88188000  1.0
  C  C102  1  0.61789000  0.25000000  0.11793000  1.0
  C  C103  1  0.61756000  0.75095000  0.88162000  1.0
  C  C104  1  0.38157000  0.74904000  0.11753000  1.0
  C  C105  1  0.75002000  0.88166000  0.61840000  1.0
  C  C106  1  0.74994000  0.11784000  0.38212000  1.0
  C  C107  1  0.24898000  0.88164000  0.38245000  1.0
  C  C108  1  0.25091000  0.11732000  0.61797000  1.0
  C  C109  1  0.88164000  0.38253000  0.75099000  1.0
  C  C110  1  0.11767000  0.61863000  0.74900000  1.0
  C  C111  1  0.88185000  0.61817000  0.25005000  1.0
  C  C112  1  0.11777000  0.38224000  0.24994000  1.0
  C  C113  1  0.61810000  0.75001000  0.11813000  1.0
  C  C114  1  0.38211000  0.75000000  0.88208000  1.0
  C  C115  1  0.38244000  0.24905000  0.11838000  1.0
  C  C116  1  0.61842000  0.25096000  0.88247000  1.0
  C  C117  1  0.24998000  0.11835000  0.38161000  1.0
  C  C118  1  0.25006000  0.88216000  0.61788000  1.0
  C  C119  1  0.75101000  0.11837000  0.61756000  1.0
  C  C120  1  0.74908000  0.88268000  0.38203000  1.0
  C  C121  1  0.18341000  0.68263000  0.24964000  1.0
  C  C122  1  0.81702000  0.31623000  0.25038000  1.0
  C  C123  1  0.18332000  0.31658000  0.74990000  1.0
  C  C124  1  0.81692000  0.68299000  0.75010000  1.0
  C  C125  1  0.31683000  0.24989000  0.81674000  1.0
  C  C126  1  0.68317000  0.24990000  0.18325000  1.0
  C  C127  1  0.68286000  0.75016000  0.81652000  1.0
  C  C128  1  0.31642000  0.74963000  0.18280000  1.0
  C  C129  1  0.75007000  0.81653000  0.68341000  1.0
  C  C130  1  0.74992000  0.18301000  0.31690000  1.0
  C  C131  1  0.24967000  0.81630000  0.31708000  1.0
  C  C132  1  0.25030000  0.18255000  0.68329000  1.0
  C  C133  1  0.81658000  0.31736000  0.75036000  1.0
  C  C134  1  0.18297000  0.68377000  0.74963000  1.0
  C  C135  1  0.81668000  0.68342000  0.25010000  1.0
  C  C136  1  0.18308000  0.31701000  0.24991000  1.0
  C  C137  1  0.68317000  0.75012000  0.18326000  1.0
  C  C138  1  0.31682000  0.75010000  0.81675000  1.0
  C  C139  1  0.31714000  0.24984000  0.18348000  1.0
  C  C140  1  0.68358000  0.25037000  0.81721000  1.0
  C  C141  1  0.24993000  0.18348000  0.31659000  1.0
  C  C142  1  0.25008000  0.81699000  0.68310000  1.0
  C  C143  1  0.75033000  0.18370000  0.68292000  1.0
  C  C144  1  0.74970000  0.81745000  0.31671000  1.0
  C  C145  1  0.21740000  0.71686000  0.24980000  1.0
  C  C146  1  0.78275000  0.28220000  0.25021000  1.0
  C  C147  1  0.21749000  0.28236000  0.74992000  1.0
  C  C148  1  0.78267000  0.71718000  0.75008000  1.0
  C  C149  1  0.28272000  0.24977000  0.78260000  1.0
  C  C150  1  0.71738000  0.24981000  0.21747000  1.0
  C  C151  1  0.71717000  0.74993000  0.78251000  1.0
  C  C152  1  0.28238000  0.74965000  0.21711000  1.0
  C  C153  1  0.75004000  0.78242000  0.71747000  1.0
  C  C154  1  0.74996000  0.21713000  0.28275000  1.0
  C  C155  1  0.24980000  0.78216000  0.28271000  1.0
  C  C156  1  0.25020000  0.21686000  0.71740000  1.0
  C  C157  1  0.78259000  0.28314000  0.75021000  1.0
  C  C158  1  0.21724000  0.71780000  0.74979000  1.0
  C  C159  1  0.78252000  0.71764000  0.25008000  1.0
  C  C160  1  0.21732000  0.28282000  0.24992000  1.0
  C  C161  1  0.71728000  0.75023000  0.21740000  1.0
  C  C162  1  0.28262000  0.75019000  0.78253000  1.0
  C  C163  1  0.28282000  0.25007000  0.21749000  1.0
  C  C164  1  0.71762000  0.25035000  0.78290000  1.0
  C  C165  1  0.24996000  0.21758000  0.28253000  1.0
  C  C166  1  0.25004000  0.78287000  0.71725000  1.0
  C  C167  1  0.75020000  0.21784000  0.71730000  1.0
  C  C168  1  0.74980000  0.78314000  0.28261000  1.0
  C  C169  1  0.21777000  0.74952000  0.28209000  1.0
  C  C170  1  0.78215000  0.24964000  0.28232000  1.0
  C  C171  1  0.21802000  0.24958000  0.71778000  1.0
  C  C172  1  0.78225000  0.74972000  0.71799000  1.0
  C  C173  1  0.25005000  0.28198000  0.78211000  1.0
  C  C174  1  0.75008000  0.28181000  0.21805000  1.0
  C  C175  1  0.74991000  0.71775000  0.78211000  1.0
  C  C176  1  0.24995000  0.71742000  0.21756000  1.0
  C  C177  1  0.71776000  0.78203000  0.74998000  1.0
  C  C178  1  0.71784000  0.21771000  0.25005000  1.0
  C  C179  1  0.28187000  0.78175000  0.24997000  1.0
  C  C180  1  0.28234000  0.21744000  0.75002000  1.0
  C  C181  1  0.78223000  0.25047000  0.71791000  1.0
  C  C182  1  0.21785000  0.75036000  0.71768000  1.0
  C  C183  1  0.78198000  0.75042000  0.28222000  1.0
  C  C184  1  0.21775000  0.25028000  0.28201000  1.0
  C  C185  1  0.74995000  0.71802000  0.21789000  1.0
  C  C186  1  0.24992000  0.71819000  0.78195000  1.0
  C  C187  1  0.25008000  0.28225000  0.21789000  1.0
  C  C188  1  0.75005000  0.28257000  0.78245000  1.0
  C  C189  1  0.28224000  0.21797000  0.25002000  1.0
  C  C190  1  0.28216000  0.78229000  0.74996000  1.0
  C  C191  1  0.71813000  0.21824000  0.75004000  1.0
  C  C192  1  0.71766000  0.78256000  0.24999000  1.0
  C  C193  1  0.15972000  0.60885000  0.23132000  1.0
  C  C194  1  0.84103000  0.38992000  0.23300000  1.0
  C  C195  1  0.15945000  0.39048000  0.76763000  1.0
  C  C196  1  0.84101000  0.60932000  0.76798000  1.0
  C  C197  1  0.39065000  0.23224000  0.84050000  1.0
  C  C198  1  0.60947000  0.23206000  0.15912000  1.0
  C  C199  1  0.60904000  0.76855000  0.84032000  1.0
  C  C200  1  0.39011000  0.76705000  0.15886000  1.0
  C  C201  1  0.76779000  0.84024000  0.60970000  1.0
  C  C202  1  0.76792000  0.15908000  0.39061000  1.0
  C  C203  1  0.23149000  0.84032000  0.39092000  1.0
  C  C204  1  0.23289000  0.15860000  0.60946000  1.0
  C  C205  1  0.89079000  0.34004000  0.26865000  1.0
  C  C206  1  0.10970000  0.65881000  0.26708000  1.0
  C  C207  1  0.10951000  0.34044000  0.73226000  1.0
  C  C208  1  0.89069000  0.65891000  0.73215000  1.0
  C  C209  1  0.26845000  0.10872000  0.65933000  1.0
  C  C210  1  0.26698000  0.89010000  0.34123000  1.0
  C  C211  1  0.73225000  0.89034000  0.65975000  1.0
  C  C212  1  0.73194000  0.10939000  0.34083000  1.0
  C  C213  1  0.65885000  0.73292000  0.89022000  1.0
  C  C214  1  0.34029000  0.73141000  0.10894000  1.0
  C  C215  1  0.65911000  0.26791000  0.10958000  1.0
  C  C216  1  0.34051000  0.26773000  0.89057000  1.0
  C  C217  1  0.84027000  0.39114000  0.76868000  1.0
  C  C218  1  0.15896000  0.61008000  0.76700000  1.0
  C  C219  1  0.84053000  0.60952000  0.23237000  1.0
  C  C220  1  0.15899000  0.39067000  0.23202000  1.0
  C  C221  1  0.60935000  0.76776000  0.15951000  1.0
  C  C222  1  0.39053000  0.76794000  0.84089000  1.0
  C  C223  1  0.39096000  0.23145000  0.15968000  1.0
  C  C224  1  0.60988000  0.23295000  0.84115000  1.0
  C  C225  1  0.23221000  0.15977000  0.39031000  1.0
  C  C226  1  0.23208000  0.84092000  0.60940000  1.0
  C  C227  1  0.76851000  0.15968000  0.60909000  1.0
  C  C228  1  0.76710000  0.84141000  0.39054000  1.0
  C  C229  1  0.10921000  0.65996000  0.73135000  1.0
  C  C230  1  0.89029000  0.34119000  0.73293000  1.0
  C  C231  1  0.89048000  0.65954000  0.26775000  1.0
  C  C232  1  0.10931000  0.34109000  0.26785000  1.0
  C  C233  1  0.73155000  0.89129000  0.34067000  1.0
  C  C234  1  0.73302000  0.10990000  0.65878000  1.0
  C  C235  1  0.26774000  0.10967000  0.34025000  1.0
  C  C236  1  0.26805000  0.89061000  0.65918000  1.0
  C  C237  1  0.34115000  0.26708000  0.10978000  1.0
  C  C238  1  0.65971000  0.26859000  0.89107000  1.0
  C  C239  1  0.34088000  0.73209000  0.89042000  1.0
  C  C240  1  0.65949000  0.73227000  0.10944000  1.0
  C  C241  1  0.19189000  0.64081000  0.23223000  1.0
  C  C242  1  0.80879000  0.35807000  0.23325000  1.0
  C  C243  1  0.19170000  0.35843000  0.76708000  1.0
  C  C244  1  0.80865000  0.64128000  0.76731000  1.0
  C  C245  1  0.35869000  0.23271000  0.80828000  1.0
  C  C246  1  0.64140000  0.23268000  0.19143000  1.0
  C  C247  1  0.64108000  0.76756000  0.80811000  1.0
  C  C248  1  0.35820000  0.76677000  0.19112000  1.0
  C  C249  1  0.76730000  0.80807000  0.64158000  1.0
  C  C250  1  0.76724000  0.19129000  0.35872000  1.0
  C  C251  1  0.23241000  0.80801000  0.35884000  1.0
  C  C252  1  0.23318000  0.19088000  0.64149000  1.0
  C  C253  1  0.85880000  0.30787000  0.26775000  1.0
  C  C254  1  0.14155000  0.69101000  0.26682000  1.0
  C  C255  1  0.14153000  0.30817000  0.73276000  1.0
  C  C256  1  0.85869000  0.69124000  0.73285000  1.0
  C  C257  1  0.26758000  0.14075000  0.69166000  1.0
  C  C258  1  0.26673000  0.85809000  0.30890000  1.0
  C  C259  1  0.73280000  0.85840000  0.69187000  1.0
  C  C260  1  0.73260000  0.14125000  0.30859000  1.0
  C  C261  1  0.69114000  0.73311000  0.85834000  1.0
  C  C262  1  0.30806000  0.73230000  0.14095000  1.0
  C  C263  1  0.69141000  0.26718000  0.14153000  1.0
  C  C264  1  0.30833000  0.26716000  0.85857000  1.0
  C  C265  1  0.80810000  0.35918000  0.76778000  1.0
  C  C266  1  0.19120000  0.64193000  0.76675000  1.0
  C  C267  1  0.80829000  0.64157000  0.23292000  1.0
  C  C268  1  0.19135000  0.35872000  0.23269000  1.0
  C  C269  1  0.64131000  0.76729000  0.19172000  1.0
  C  C270  1  0.35860000  0.76731000  0.80857000  1.0
  C  C271  1  0.35892000  0.23244000  0.19189000  1.0
  C  C272  1  0.64179000  0.23323000  0.80888000  1.0
  C  C273  1  0.23269000  0.19194000  0.35842000  1.0
  C  C274  1  0.23276000  0.80871000  0.64128000  1.0
  C  C275  1  0.76759000  0.19199000  0.64116000  1.0
  C  C276  1  0.76682000  0.80913000  0.35852000  1.0
  C  C277  1  0.14119000  0.69213000  0.73225000  1.0
  C  C278  1  0.85844000  0.30898000  0.73319000  1.0
  C  C279  1  0.85846000  0.69182000  0.26725000  1.0
  C  C280  1  0.14131000  0.30876000  0.26715000  1.0
  C  C281  1  0.73242000  0.85925000  0.30834000  1.0
  C  C282  1  0.73327000  0.14191000  0.69110000  1.0
  C  C283  1  0.26720000  0.14161000  0.30813000  1.0
  C  C284  1  0.26740000  0.85875000  0.69142000  1.0
  C  C285  1  0.30886000  0.26689000  0.14166000  1.0
  C  C286  1  0.69194000  0.26770000  0.85905000  1.0
  C  C287  1  0.30859000  0.73281000  0.85847000  1.0
  C  C288  1  0.69167000  0.73285000  0.14143000  1.0
  O  O1  1  0.96069000  0.50000000  0.15305000  1.0
  O  O2  1  0.50003000  0.14750000  0.03485000  1.0
  O  O3  1  0.85252000  0.03483000  0.49997000  1.0
  O  O4  1  0.99998000  0.46515000  0.35249000  1.0
  O  O5  1  0.99997000  0.53930000  0.34710000  1.0
  O  O6  1  0.00003000  0.46070000  0.65289000  1.0
  O  O7  1  0.00002000  0.53485000  0.64751000  1.0
  O  O8  1  0.35256000  0.99993000  0.53482000  1.0
  O  O9  1  0.34695000  0.00004000  0.46066000  1.0
  O  O10  1  0.65304000  0.99996000  0.53934000  1.0
  O  O11  1  0.64744000  0.00007000  0.46519000  1.0
  O  O12  1  0.53931000  0.65291000  0.00002000  1.0
  O  O13  1  0.46516000  0.64748000  0.99996000  1.0
  O  O14  1  0.53484000  0.35251000  0.00004000  1.0
  O  O15  1  0.46069000  0.34708000  0.99998000  1.0
  O  O16  1  0.08897000  0.54997000  0.22461000  1.0
  O  O17  1  0.90925000  0.44824000  0.22526000  1.0
  O  O18  1  0.09118000  0.45040000  0.77285000  1.0
  O  O19  1  0.91157000  0.55183000  0.77684000  1.0
  O  O20  1  0.45042000  0.22714000  0.90879000  1.0
  O  O21  1  0.55188000  0.22325000  0.08855000  1.0
  O  O22  1  0.54998000  0.77530000  0.91104000  1.0
  O  O23  1  0.44852000  0.77462000  0.09073000  1.0
  O  O24  1  0.77288000  0.90839000  0.54997000  1.0
  O  O25  1  0.77682000  0.08859000  0.44816000  1.0
  O  O26  1  0.22471000  0.91091000  0.45013000  1.0
  O  O27  1  0.22740000  0.09096000  0.54975000  1.0
  O  O28  1  0.94981000  0.41096000  0.27535000  1.0
  O  O29  1  0.94821000  0.58842000  0.72315000  1.0
  O  O30  1  0.27534000  0.04966000  0.58904000  1.0
  O  O31  1  0.72318000  0.05188000  0.41141000  1.0
  O  O32  1  0.41104000  0.72469000  0.04997000  1.0
  O  O33  1  0.58856000  0.27675000  0.05189000  1.0
  O  O34  1  0.91103000  0.45003000  0.77539000  1.0
  O  O35  1  0.09075000  0.55176000  0.77474000  1.0
  O  O36  1  0.90881000  0.54959000  0.22714000  1.0
  O  O37  1  0.08843000  0.44818000  0.22318000  1.0
  O  O38  1  0.54957000  0.77286000  0.09122000  1.0
  O  O39  1  0.44812000  0.77676000  0.91145000  1.0
  O  O40  1  0.45002000  0.22470000  0.08896000  1.0
  O  O41  1  0.55147000  0.22538000  0.90927000  1.0
  O  O42  1  0.22712000  0.09162000  0.45004000  1.0
  O  O43  1  0.22318000  0.91141000  0.55184000  1.0
  O  O44  1  0.77529000  0.08908000  0.54989000  1.0
  O  O45  1  0.77256000  0.90903000  0.45028000  1.0
  O  O46  1  0.94859000  0.40926000  0.72531000  1.0
  O  O47  1  0.95033000  0.59114000  0.27283000  1.0
  O  O48  1  0.72690000  0.05058000  0.59100000  1.0
  O  O49  1  0.27277000  0.04975000  0.40861000  1.0
  O  O50  1  0.40929000  0.27459000  0.05148000  1.0
  O  O51  1  0.59124000  0.72713000  0.04956000  1.0
  O  O52  1  0.00028000  0.49957000  0.24995000  1.0
  O  O53  1  0.99972000  0.50043000  0.75004000  1.0
  O  O54  1  0.50040000  0.24999000  0.00042000  1.0
  O  O55  1  0.49960000  0.74999000  0.99958000  1.0
  O  O56  1  0.75000000  0.00049000  0.49972000  1.0
  O  O57  1  0.24999000  0.99951000  0.50029000  1.0
  O  O58  1  0.03483000  0.49999000  0.14742000  1.0
  O  O59  1  0.03930000  0.50000000  0.84694000  1.0
  O  O60  1  0.96516000  0.50001000  0.85258000  1.0
  O  O61  1  0.49997000  0.15289000  0.96070000  1.0
  O  O62  1  0.49997000  0.85250000  0.96515000  1.0
  O  O63  1  0.50003000  0.84710000  0.03930000  1.0
  O  O64  1  0.84707000  0.96067000  0.50008000  1.0
  O  O65  1  0.14748000  0.96518000  0.50003000  1.0
  O  O66  1  0.15292000  0.03933000  0.49992000  1.0
  O  O67  1  0.05138000  0.59075000  0.27467000  1.0
  O  O68  1  0.04966000  0.40885000  0.72715000  1.0
  O  O69  1  0.27300000  0.94948000  0.40898000  1.0
  O  O70  1  0.72722000  0.95026000  0.59140000  1.0
  O  O71  1  0.59071000  0.72540000  0.94852000  1.0
  O  O72  1  0.40876000  0.27287000  0.95044000  1.0
  O  O73  1  0.05019000  0.58904000  0.72465000  1.0
  O  O74  1  0.05178000  0.41157000  0.27685000  1.0
  O  O75  1  0.72464000  0.95035000  0.41096000  1.0
  O  O76  1  0.27682000  0.94812000  0.58859000  1.0
  O  O77  1  0.58896000  0.27531000  0.95004000  1.0
  O  O78  1  0.41144000  0.72325000  0.94811000  1.0
