# generated using pymatgen
data_ZnH7C13NO4
_symmetry_space_group_name_H-M   'P 1'
_cell_length_a   11.91636000
_cell_length_b   13.89764000
_cell_length_c   14.14950000
_cell_angle_alpha   90.00000000
_cell_angle_beta   90.00000000
_cell_angle_gamma   114.93638000
_symmetry_Int_Tables_number   1
_chemical_formula_structural   ZnH7C13NO4
_chemical_formula_sum   'Zn4 H28 C52 N4 O16'
_cell_volume   2124.83895602
_cell_formula_units_Z   4
loop_
 _symmetry_equiv_pos_site_id
 _symmetry_equiv_pos_as_xyz
  1  'x, y, z'
loop_
 _atom_site_type_symbol
 _atom_site_label
 _atom_site_symmetry_multiplicity
 _atom_site_fract_x
 _atom_site_fract_y
 _atom_site_fract_z
 _atom_site_occupancy
  Zn  Zn0  1  0.38819000  0.95172000  0.05555000  1
  Zn  Zn1  1  0.61181000  0.54829000  0.55555000  1
  Zn  Zn2  1  0.61181000  0.04829000  0.94445000  1
  Zn  Zn3  1  0.38819000  0.45172000  0.44445000  1
  H  H4  1  0.48576000  0.73650000  0.24953000  1
  H  H5  1  0.82781000  0.71629000  0.31278000  1
  H  H6  1  0.80540000  0.90974000  0.08007000  1
  H  H7  1  0.03645000  0.84478000  0.30570000  1
  H  H8  1  0.25231000  0.89469000  0.24911000  1
  H  H9  1  0.15048000  0.89765000  0.97004000  1
  H  H10  1  0.92990000  0.84675000  0.01406000  1
  H  H11  1  0.51424000  0.76350000  0.74953000  1
  H  H12  1  0.17219000  0.78371000  0.81278000  1
  H  H13  1  0.19460000  0.59026000  0.58007000  1
  H  H14  1  0.96355000  0.65522000  0.80570000  1
  H  H15  1  0.74769000  0.60531000  0.74911000  1
  H  H16  1  0.84953000  0.60235000  0.47004000  1
  H  H17  1  0.07010000  0.65326000  0.51405000  1
  H  H18  1  0.51424000  0.26350000  0.75047000  1
  H  H19  1  0.17219000  0.28371000  0.68722000  1
  H  H20  1  0.19460000  0.09026000  0.91993000  1
  H  H21  1  0.96356000  0.15522000  0.69430000  1
  H  H22  1  0.74769000  0.10531000  0.75089000  1
  H  H23  1  0.84953000  0.10236000  0.02996000  1
  H  H24  1  0.07010000  0.15326000  0.98595000  1
  H  H25  1  0.48576000  0.23651000  0.25047000  1
  H  H26  1  0.82781000  0.21629000  0.18722000  1
  H  H27  1  0.80541000  0.40975000  0.41993000  1
  H  H28  1  0.03645000  0.34478000  0.19430000  1
  H  H29  1  0.25231000  0.39469000  0.25089000  1
  H  H30  1  0.15048000  0.39765000  0.52996000  1
  H  H31  1  0.92991000  0.34675000  0.48595000  1
  C  C32  1  0.57320000  0.88034000  0.10278000  1
  C  C33  1  0.64033000  0.82992000  0.16008000  1
  C  C34  1  0.58307000  0.75950000  0.23411000  1
  C  C35  1  0.65186000  0.71953000  0.28877000  1
  C  C36  1  0.77724000  0.74916000  0.26922000  1
  C  C37  1  0.83403000  0.81547000  0.19207000  1
  C  C38  1  0.76426000  0.85572000  0.13865000  1
  C  C39  1  0.59105000  0.64146000  0.36663000  1
  C  C40  1  0.96329000  0.84215000  0.16460000  1
  C  C41  1  0.05683000  0.85433000  0.23041000  1
  C  C42  1  0.17756000  0.88250000  0.19958000  1
  C  C43  1  0.12034000  0.88498000  0.04341000  1
  C  C44  1  0.99831000  0.85754000  0.06878000  1
  C  C45  1  0.42681000  0.61966000  0.60278000  1
  C  C46  1  0.35967000  0.67009000  0.66008000  1
  C  C47  1  0.41693000  0.74050000  0.73410000  1
  C  C48  1  0.34815000  0.78047000  0.78877000  1
  C  C49  1  0.22277000  0.75084000  0.76922000  1
  C  C50  1  0.16597000  0.68453000  0.69206000  1
  C  C51  1  0.23575000  0.64429000  0.63865000  1
  C  C52  1  0.40896000  0.85855000  0.86663000  1
  C  C53  1  0.03672000  0.65785000  0.66460000  1
  C  C54  1  0.94318000  0.64567000  0.73041000  1
  C  C55  1  0.82244000  0.61750000  0.69958000  1
  C  C56  1  0.87966000  0.61502000  0.54341000  1
  C  C57  1  0.00170000  0.64246000  0.56878000  1
  C  C58  1  0.42681000  0.11966000  0.89722000  1
  C  C59  1  0.35967000  0.17009000  0.83992000  1
  C  C60  1  0.41693000  0.24051000  0.76590000  1
  C  C61  1  0.34815000  0.28047000  0.71123000  1
  C  C62  1  0.22277000  0.25084000  0.73078000  1
  C  C63  1  0.16597000  0.18453000  0.80794000  1
  C  C64  1  0.23575000  0.14429000  0.86135000  1
  C  C65  1  0.40896000  0.35855000  0.63337000  1
  C  C66  1  0.03672000  0.15786000  0.83540000  1
  C  C67  1  0.94318000  0.14568000  0.76959000  1
  C  C68  1  0.82244000  0.11750000  0.80043000  1
  C  C69  1  0.87966000  0.11502000  0.95659000  1
  C  C70  1  0.00170000  0.14246000  0.93123000  1
  C  C71  1  0.57320000  0.38034000  0.39722000  1
  C  C72  1  0.64033000  0.32992000  0.33992000  1
  C  C73  1  0.58307000  0.25950000  0.26590000  1
  C  C74  1  0.65186000  0.21953000  0.21123000  1
  C  C75  1  0.77724000  0.24916000  0.23078000  1
  C  C76  1  0.83404000  0.31548000  0.30794000  1
  C  C77  1  0.76426000  0.35572000  0.36135000  1
  C  C78  1  0.59105000  0.14146000  0.13337000  1
  C  C79  1  0.96329000  0.34215000  0.33540000  1
  C  C80  1  0.05683000  0.35433000  0.26959000  1
  C  C81  1  0.17756000  0.38250000  0.30043000  1
  C  C82  1  0.12034000  0.38498000  0.45659000  1
  C  C83  1  0.99831000  0.35755000  0.43123000  1
  N  N84  1  0.20972000  0.89810000  0.10744000  1
  N  N85  1  0.79028000  0.60191000  0.60743000  1
  N  N86  1  0.79028000  0.10191000  0.89257000  1
  N  N87  1  0.20973000  0.39810000  0.39257000  1
  O  O88  1  0.63379000  0.93773000  0.03385000  1
  O  O89  1  0.46364000  0.86359000  0.12768000  1
  O  O90  1  0.47946000  0.57581000  0.35264000  1
  O  O91  1  0.65784000  0.64703000  0.43862000  1
  O  O92  1  0.36621000  0.56227000  0.53385000  1
  O  O93  1  0.53636000  0.63641000  0.62768000  1
  O  O94  1  0.52055000  0.92419000  0.85264000  1
  O  O95  1  0.34216000  0.85297000  0.93862000  1
  O  O96  1  0.36621000  0.06227000  0.96615000  1
  O  O97  1  0.53636000  0.13642000  0.87232000  1
  O  O98  1  0.52055000  0.42420000  0.64736000  1
  O  O99  1  0.34216000  0.35297000  0.56138000  1
  O  O100  1  0.63379000  0.43774000  0.46615000  1
  O  O101  1  0.46364000  0.36359000  0.37232000  1
  O  O102  1  0.47946000  0.07581000  0.14736000  1
  O  O103  1  0.65784000  0.14704000  0.06139000  1
