# generated using pymatgen
data_H15C24(NO)2
_symmetry_space_group_name_H-M   'P 1'
_cell_length_a   10.00000000
_cell_length_b   19.61260000
_cell_length_c   19.61260000
_cell_angle_alpha   90.00000000
_cell_angle_beta   90.00000000
_cell_angle_gamma   90.00000000
_symmetry_Int_Tables_number   1
_chemical_formula_structural   H15C24(NO)2
_chemical_formula_sum   'H30 C48 N4 O4'
_cell_volume   3846.54078760
_cell_formula_units_Z   2
loop_
 _symmetry_equiv_pos_site_id
 _symmetry_equiv_pos_as_xyz
  1  'x, y, z'
loop_
 _atom_site_type_symbol
 _atom_site_label
 _atom_site_symmetry_multiplicity
 _atom_site_fract_x
 _atom_site_fract_y
 _atom_site_fract_z
 _atom_site_occupancy
  C  1  1  0.96902100  0.97736200  0.02048300  1
  C  2  1  0.93916900  0.90964400  0.99859200  1
  C  3  1  0.87218100  0.86325600  0.04285900  1
  C  4  1  0.83010200  0.88725200  0.10730300  1
  C  5  1  0.87191900  0.95082800  0.13399000  1
  C  6  1  0.93775000  0.99705200  0.08879400  1
  C  7  1  0.97041000  0.89145200  0.93072400  1
  C  8  1  0.96698900  0.06476900  0.10840100  1
  C  10  1  0.03226800  0.02456700  0.97466400  1
  C  11  1  0.06316900  0.00464100  0.90639600  1
  C  12  1  0.13104100  0.05018300  0.86152800  1
  C  13  1  0.17452000  0.11338100  0.88808200  1
  C  14  1  0.13306800  0.13800900  0.95251600  1
  C  15  1  0.06389100  0.09211000  0.99665600  1
  C  16  1  0.03288000  0.93717400  0.88637400  1
  C  18  1  0.03216900  0.11005300  0.06455600  1
  C  23  1  0.85639900  0.96114800  0.20563500  1
  C  24  1  0.85969100  0.79209800  0.02997500  1
  C  25  1  0.14712000  0.03911800  0.79018000  1
  C  26  1  0.15325900  0.20872300  0.96600600  1
  C  31  1  0.96524000  0.99403400  0.31472700  1
  C  32  1  0.09181800  0.00570600  0.34488900  1
  C  33  1  0.10868100  0.00939600  0.41588700  1
  C  34  1  0.99915100  0.00309000  0.46142700  1
  C  35  1  0.86990100  0.99615600  0.43154400  1
  C  36  1  0.85491200  0.99126600  0.35993600  1
  C  38  1  0.01336000  0.00467000  0.53400400  1
  C  39  1  0.13864100  0.99944000  0.56764000  1
  C  40  1  0.14972000  0.00280500  0.63898800  1
  C  41  1  0.03632000  0.01176300  0.68107200  1
  C  42  1  0.91049000  0.01341900  0.64800600  1
  C  43  1  0.89783000  0.01012200  0.57624200  1
  C  48  1  0.76398100  0.02128300  0.54517600  1
  C  49  1  0.75044800  0.98534600  0.47545900  1
  C  59  1  0.98107200  0.68525800  0.00628200  1
  C  60  1  0.10916100  0.65524800  0.01182300  1
  C  61  1  0.12655100  0.58419600  0.01178400  1
  C  62  1  0.01712000  0.53875000  0.00402300  1
  C  63  1  0.88858200  0.56884400  0.99431400  1
  C  64  1  0.87230100  0.64049600  0.99529400  1
  C  66  1  0.03045100  0.46606800  0.00494500  1
  C  67  1  0.15551900  0.43184600  0.00484400  1
  C  68  1  0.16468200  0.36044700  0.00153000  1
  C  69  1  0.04960200  0.31868900  0.99804200  1
  C  70  1  0.92471900  0.35230900  0.00357900  1
  C  71  1  0.91385900  0.42418200  0.00568000  1
  C  76  1  0.77937900  0.45566600  0.01356800  1
  C  77  1  0.77180100  0.52518800  0.97689200  1
  H  9  1  0.78878900  0.85264000  0.14024000  1
  H  17  1  0.21774900  0.14724200  0.85500200  1
  H  19  1  0.05835000  0.91924600  0.83921600  1
  H  20  1  0.94666200  0.84445800  0.91173000  1
  H  21  1  0.05762000  0.15652600  0.08413100  1
  H  22  1  0.94044100  0.08296100  0.15528700  1
  H  37  1  0.76041900  0.98717200  0.34102000  1
  H  44  1  0.22487900  0.99109800  0.54118200  1
  H  45  1  0.24226100  0.99590600  0.65983000  1
  H  46  1  0.82610800  0.02056900  0.67673400  1
  H  47  1  0.17540900  0.00947800  0.31497100  1
  H  50  1  0.74984000  0.07616000  0.53837800  1
  H  51  1  0.68420900  0.00264500  0.57850000  1
  H  52  1  0.65966000  0.00428800  0.45074000  1
  H  53  1  0.73848900  0.93050400  0.48350600  1
  H  54  1  0.20341000  0.01797400  0.43310000  1
  H  56  1  0.95604000  0.01491800  0.77438000  1
  H  58  1  0.04165900  0.99425800  0.22071700  1
  H  65  1  0.78016900  0.66023400  0.98458600  1
  H  72  1  0.24367100  0.45787900  0.00496700  1
  H  73  1  0.25799100  0.33957300  0.00338600  1
  H  74  1  0.83887200  0.32383300  0.00347900  1
  H  75  1  0.19151000  0.68522200  0.01985000  1
  H  78  1  0.76029900  0.46298300  0.06798600  1
  H  79  1  0.70049900  0.42278400  0.99324400  1
  H  80  1  0.67733100  0.54972400  0.99068000  1
  H  81  1  0.77156100  0.51695400  0.92174000  1
  H  82  1  0.22139000  0.56700200  0.01976300  1
  H  84  1  0.96566100  0.22630800  0.99488000  1
  H  86  1  0.05350900  0.78013600  0.00905000  1
  N  55  1  0.04165000  0.01846200  0.75066600  1
  N  57  1  0.95806000  0.98638200  0.24513700  1
  N  83  1  0.05187000  0.24914000  0.98995600  1
  N  85  1  0.96953100  0.75473400  0.01131300  1
  O  27  1  0.75631800  0.92650600  0.23697900  1
  O  28  1  0.75672100  0.75854800  0.06015600  1
  O  29  1  0.25022000  0.07112800  0.75848200  1
  O  30  1  0.25785200  0.23932100  0.93422000  1
