# generated using pymatgen
data_ZnH14C20N(O2F3)2
_symmetry_space_group_name_H-M   'P 1'
_cell_length_a   19.26900229
_cell_length_b   19.26900218
_cell_length_c   27.63730606
_cell_angle_alpha   110.40220133
_cell_angle_beta   110.40312388
_cell_angle_gamma   89.99823913
_symmetry_Int_Tables_number   1
_chemical_formula_structural   ZnH14C20N(O2F3)2
_chemical_formula_sum   'Zn8 H112 C160 N8 O32 F48'
_cell_volume   8927.81955500
_cell_formula_units_Z   8
loop_
 _symmetry_equiv_pos_site_id
 _symmetry_equiv_pos_as_xyz
  1  'x, y, z'
loop_
 _atom_site_type_symbol
 _atom_site_label
 _atom_site_symmetry_multiplicity
 _atom_site_fract_x
 _atom_site_fract_y
 _atom_site_fract_z
 _atom_site_occupancy
  Zn  Zn1  1  0.07918813  0.50545925  0.51091685  1.0
  Zn  Zn2  1  0.50545760  0.43172870  0.01091684  1.0
  Zn  Zn3  1  0.43172134  0.50543523  0.51088541  1.0
  Zn  Zn4  1  0.49454983  0.92083595  0.98911460  1.0
  Zn  Zn5  1  0.50545016  0.07916407  0.01088540  1.0
  Zn  Zn6  1  0.49454239  0.56827128  0.98908316  1.0
  Zn  Zn7  1  0.92081185  0.49454076  0.48908316  1.0
  Zn  Zn8  1  0.56827866  0.49456476  0.48911459  1.0
  H  H1  1  0.39425550  0.76833545  0.91335145  1.0
  H  H2  1  0.36808399  0.74982297  0.19116074  1.0
  H  H3  1  0.07566258  0.58213468  0.38277820  1.0
  H  H4  1  0.17692421  0.25018330  0.80884485  1.0
  H  H5  1  0.39424982  0.64502032  0.91335515  1.0
  H  H6  1  0.86061863  0.16937918  0.20525148  1.0
  H  H7  1  0.67687522  0.38006789  0.47697639  1.0
  H  H8  1  0.61992349  0.32311403  0.02302154  1.0
  H  H9  1  0.64501600  0.51909593  0.41335145  1.0
  H  H10  1  0.82307579  0.74981669  0.19115516  1.0
  H  H11  1  0.59691189  0.67687873  0.97697751  1.0
  H  H12  1  0.32312806  0.40310115  0.52302802  1.0
  H  H13  1  0.47990925  0.73548077  0.63085617  1.0
  H  H14  1  0.84906589  0.26450122  0.36913567  1.0
  H  H15  1  0.05866225  0.17692326  0.30883927  1.0
  H  H16  1  0.34464112  0.53590064  0.20526394  1.0
  H  H17  1  0.69287176  0.41785177  0.61722414  1.0
  H  H18  1  0.19990123  0.61993438  0.52302249  1.0
  H  H19  1  0.51910767  0.64502587  0.91335658  1.0
  H  H20  1  0.60462461  0.84905307  0.86914384  1.0
  H  H21  1  0.40309150  0.19989882  0.02302361  1.0
  H  H22  1  0.57769821  0.72021858  0.06374207  1.0
  H  H23  1  0.73550706  0.47992286  0.13086427  1.0
  H  H24  1  0.72022417  0.48604867  0.56374345  1.0
  H  H25  1  0.39536555  0.47993023  0.13086433  1.0
  H  H26  1  0.94133846  0.36807935  0.69115516  1.0
  H  H27  1  0.16936328  0.86062282  0.70526393  1.0
  H  H28  1  0.74980813  0.82307536  0.69115801  1.0
  H  H29  1  0.16936274  0.34462434  0.70526012  1.0
  H  H30  1  0.38007649  0.67688597  0.97697846  1.0
  H  H31  1  0.19990751  0.40309804  0.52302154  1.0
  H  H32  1  0.57769476  0.84351927  0.06374345  1.0
  H  H33  1  0.73548358  0.15095149  0.13085392  1.0
  H  H34  1  0.65535423  0.83062239  0.79474201  1.0
  H  H35  1  0.69937236  0.92435237  0.11722415  1.0
  H  H36  1  0.26451640  0.84904849  0.86914608  1.0
  H  H37  1  0.67687192  0.59689885  0.47697197  1.0
  H  H38  1  0.58214266  0.30711652  0.88278054  1.0
  H  H39  1  0.17691182  0.05864117  0.80884078  1.0
  H  H40  1  0.69287285  0.69936392  0.61721936  1.0
  H  H41  1  0.35498169  0.60574854  0.58664359  1.0
  H  H42  1  0.46411963  0.13938778  0.29474201  1.0
  H  H43  1  0.42230177  0.27978142  0.93625792  1.0
  H  H44  1  0.76833483  0.51910532  0.41335514  1.0
  H  H45  1  0.23166516  0.48089468  0.58664486  1.0
  H  H46  1  0.52009758  0.60462966  0.36914609  1.0
  H  H47  1  0.41785543  0.92434650  0.11721935  1.0
  H  H48  1  0.80009877  0.38006562  0.47697752  1.0
  H  H49  1  0.38007312  0.80010005  0.97697198  1.0
  H  H50  1  0.65535888  0.46409935  0.79473606  1.0
  H  H51  1  0.51397266  0.15647804  0.93626329  1.0
  H  H52  1  0.13938136  0.83062085  0.79474852  1.0
  H  H53  1  0.13936423  0.46410261  0.79473988  1.0
  H  H54  1  0.94133777  0.82307675  0.69116074  1.0
  H  H55  1  0.48602734  0.84352195  0.06373672  1.0
  H  H56  1  0.36808264  0.94134988  0.19115801  1.0
  H  H57  1  0.46412770  0.65536715  0.29474853  1.0
  H  H58  1  0.53588038  0.86061222  0.70525800  1.0
  H  H59  1  0.83063672  0.13937718  0.29473607  1.0
  H  H60  1  0.27977583  0.51395132  0.43625655  1.0
  H  H61  1  0.27978525  0.42229062  0.43626329  1.0
  H  H62  1  0.52009074  0.26451923  0.36914384  1.0
  H  H63  1  0.30062762  0.07564760  0.88277585  1.0
  H  H64  1  0.92433598  0.69936212  0.61721947  1.0
  H  H65  1  0.07566403  0.30063787  0.38278053  1.0
  H  H66  1  0.48089232  0.35497412  0.08664342  1.0
  H  H67  1  0.25019187  0.17692462  0.30884199  1.0
  H  H68  1  0.84352349  0.48604385  0.56374207  1.0
  H  H69  1  0.63191736  0.05865013  0.80884199  1.0
  H  H70  1  0.30712714  0.30063608  0.38278064  1.0
  H  H71  1  0.80009249  0.59690196  0.47697846  1.0
  H  H72  1  0.41785733  0.69288350  0.11721946  1.0
  H  H73  1  0.74980038  0.36807104  0.69115923  1.0
  H  H74  1  0.34464577  0.16937762  0.20525799  1.0
  H  H75  1  0.86063576  0.53589738  0.20526012  1.0
  H  H76  1  0.05866153  0.63192064  0.30884484  1.0
  H  H77  1  0.63191600  0.25017702  0.80883926  1.0
  H  H78  1  0.15094142  0.39535720  0.63086428  1.0
  H  H79  1  0.39537538  0.15094691  0.13085616  1.0
  H  H80  1  0.58214456  0.07565348  0.88278064  1.0
  H  H81  1  0.23166928  0.60575109  0.58664342  1.0
  H  H82  1  0.59690849  0.80010116  0.97697639  1.0
  H  H83  1  0.82308819  0.94135885  0.19115923  1.0
  H  H84  1  0.26449292  0.52007715  0.86913573  1.0
  H  H85  1  0.15647652  0.51395616  0.43625793  1.0
  H  H86  1  0.61992687  0.19989995  0.02302802  1.0
  H  H87  1  0.84905857  0.60464280  0.36913572  1.0
  H  H88  1  0.48602818  0.72021120  0.06373740  1.0
  H  H89  1  0.15647380  0.42229079  0.43626260  1.0
  H  H90  1  0.30064352  0.30711562  0.88277820  1.0
  H  H91  1  0.30712823  0.58214822  0.38277586  1.0
  H  H92  1  0.60574448  0.23166454  0.08664855  1.0
  H  H93  1  0.42230523  0.15648072  0.93625655  1.0
  H  H94  1  0.25019962  0.63192896  0.30884077  1.0
  H  H95  1  0.35498399  0.48090405  0.58664855  1.0
  H  H96  1  0.64501830  0.39425147  0.41335641  1.0
  H  H97  1  0.51910495  0.76833810  0.91335641  1.0
  H  H98  1  0.83063726  0.65537565  0.29473988  1.0
  H  H99  1  0.69935646  0.69288440  0.11722179  1.0
  H  H100  1  0.72021475  0.57770937  0.56373671  1.0
  H  H101  1  0.51397180  0.27978880  0.93626259  1.0
  H  H102  1  0.15093412  0.73549878  0.63086433  1.0
  H  H103  1  0.32312478  0.61993210  0.52302361  1.0
  H  H104  1  0.48089505  0.23166188  0.08664359  1.0
  H  H105  1  0.76833072  0.39424890  0.41335659  1.0
  H  H106  1  0.60575016  0.35497968  0.08664485  1.0
  H  H107  1  0.47990241  0.39537032  0.63085392  1.0
  H  H108  1  0.84352620  0.57770921  0.56373740  1.0
  H  H109  1  0.60463445  0.52006980  0.86913567  1.0
  H  H110  1  0.53587232  0.34463283  0.70525149  1.0
  H  H111  1  0.92433741  0.41786532  0.61722181  1.0
  H  H112  1  0.40308809  0.32312126  0.02302248  1.0
  C  C1  1  0.85032186  0.05725465  0.20437426  1.0
  C  C2  1  0.98502729  0.65848724  0.21979881  1.0
  C  C3  1  0.40186723  0.97802016  0.13699834  1.0
  C  C4  1  0.02199425  0.26486737  0.36300359  1.0
  C  C5  1  0.10552682  0.75551986  0.64460651  1.0
  C  C6  1  0.31242774  0.58497883  0.54434517  1.0
  C  C7  1  0.65846709  0.23475907  0.71977911  1.0
  C  C8  1  0.23478014  0.06131387  0.21978994  1.0
  C  C9  1  0.30921501  0.19524704  0.32118749  1.0
  C  C10  1  0.01497271  0.34151277  0.78020119  1.0
  C  C11  1  0.45936634  0.23191741  0.04434517  1.0
  C  C12  1  0.96338932  0.58971734  0.38010860  1.0
  C  C13  1  0.34152392  0.01499020  0.28021006  1.0
  C  C14  1  0.19523377  0.01196636  0.82119153  1.0
  C  C15  1  0.65847609  0.98500980  0.71978993  1.0
  C  C16  1  0.94276377  0.64594606  0.29562122  1.0
  C  C17  1  0.70960539  0.03662377  0.11988815  1.0
  C  C18  1  0.58497301  0.23191982  0.04435035  1.0
  C  C19  1  0.64592052  0.35284357  0.79560766  1.0
  C  C20  1  0.02199360  0.59813883  0.36300559  1.0
  C  C21  1  0.57065792  0.82527083  0.68616998  1.0
  C  C22  1  0.75552620  0.53907219  0.14460216  1.0
  C  C23  1  0.41028792  0.58328059  0.11989475  1.0
  C  C24  1  0.97426993  0.36627550  0.42388243  1.0
  C  C25  1  0.58497309  0.31242356  0.04434743  1.0
  C  C26  1  0.03661422  0.70960683  0.61989476  1.0
  C  C27  1  0.31243052  0.45937733  0.54435036  1.0
  C  C28  1  0.44239749  0.02569807  0.07611378  1.0
  C  C29  1  0.93868842  0.76522843  0.28020116  1.0
  C  C30  1  0.63372898  0.02570709  0.07610233  1.0
  C  C31  1  0.47850567  0.18850773  0.95699541  1.0
  C  C32  1  0.41029489  0.03661909  0.11989312  1.0
  C  C33  1  0.23192385  0.45937433  0.54434743  1.0
  C  C34  1  0.14967515  0.35285743  0.79562123  1.0
  C  C35  1  0.14967815  0.94274539  0.79562572  1.0
  C  C36  1  0.68757225  0.41502118  0.45565483  1.0
  C  C37  1  0.01198472  0.19524574  0.32118558  1.0
  C  C38  1  0.37405956  0.98802751  0.17881251  1.0
  C  C39  1  0.55760695  0.44961218  0.92388249  1.0
  C  C40  1  0.47850532  0.26849219  0.95699509  1.0
  C  C41  1  0.62594045  0.01197245  0.82118748  1.0
  C  C42  1  0.41502689  0.68757643  0.95565257  1.0
  C  C43  1  0.44958413  0.36628371  0.42388624  1.0
  C  C44  1  0.01198562  0.62595364  0.32119460  1.0
  C  C45  1  0.24447378  0.46092773  0.85539783  1.0
  C  C46  1  0.36089111  0.57068015  0.18617646  1.0
  C  C47  1  0.36089913  0.11551204  0.18616997  1.0
  C  C48  1  0.02572996  0.63372449  0.57611755  1.0
  C  C49  1  0.88450494  0.63912738  0.31383154  1.0
  C  C50  1  0.61091335  0.46092028  0.85539348  1.0
  C  C51  1  0.34153297  0.76524096  0.28022091  1.0
  C  C52  1  0.89447319  0.24448014  0.35539350  1.0
  C  C53  1  0.62593983  0.30920087  0.82118556  1.0
  C  C54  1  0.53905370  0.38909199  0.64459811  1.0
  C  C55  1  0.41673565  0.58971724  0.38011186  1.0
  C  C56  1  0.40186376  0.65899064  0.13699641  1.0
  C  C57  1  0.75550611  0.10554444  0.14459810  1.0
  C  C58  1  0.36627263  0.44960421  0.92388871  1.0
  C  C59  1  0.19524096  0.30920899  0.82119461  1.0
  C  C60  1  0.35288039  0.64594760  0.29562575  1.0
  C  C61  1  0.26486677  0.34101195  0.86300560  1.0
  C  C62  1  0.80476621  0.98803361  0.17880846  1.0
  C  C63  1  0.89447006  0.61092405  0.35539783  1.0
  C  C64  1  0.65897824  0.73513109  0.63699834  1.0
  C  C65  1  0.46094634  0.61090800  0.35540191  1.0
  C  C66  1  0.98801529  0.80475427  0.67881443  1.0
  C  C67  1  0.92844535  0.07156363  0.24998921  1.0
  C  C68  1  0.55039564  0.44237331  0.57610227  1.0
  C  C69  1  0.97800637  0.40186117  0.63699440  1.0
  C  C70  1  0.64711964  0.35405241  0.70437426  1.0
  C  C71  1  0.29039125  0.41671933  0.88010860  1.0
  C  C72  1  0.34102812  0.59814225  0.36300338  1.0
  C  C73  1  0.01497998  0.93868801  0.78022086  1.0
  C  C74  1  0.54063365  0.76808258  0.95565483  1.0
  C  C75  1  0.73513324  0.65898800  0.13699441  1.0
  C  C76  1  0.69077484  0.37404225  0.67880847  1.0
  C  C77  1  0.82528069  0.11551302  0.18616081  1.0
  C  C78  1  0.54063565  0.68757633  0.95565596  1.0
  C  C79  1  0.11549633  0.82528533  0.68617646  1.0
  C  C80  1  0.55760255  0.97430256  0.92388630  1.0
  C  C81  1  0.58326431  0.41028275  0.61988815  1.0
  C  C82  1  0.69078497  0.80475296  0.67881252  1.0
  C  C83  1  0.67843344  0.92843346  0.75000000  1.0
  C  C84  1  0.63910886  0.42931988  0.81382353  1.0
  C  C85  1  0.10552993  0.38907595  0.64460217  1.0
  C  C86  1  0.03661068  0.41028265  0.61989140  1.0
  C  C87  1  0.64713216  0.85030764  0.70438529  1.0
  C  C88  1  0.42935222  0.63911987  0.31383920  1.0
  C  C89  1  0.85032483  0.64714252  0.20437876  1.0
  C  C90  1  0.41502697  0.76808018  0.95564965  1.0
  C  C91  1  0.44960461  0.55762667  0.42389770  1.0
  C  C92  1  0.06131028  0.98500871  0.71980512  1.0
  C  C93  1  0.29039459  0.96337612  0.88011184  1.0
  C  C94  1  0.68756947  0.54062266  0.45564964  1.0
  C  C95  1  0.58970510  0.96338081  0.88010687  1.0
  C  C96  1  0.53906052  0.75550204  0.64460074  1.0
  C  C97  1  0.63372741  0.55039524  0.07611138  1.0
  C  C98  1  0.44239308  0.55038727  0.07611760  1.0
  C  C99  1  0.64592236  0.94274689  0.79561472  1.0
  C  C100  1  0.76521984  0.93868617  0.78021004  1.0
  C  C101  1  0.36627106  0.97429353  0.92389775  1.0
  C  C102  1  0.06131158  0.23477153  0.71979882  1.0
  C  C103  1  0.23192037  0.58497969  0.54434404  1.0
  C  C104  1  0.67842555  0.32154386  0.74998920  1.0
  C  C105  1  0.02571576  0.44238394  0.57611133  1.0
  C  C106  1  0.26486114  0.02197530  0.86300339  1.0
  C  C107  1  0.34102180  0.26486889  0.36300167  1.0
  C  C108  1  0.96338579  0.29039317  0.38010524  1.0
  C  C109  1  0.98502006  0.06131207  0.21977910  1.0
  C  C110  1  0.35407945  0.64715639  0.20439233  1.0
  C  C111  1  0.80475901  0.69079103  0.17880538  1.0
  C  C112  1  0.30922517  0.62595775  0.32119155  1.0
  C  C113  1  0.38909869  0.10554026  0.14460072  1.0
  C  C114  1  0.05723621  0.35405392  0.70437877  1.0
  C  C115  1  0.97428412  0.55761605  0.42388866  1.0
  C  C116  1  0.81149710  0.52151023  0.54300491  1.0
  C  C117  1  0.07155253  0.32155254  0.75000000  1.0
  C  C118  1  0.82529581  0.57067340  0.18616845  1.0
  C  C119  1  0.11549506  0.36087262  0.68616846  1.0
  C  C120  1  0.58327398  0.70959823  0.61989314  1.0
  C  C121  1  0.73151231  0.52151026  0.54300458  1.0
  C  C122  1  0.18850289  0.47848977  0.45699509  1.0
  C  C123  1  0.35407763  0.05725315  0.20438527  1.0
  C  C124  1  0.58971207  0.41671951  0.88010523  1.0
  C  C125  1  0.24449387  0.89445562  0.85540189  1.0
  C  C126  1  0.26848769  0.47848973  0.45699542  1.0
  C  C127  1  0.23479641  0.65849500  0.21980513  1.0
  C  C128  1  0.57064777  0.36088012  0.68616081  1.0
  C  C129  1  0.70960873  0.58328076  0.11989140  1.0
  C  C130  1  0.17471931  0.88448697  0.81383918  1.0
  C  C131  1  0.63910086  0.88448794  0.81383003  1.0
  C  C132  1  0.32157445  0.67845615  0.25001081  1.0
  C  C133  1  0.76807614  0.54062567  0.45565257  1.0
  C  C134  1  0.88450368  0.17471467  0.31382354  1.0
  C  C135  1  0.93868986  0.01499127  0.28019490  1.0
  C  C136  1  0.76807961  0.41502030  0.45565596  1.0
  C  C137  1  0.61090131  0.89445980  0.85539927  1.0
  C  C138  1  0.52149467  0.73150780  0.04300491  1.0
  C  C139  1  0.98801436  0.37404635  0.67880539  1.0
  C  C140  1  0.17470417  0.42932662  0.81383155  1.0
  C  C141  1  0.38908663  0.53907965  0.14460650  1.0
  C  C142  1  0.59813621  0.34100931  0.86300360  1.0
  C  C143  1  0.46093952  0.24449797  0.35539928  1.0
  C  C144  1  0.32156654  0.07156655  0.25000000  1.0
  C  C145  1  0.59813275  0.02197992  0.86300167  1.0
  C  C146  1  0.76520358  0.34150497  0.78019489  1.0
  C  C147  1  0.94276407  0.14968713  0.29560767  1.0
  C  C148  1  0.73513889  0.97802477  0.13699663  1.0
  C  C149  1  0.41672598  0.29040177  0.38010688  1.0
  C  C150  1  0.07155468  0.92843635  0.75001076  1.0
  C  C151  1  0.92844744  0.67844744  0.24999998  1.0
  C  C152  1  0.52149431  0.81149227  0.04300459  1.0
  C  C153  1  0.97800574  0.73513263  0.63699641  1.0
  C  C154  1  0.35286786  0.14969236  0.29561472  1.0
  C  C155  1  0.55041612  0.63371626  0.57611372  1.0
  C  C156  1  0.65897191  0.40185776  0.63699662  1.0
  C  C157  1  0.42934208  0.17472916  0.31383003  1.0
  C  C158  1  0.45936435  0.31242365  0.04434404  1.0
  C  C159  1  0.05723591  0.85031287  0.70439231  1.0
  C  C160  1  0.37406016  0.69079915  0.17881442  1.0
  N  N1  1  0.32443140  0.50759354  0.51518349  1.0
  N  N2  1  0.49241005  0.80924793  0.98481652  1.0
  N  N3  1  0.67556860  0.49240646  0.48481652  1.0
  N  N4  1  0.50758858  0.32442953  0.01518309  1.0
  N  N5  1  0.50758995  0.19075208  0.01518349  1.0
  N  N6  1  0.19075356  0.50759451  0.51518310  1.0
  N  N7  1  0.80924644  0.49240549  0.48481690  1.0
  N  N8  1  0.49241140  0.67557045  0.98481690  1.0
  O  O1  1  0.40862801  0.40019527  0.44960100  1.0
  O  O2  1  0.59979569  0.59131017  0.05036892  1.0
  O  O3  1  0.04092486  0.40021703  0.44961281  1.0
  O  O4  1  0.60897788  0.08381771  0.06834869  1.0
  O  O5  1  0.54057738  0.91619819  0.93163424  1.0
  O  O6  1  0.48456404  0.60894318  0.56836578  1.0
  O  O7  1  0.91615521  0.54058521  0.43160888  1.0
  O  O8  1  0.54059589  0.51547050  0.93161286  1.0
  O  O9  1  0.45059427  0.95902694  0.05039897  1.0
  O  O10  1  0.40865272  0.54941397  0.44960845  1.0
  O  O11  1  0.59134718  0.45058601  0.55039162  1.0
  O  O12  1  0.59137189  0.59980483  0.55039907  1.0
  O  O13  1  0.39102373  0.51545386  0.93160890  1.0
  O  O14  1  0.40019435  0.04095547  0.94960834  1.0
  O  O15  1  0.08384483  0.45941480  0.56839112  1.0
  O  O16  1  0.45060424  0.59131214  0.05038713  1.0
  O  O17  1  0.54940577  0.04097274  0.94960091  1.0
  O  O18  1  0.08385752  0.60898309  0.56838716  1.0
  O  O19  1  0.91614253  0.39101689  0.43161283  1.0
  O  O20  1  0.95907520  0.59978299  0.55038722  1.0
  O  O21  1  0.51546910  0.54062917  0.43165133  1.0
  O  O22  1  0.60897639  0.48454646  0.06839114  1.0
  O  O23  1  0.54939570  0.40868797  0.94961280  1.0
  O  O24  1  0.45940402  0.48452983  0.06838718  1.0
  O  O25  1  0.59980548  0.95904420  0.05039153  1.0
  O  O26  1  0.40020414  0.40869003  0.94963095  1.0
  O  O27  1  0.51543588  0.39105696  0.43163423  1.0
  O  O28  1  0.45942271  0.08380159  0.06836578  1.0
  O  O29  1  0.48453074  0.45937087  0.56834867  1.0
  O  O30  1  0.39102225  0.91618199  0.93165135  1.0
  O  O31  1  0.04094112  0.54942680  0.44963104  1.0
  O  O32  1  0.95905894  0.45057320  0.55036899  1.0
  F  F1  1  0.19707964  0.69432622  0.25267375  1.0
  F  F2  1  0.79033857  0.32361164  0.82619860  1.0
  F  F3  1  0.00258695  0.03585999  0.32619863  1.0
  F  F4  1  0.41640060  0.01089947  0.29740998  1.0
  F  F5  1  0.58359940  0.98910053  0.70259001  1.0
  F  F6  1  0.80291753  0.94164913  0.74733246  1.0
  F  F7  1  0.20962810  0.99742701  0.17378289  1.0
  F  F8  1  0.03583786  0.32362392  0.82620516  1.0
  F  F9  1  0.96418624  0.99741286  0.17378065  1.0
  F  F10  1  0.67635591  0.96415478  0.67378290  1.0
  F  F11  1  0.80292034  0.30567384  0.74732628  1.0
  F  F12  1  0.94165247  0.94440586  0.24732630  1.0
  F  F13  1  0.05561270  0.05838689  0.25265520  1.0
  F  F14  1  0.05834756  0.05559405  0.75267369  1.0
  F  F15  1  0.21348947  0.11899061  0.20259001  1.0
  F  F16  1  0.30573167  0.80295749  0.24734480  1.0
  F  F17  1  0.67636781  0.20959446  0.67378066  1.0
  F  F18  1  0.20966141  0.67638837  0.17380142  1.0
  F  F19  1  0.79037187  0.00257300  0.82621708  1.0
  F  F20  1  0.94438735  0.94161313  0.74734475  1.0
  F  F21  1  0.41641904  0.78647903  0.29743376  1.0
  F  F22  1  0.03581380  0.00258714  0.82621931  1.0
  F  F23  1  0.21352771  0.58361842  0.20260201  1.0
  F  F24  1  0.11898395  0.98907440  0.70260221  1.0
  F  F25  1  0.05561108  0.69431569  0.25266483  1.0
  F  F26  1  0.69431666  0.05558509  0.75266750  1.0
  F  F27  1  0.30568335  0.94441491  0.24733247  1.0
  F  F28  1  0.94438890  0.30568432  0.74733517  1.0
  F  F29  1  0.05834919  0.19705375  0.75266486  1.0
  F  F30  1  0.94165084  0.80294620  0.24733513  1.0
  F  F31  1  0.88101159  0.78650199  0.29740004  1.0
  F  F32  1  0.69426829  0.19704254  0.75265521  1.0
  F  F33  1  0.19708241  0.05835083  0.25266751  1.0
  F  F34  1  0.99741333  0.96414001  0.67380131  1.0
  F  F35  1  0.00258124  0.79036725  0.32620511  1.0
  F  F36  1  0.11898841  0.21349800  0.70259995  1.0
  F  F37  1  0.98904526  0.11898530  0.20256624  1.0
  F  F38  1  0.01089803  0.41638845  0.79740004  1.0
  F  F39  1  0.32364413  0.03584520  0.32621711  1.0
  F  F40  1  0.96416216  0.67637612  0.17379486  1.0
  F  F41  1  0.99741877  0.20963269  0.67379485  1.0
  F  F42  1  0.78647226  0.41638159  0.79739804  1.0
  F  F43  1  0.01095477  0.88101476  0.79743372  1.0
  F  F44  1  0.98910195  0.58361155  0.20259994  1.0
  F  F45  1  0.78651049  0.88100940  0.79740998  1.0
  F  F46  1  0.58358097  0.21352100  0.70256622  1.0
  F  F47  1  0.88101640  0.01092570  0.29739803  1.0
  F  F48  1  0.32363219  0.79040556  0.32621934  1.0
