# generated using pymatgen
data_V2H32C34O15
_symmetry_space_group_name_H-M   'P 1'
_cell_length_a   7.14381000
_cell_length_b   17.89005000
_cell_length_c   19.07508000
_cell_angle_alpha   70.93848000
_cell_angle_beta   90.00597000
_cell_angle_gamma   90.00290000
_symmetry_Int_Tables_number   1
_chemical_formula_structural   V2H32C34O15
_chemical_formula_sum   'V4 H64 C68 O30'
_cell_volume   2304.18336004
_cell_formula_units_Z   2
loop_
 _symmetry_equiv_pos_site_id
 _symmetry_equiv_pos_as_xyz
  1  'x, y, z'
loop_
 _atom_site_type_symbol
 _atom_site_label
 _atom_site_symmetry_multiplicity
 _atom_site_fract_x
 _atom_site_fract_y
 _atom_site_fract_z
 _atom_site_occupancy
  V  V0  1  0.93607000  0.49056000  0.50162000  1
  V  V1  1  0.43607000  0.50944000  0.49838000  1
  V  V2  1  0.29285000  0.00944000  0.99838000  1
  V  V3  1  0.79285000  0.99056000  0.00162000  1
  H  H4  1  0.75402000  0.66785000  0.88866000  1
  H  H5  1  0.25387000  0.33209000  0.11137000  1
  H  H6  1  0.90812000  0.56850000  0.69248000  1
  H  H7  1  0.40790000  0.43139000  0.30760000  1
  H  H8  1  0.50894000  0.81059000  0.63135000  1
  H  H9  1  0.00940000  0.18963000  0.36848000  1
  H  H10  1  0.48285000  0.89036000  0.71148000  1
  H  H11  1  0.98339000  0.10989000  0.28832000  1
  H  H12  1  0.36448000  0.77031000  0.15396000  1
  H  H13  1  0.86405000  0.22987000  0.84624000  1
  H  H14  1  0.38076000  0.83472000  0.20730000  1
  H  H15  1  0.88102000  0.16553000  0.79285000  1
  H  H16  1  0.42259000  0.72998000  0.31153000  1
  H  H17  1  0.92302000  0.27038000  0.68874000  1
  H  H18  1  0.39388000  0.66319000  0.25985000  1
  H  H19  1  0.89319000  0.33711000  0.74042000  1
  H  H20  1  0.07385000  0.61203000  0.24291000  1
  H  H21  1  0.57247000  0.38802000  0.75695000  1
  H  H22  1  0.86558000  0.84256000  0.24628000  1
  H  H23  1  0.36601000  0.15735000  0.75356000  1
  H  H24  1  0.09135000  0.88126000  0.25805000  1
  H  H25  1  0.59191000  0.11865000  0.74202000  1
  H  H26  1  0.13343000  0.77750000  0.36502000  1
  H  H27  1  0.63479000  0.22241000  0.63510000  1
  H  H28  1  0.90595000  0.74080000  0.35426000  1
  H  H29  1  0.40685000  0.25895000  0.64548000  1
  H  H30  1  0.82749000  0.74952000  0.17790000  1
  H  H31  1  0.32708000  0.25027000  0.82200000  1
  H  H32  1  0.86991000  0.64247000  0.28018000  1
  H  H33  1  0.36916000  0.35718000  0.71960000  1
  H  H34  1  0.17587000  0.98239000  0.69230000  1
  H  H35  1  0.33931000  0.05034000  0.70621000  1
  H  H36  1  0.12039000  0.06715000  0.80831000  1
  H  H37  1  0.03614000  0.10436000  0.71426000  1
  H  H38  1  0.94803000  0.01212000  0.77553000  1
  H  H39  1  0.67672000  0.01769000  0.30763000  1
  H  H40  1  0.84029000  0.94985000  0.29363000  1
  H  H41  1  0.62096000  0.93308000  0.19150000  1
  H  H42  1  0.53762000  0.89554000  0.28565000  1
  H  H43  1  0.44857000  0.98777000  0.22467000  1
  H  H44  1  0.15186000  0.69081000  0.12555000  1
  H  H45  1  0.65087000  0.30940000  0.87433000  1
  H  H46  1  0.88706000  0.78769000  0.98418000  1
  H  H47  1  0.38691000  0.21230000  0.01583000  1
  H  H48  1  0.55407000  0.60691000  0.72542000  1
  H  H49  1  0.51974000  0.65142000  0.79735000  1
  H  H50  1  0.43835000  0.52152000  0.88748000  1
  H  H51  1  0.28727000  0.54646000  0.80725000  1
  H  H52  1  0.47205000  0.47503000  0.81741000  1
  H  H53  1  0.05387000  0.39269000  0.27458000  1
  H  H54  1  0.01947000  0.34863000  0.20233000  1
  H  H55  1  0.93841000  0.47887000  0.11265000  1
  H  H56  1  0.78710000  0.45344000  0.19281000  1
  H  H57  1  0.97181000  0.52480000  0.18314000  1
  H  H58  1  0.32593000  0.81790000  0.51371000  1
  H  H59  1  0.23793000  0.73573000  0.48735000  1
  H  H60  1  0.55864000  0.71365000  0.44597000  1
  H  H61  1  0.46996000  0.81136000  0.39800000  1
  H  H62  1  0.64292000  0.79753000  0.47020000  1
  H  H63  1  0.82805000  0.18192000  0.48611000  1
  H  H64  1  0.73818000  0.26376000  0.51257000  1
  H  H65  1  0.05791000  0.28683000  0.55406000  1
  H  H66  1  0.97159000  0.18865000  0.60176000  1
  H  H67  1  0.14471000  0.20354000  0.52947000  1
  C  C68  1  0.65470000  0.38360000  0.61582000  1
  C  C69  1  0.15469000  0.61641000  0.38419000  1
  C  C70  1  0.65556000  0.41605000  0.41800000  1
  C  C71  1  0.15558000  0.58393000  0.58202000  1
  C  C72  1  0.21501000  0.88003000  0.81402000  1
  C  C73  1  0.71529000  0.12008000  0.18589000  1
  C  C74  1  0.08547000  0.86083000  0.87339000  1
  C  C75  1  0.58554000  0.13920000  0.12658000  1
  C  C76  1  0.96698000  0.79370000  0.88492000  1
  C  C77  1  0.46693000  0.20628000  0.11508000  1
  C  C78  1  0.97602000  0.74918000  0.83570000  1
  C  C79  1  0.47598000  0.25080000  0.16431000  1
  C  C80  1  0.11228000  0.76694000  0.77905000  1
  C  C81  1  0.61234000  0.23309000  0.22092000  1
  C  C82  1  0.23747000  0.83009000  0.77065000  1
  C  C83  1  0.73771000  0.17001000  0.22926000  1
  C  C84  1  0.85503000  0.68489000  0.84387000  1
  C  C85  1  0.35490000  0.31506000  0.15615000  1
  C  C86  1  0.86171000  0.64085000  0.79492000  1
  C  C87  1  0.36156000  0.35909000  0.20512000  1
  C  C88  1  0.99597000  0.65924000  0.73753000  1
  C  C89  1  0.49586000  0.34071000  0.26251000  1
  C  C90  1  0.12393000  0.72145000  0.73056000  1
  C  C91  1  0.62394000  0.27855000  0.26943000  1
  C  C92  1  0.26573000  0.73767000  0.67585000  1
  C  C93  1  0.76585000  0.26238000  0.32412000  1
  C  C94  1  0.39588000  0.79789000  0.67133000  1
  C  C95  1  0.89620000  0.20226000  0.32855000  1
  C  C96  1  0.38107000  0.84378000  0.71759000  1
  C  C97  1  0.88145000  0.15640000  0.28226000  1
  C  C98  1  0.00642000  0.61607000  0.68765000  1
  C  C99  1  0.50628000  0.38386000  0.31240000  1
  C  C100  1  0.14596000  0.63209000  0.63258000  1
  C  C101  1  0.64591000  0.36788000  0.36745000  1
  C  C102  1  0.27685000  0.69306000  0.62708000  1
  C  C103  1  0.77692000  0.30696000  0.37290000  1
  C  C104  1  0.30082000  0.78411000  0.20147000  1
  C  C105  1  0.80074000  0.21606000  0.79867000  1
  C  C106  1  0.32664000  0.71288000  0.27342000  1
  C  C107  1  0.82654000  0.28734000  0.72677000  1
  C  C108  1  0.97921000  0.73446000  0.18216000  1
  C  C109  1  0.47872000  0.26546000  0.81776000  1
  C  C110  1  0.01679000  0.82831000  0.25375000  1
  C  C111  1  0.51724000  0.17161000  0.74622000  1
  C  C112  1  0.09002000  0.80826000  0.18564000  1
  C  C113  1  0.58999000  0.19174000  0.81437000  1
  C  C114  1  0.13571000  0.68591000  0.31168000  1
  C  C115  1  0.63570000  0.31410000  0.68833000  1
  C  C116  1  0.00921000  0.66287000  0.25513000  1
  C  C117  1  0.50852000  0.33703000  0.74475000  1
  C  C118  1  0.04405000  0.75796000  0.32670000  1
  C  C119  1  0.54477000  0.24193000  0.67326000  1
  C  C120  1  0.57379000  0.08716000  0.07917000  1
  C  C121  1  0.07377000  0.91285000  0.92082000  1
  C  C122  1  0.56886000  0.11940000  0.88511000  1
  C  C123  1  0.06887000  0.88060000  0.11489000  1
  C  C124  1  0.23074000  0.00701000  0.73496000  1
  C  C125  1  0.07409000  0.05025000  0.76002000  1
  C  C126  1  0.73155000  0.99311000  0.26493000  1
  C  C127  1  0.57493000  0.94979000  0.23994000  1
  C  C128  1  0.56565000  0.59693000  0.78588000  1
  C  C129  1  0.43261000  0.53078000  0.82703000  1
  C  C130  1  0.06545000  0.40296000  0.21407000  1
  C  C131  1  0.93248000  0.46923000  0.17315000  1
  C  C132  1  0.36198000  0.75938000  0.50847000  1
  C  C133  1  0.51879000  0.77114000  0.45219000  1
  C  C134  1  0.86288000  0.24055000  0.49140000  1
  C  C135  1  0.01966000  0.22926000  0.54765000  1
  O  O136  1  0.49423000  0.43967000  0.43769000  1
  O  O137  1  0.99423000  0.56033000  0.56231000  1
  O  O138  1  0.83085000  0.40533000  0.58835000  1
  O  O139  1  0.33085000  0.59467000  0.41165000  1
  O  O140  1  0.82439000  0.43001000  0.43986000  1
  O  O141  1  0.32439000  0.56999000  0.56014000  1
  O  O142  1  0.98790000  0.58520000  0.41276000  1
  O  O143  1  0.48790000  0.41480000  0.58724000  1
  O  O144  1  0.65858000  0.55089000  0.49128000  1
  O  O145  1  0.15858000  0.44911000  0.50872000  1
  O  O146  1  0.72818000  0.08523000  0.91278000  1
  O  O147  1  0.22818000  0.91477000  0.08722000  1
  O  O148  1  0.40446000  0.06999000  0.06014000  1
  O  O149  1  0.90446000  0.93001000  0.93986000  1
  O  O150  1  0.39807000  0.09468000  0.91166000  1
  O  O151  1  0.89807000  0.90532000  0.08834000  1
  O  O152  1  0.23459000  0.93966000  0.93769000  1
  O  O153  1  0.73459000  0.06034000  0.06231000  1
  O  O154  1  0.57037000  0.94913000  0.00873000  1
  O  O155  1  0.07037000  0.05087000  0.99127000  1
  O  O156  1  0.31559000  0.94990000  0.79667000  1
  O  O157  1  0.81610000  0.05028000  0.20319000  1
  O  O158  1  0.02520000  0.71474000  0.11860000  1
  O  O159  1  0.52439000  0.28530000  0.88129000  1
  O  O160  1  0.84191000  0.76978000  0.94334000  1
  O  O161  1  0.34173000  0.23015000  0.05670000  1
  O  O162  1  0.75087000  0.57414000  0.80901000  1
  O  O163  1  0.25069000  0.42579000  0.19103000  1
  O  O164  1  0.42288000  0.70624000  0.57690000  1
  O  O165  1  0.92314000  0.29391000  0.42299000  1
