# generated using pymatgen
data_H3(C3N)4
_symmetry_space_group_name_H-M   'P 1'
_cell_length_a   9.86133333
_cell_length_b   23.26780000
_cell_length_c   23.26780000
_cell_angle_alpha   120.00000000
_cell_angle_beta   90.00000000
_cell_angle_gamma   90.00000000
_symmetry_Int_Tables_number   1
_chemical_formula_structural   H3(C3N)4
_chemical_formula_sum   'H18 C72 N24'
_cell_volume   4623.56444170
_cell_formula_units_Z   6
loop_
 _symmetry_equiv_pos_site_id
 _symmetry_equiv_pos_as_xyz
  1  'x, y, z'
loop_
 _atom_site_type_symbol
 _atom_site_label
 _atom_site_symmetry_multiplicity
 _atom_site_fract_x
 _atom_site_fract_y
 _atom_site_fract_z
 _atom_site_occupancy
  C  1  1  0.97868400  0.94287950  0.47492450  1
  C  2  1  0.97503900  0.90437950  0.50753450  1
  C  3  1  0.97582100  0.83419450  0.47322450  1
  C  4  1  0.97799500  0.79996850  0.40349550  1
  C  5  1  0.98065800  0.83415500  0.36795900  1
  C  6  1  0.98219200  0.90434000  0.40381100  1
  C  10  1  0.97228000  0.67389850  0.17624750  1
  C  12  1  0.10360400  0.76170800  0.26382900  1
  C  13  1  0.98410900  0.79565950  0.29791150  1
  C  15  1  0.85269000  0.70770850  0.21044450  1
  C  16  1  0.73127900  0.68287850  0.19327650  1
  C  17  1  0.22505300  0.77910950  0.28852050  1
  C  19  1  0.97218900  0.79576950  0.50484250  1
  C  21  1  0.10374700  0.70813500  0.50485300  1
  C  22  1  0.98457200  0.67391400  0.50496900  1
  C  24  1  0.85282800  0.76166250  0.50476450  1
  C  25  1  0.73138100  0.77848000  0.49673400  1
  C  26  1  0.22520200  0.68337900  0.49715900  1
  C  163  1  0.98228600  0.49351900  0.91846500  1
  C  165  1  0.97850600  0.49691750  0.02893350  1
  C  166  1  0.97486700  0.56803300  0.06747400  1
  C  167  1  0.97543900  0.60385000  0.13766400  1
  C  168  1  0.97763400  0.56828800  0.17182500  1
  C  169  1  0.98033300  0.49856950  0.13756950  1
  C  172  1  0.97493700  0.49341250  0.58211550  1
  C  174  1  0.97855800  0.49691550  0.47508850  1
  C  175  1  0.97584900  0.49870450  0.36817550  1
  C  176  1  0.97848700  0.56842450  0.40370050  1
  C  177  1  0.98096200  0.60391400  0.47342000  1
  C  178  1  0.98213800  0.56803000  0.50772200  1
  C  283  1  0.10389800  0.49092400  0.77590900  1
  C  284  1  0.98442000  0.49079100  0.80985000  1
  C  295  1  0.97858300  0.46091400  0.95696100  1
  C  296  1  0.98098600  0.45919150  0.84828850  1
  C  297  1  0.97853600  0.38946150  0.81406550  1
  C  298  1  0.97607100  0.35393600  0.84826400  1
  C  299  1  0.97477400  0.38980200  0.91844300  1
  C  302  1  0.98209800  0.46428400  0.06740400  1
  C  304  1  0.97850700  0.46086650  0.51100850  1
  C  305  1  0.98200900  0.38974950  0.47834350  1
  C  306  1  0.98033300  0.35382450  0.51259450  1
  C  307  1  0.97760300  0.38927800  0.58231400  1
  C  308  1  0.97537800  0.45899850  0.61788250  1
  C  311  1  0.97486000  0.46434750  0.40398550  1
  C  313  1  0.97254300  0.46719300  0.29818400  1
  C  315  1  0.10346800  0.46685000  0.21002600  1
  C  316  1  0.98409500  0.46697100  0.17596000  1
  C  318  1  0.85312200  0.46744000  0.26418800  1
  C  319  1  0.73167400  0.47532700  0.28902800  1
  C  320  1  0.22486500  0.47443900  0.19281700  1
  C  323  1  0.97259500  0.49044800  0.68790100  1
  C  326  1  0.85305100  0.49013950  0.72182850  1
  C  327  1  0.73158300  0.48249350  0.69705750  1
  C  328  1  0.22536300  0.48368950  0.79332950  1
  C  511  1  0.97866800  0.01485950  0.51091450  1
  C  512  1  0.98186400  0.05339400  0.58203500  1
  C  513  1  0.98044100  0.12357900  0.61787400  1
  C  514  1  0.97777600  0.15776000  0.58234300  1
  C  515  1  0.97572800  0.12354200  0.51262300  1
  C  516  1  0.97531700  0.05335800  0.47829400  1
  C  520  1  0.97210000  0.28389650  0.80980350  1
  C  522  1  0.10297500  0.19610800  0.72186600  1
  C  523  1  0.98321900  0.16216800  0.68790100  1
  C  525  1  0.85241800  0.25003250  0.77589950  1
  C  526  1  0.73113700  0.27492800  0.79332100  1
  C  527  1  0.22438900  0.17904200  0.69700800  1
  C  530  1  0.97269500  0.16207050  0.48112950  1
  C  532  1  0.10363400  0.24972400  0.48061500  1
  C  533  1  0.98394700  0.28378400  0.48095500  1
  C  535  1  0.85301600  0.19623600  0.48148300  1
  C  536  1  0.73162300  0.17918950  0.48933950  1
  C  537  1  0.22497700  0.27454650  0.48805450  1
  H  7  1  0.97053600  0.92647900  0.55781200  1
  H  8  1  0.97779600  0.74897250  0.37801250  1
  H  9  1  0.98691700  0.92641300  0.37561200  1
  H  164  1  0.98706000  0.54379100  0.94056000  1
  H  170  1  0.97040500  0.59624100  0.04540900  1
  H  171  1  0.97749300  0.59374800  0.22282300  1
  H  173  1  0.97070700  0.54369000  0.61035200  1
  H  179  1  0.97854100  0.59393250  0.37820950  1
  H  180  1  0.98679600  0.59619100  0.55799700  1
  H  300  1  0.96976500  0.36162100  0.94052900  1
  H  301  1  0.97846000  0.36397200  0.76307200  1
  H  303  1  0.98713400  0.41401550  0.04529950  1
  H  309  1  0.98695100  0.36160500  0.42807900  1
  H  310  1  0.97750800  0.36373150  0.60776350  1
  H  312  1  0.97016100  0.41407700  0.37576900  1
  H  517  1  0.98631700  0.03132800  0.61024600  1
  H  518  1  0.97114500  0.03126700  0.42801200  1
  H  519  1  0.97750300  0.20875850  0.60782850  1
  N  11  1  0.09130400  0.70225200  0.20703800  1
  N  14  1  0.86512000  0.76453700  0.26985400  1
  N  18  1  0.33191000  0.79438000  0.31063900  1
  N  20  1  0.09125200  0.76487300  0.50210400  1
  N  23  1  0.86570200  0.70221300  0.50205300  1
  N  27  1  0.62452700  0.79325600  0.48926000  1
  N  181  1  0.62447200  0.66064800  0.17819200  1
  N  182  1  0.33207200  0.66119400  0.48996600  1
  N  314  1  0.09117100  0.46968150  0.26954650  1
  N  317  1  0.86546800  0.47004750  0.20738750  1
  N  321  1  0.33168700  0.48155250  0.17771750  1
  N  322  1  0.62482200  0.48267900  0.31126100  1
  N  324  1  0.09150700  0.48813250  0.71640750  1
  N  325  1  0.86544700  0.48766900  0.77870800  1
  N  329  1  0.33223300  0.47688950  0.80862850  1
  N  330  1  0.62472600  0.47536500  0.67487700  1
  N  521  1  0.09090800  0.25559250  0.77864550  1
  N  524  1  0.86453100  0.19328350  0.71641150  1
  N  528  1  0.33120100  0.16405250  0.67475350  1
  N  529  1  0.62441500  0.29721650  0.80861250  1
  N  531  1  0.09143600  0.19301200  0.48343500  1
  N  534  1  0.86512500  0.25566700  0.48410200  1
  N  538  1  0.33174800  0.29678300  0.49504100  1
  N  539  1  0.62484200  0.16420750  0.49665450  1
