# generated using pymatgen
data_CdH14C20(NO)4
_symmetry_space_group_name_H-M   'P 1'
_cell_length_a   7.68689000
_cell_length_b   11.14289000
_cell_length_c   15.28532503
_cell_angle_alpha   110.64382410
_cell_angle_beta   103.68542716
_cell_angle_gamma   91.91518000
_symmetry_Int_Tables_number   1
_chemical_formula_structural   CdH14C20(NO)4
_chemical_formula_sum   'Cd2 H28 C40 N8 O8'
_cell_volume   1180.53265828
_cell_formula_units_Z   2
loop_
 _symmetry_equiv_pos_site_id
 _symmetry_equiv_pos_as_xyz
  1  'x, y, z'
loop_
 _atom_site_type_symbol
 _atom_site_label
 _atom_site_symmetry_multiplicity
 _atom_site_fract_x
 _atom_site_fract_y
 _atom_site_fract_z
 _atom_site_occupancy
  Cd  Cd0  1  0.88703000  0.44617000  0.19460000  1
  Cd  Cd1  1  0.19238000  0.25137000  0.80347000  1
  H  H2  1  0.18429000  0.73986000  0.36393000  1
  H  H3  1  0.10265000  0.90405000  0.50110000  1
  H  H4  1  0.65333000  0.98022000  0.67151000  1
  H  H5  1  0.74139000  0.82054000  0.53371000  1
  H  H6  1  0.80418000  0.63736000  0.40443000  1
  H  H7  1  0.44622000  0.51150000  0.12453000  1
  H  H8  1  0.51630000  0.86342000  0.81773000  1
  H  H9  1  0.41117000  0.63188000  0.77291000  1
  H  H10  1  0.46641000  0.69354000  0.07232000  1
  H  H11  1  0.57267000  0.92560000  0.11903000  1
  H  H12  1  0.75156000  0.12629000  0.15996000  1
  H  H13  1  0.67226000  0.31224000  0.95970000  1
  H  H14  1  0.27419000  0.64298000  0.24005000  1
  H  H15  1  0.53068000  0.08245000  0.86522000  1
  H  H16  1  0.32012000  0.37719000  0.63596000  1
  H  H17  1  0.10139000  0.40215000  0.49777000  1
  H  H18  1  0.48303000  0.30701000  0.32713000  1
  H  H19  1  0.70860000  0.28723000  0.46603000  1
  H  H20  1  0.89863000  0.23247000  0.59453000  1
  H  H21  1  0.82326000  0.38851000  0.87549000  1
  H  H22  1  0.19677000  0.04356000  0.18152000  1
  H  H23  1  0.13637000  0.85548000  0.22593000  1
  H  H24  1  0.89336000  0.62207000  0.92671000  1
  H  H25  1  0.95355000  0.80837000  0.88023000  1
  H  H26  1  0.09338000  0.96690000  0.83925000  1
  H  H27  1  0.21352000  0.35139000  0.03941000  1
  H  H28  1  0.53530000  0.40436000  0.76049000  1
  H  H29  1  0.16661000  0.21544000  0.13416000  1
  C  C30  1  0.28852000  0.79167000  0.43070000  1
  C  C31  1  0.24126000  0.88303000  0.50747000  1
  C  C32  1  0.37189000  0.95127000  0.59479000  1
  C  C33  1  0.55189000  0.92577000  0.60411000  1
  C  C34  1  0.60040000  0.83593000  0.52688000  1
  C  C35  1  0.46962000  0.76801000  0.43862000  1
  C  C36  1  0.52216000  0.67920000  0.35626000  1
  C  C37  1  0.68209000  0.62749000  0.34841000  1
  C  C38  1  0.50082000  0.55741000  0.20247000  1
  C  C39  1  0.31864000  0.05334000  0.67372000  1
  C  C40  1  0.50615000  0.82715000  0.87413000  1
  C  C41  1  0.44796000  0.69659000  0.84864000  1
  C  C42  1  0.43389000  0.64732000  0.91996000  1
  C  C43  1  0.47984000  0.73152000  0.01747000  1
  C  C44  1  0.53904000  0.86139000  0.04323000  1
  C  C45  1  0.55323000  0.91143000  0.97206000  1
  C  C46  1  0.61669000  0.04770000  0.00131000  1
  C  C47  1  0.70664000  0.13882000  0.09149000  1
  C  C48  1  0.67205000  0.23779000  0.98967000  1
  C  C49  1  0.36603000  0.50872000  0.89335000  1
  C  C50  1  0.35771000  0.36151000  0.56884000  1
  C  C51  1  0.23381000  0.37496000  0.49143000  1
  C  C52  1  0.27771000  0.35500000  0.40376000  1
  C  C53  1  0.44873000  0.32053000  0.39480000  1
  C  C54  1  0.57420000  0.30905000  0.47261000  1
  C  C55  1  0.53108000  0.33004000  0.56114000  1
  C  C56  1  0.66599000  0.32381000  0.64358000  1
  C  C57  1  0.83338000  0.27940000  0.65091000  1
  C  C58  1  0.79952000  0.35625000  0.79742000  1
  C  C59  1  0.14661000  0.37681000  0.32367000  1
  C  C60  1  0.13096000  0.95150000  0.12510000  1
  C  C61  1  0.09809000  0.84610000  0.15039000  1
  C  C62  1  0.01297000  0.72655000  0.07898000  1
  C  C63  1  0.96164000  0.71420000  0.98151000  1
  C  C64  1  0.99553000  0.81865000  0.95591000  1
  C  C65  1  0.08090000  0.93883000  0.02718000  1
  C  C66  1  0.11597000  0.04590000  0.99792000  1
  C  C67  1  0.11623000  0.04744000  0.90763000  1
  C  C68  1  0.18326000  0.24725000  0.00939000  1
  C  C69  1  0.97184000  0.61531000  0.10650000  1
  N  N70  1  0.66678000  0.55270000  0.25272000  1
  N  N71  1  0.41025000  0.63262000  0.26240000  1
  N  N72  1  0.74013000  0.25597000  0.08299000  1
  N  N73  1  0.59837000  0.11370000  0.93837000  1
  N  N74  1  0.91448000  0.30063000  0.74663000  1
  N  N75  1  0.64889000  0.37167000  0.73777000  1
  N  N76  1  0.15829000  0.17292000  0.91601000  1
  N  N77  1  0.16056000  0.17407000  0.06077000  1
  O  O78  1  0.16310000  0.08995000  0.65364000  1
  O  O79  1  0.42896000  0.10382000  0.75847000  1
  O  O80  1  0.31863000  0.46978000  0.95339000  1
  O  O81  1  0.35398000  0.43047000  0.80501000  1
  O  O82  1  0.00966000  0.43251000  0.34267000  1
  O  O83  1  0.17457000  0.34278000  0.23934000  1
  O  O84  1  0.86401000  0.51681000  0.04724000  1
  O  O85  1  0.04791000  0.62564000  0.19495000  1
