# generated using pymatgen
data_H7(C4N)4
_symmetry_space_group_name_H-M   'P 1'
_cell_length_a   9.11972500
_cell_length_b   36.47890000
_cell_length_c   36.47890000
_cell_angle_alpha   90.00000000
_cell_angle_beta   90.00000000
_cell_angle_gamma   90.00000000
_symmetry_Int_Tables_number   1
_chemical_formula_structural   H7(C4N)4
_chemical_formula_sum   'H112 C256 N64'
_cell_volume   12135.71057903
_cell_formula_units_Z   16
loop_
 _symmetry_equiv_pos_site_id
 _symmetry_equiv_pos_as_xyz
  1  'x, y, z'
loop_
 _atom_site_type_symbol
 _atom_site_label
 _atom_site_symmetry_multiplicity
 _atom_site_fract_x
 _atom_site_fract_y
 _atom_site_fract_z
 _atom_site_occupancy
  C  1  1  0.93686400  0.00537000  0.01753500  1
  C  2  1  0.87096400  0.03843500  0.03092600  1
  C  3  1  0.74519200  0.03912900  0.05370800  1
  C  4  1  0.68512400  0.00538400  0.06478700  1
  C  5  1  0.74341600  0.97163600  0.05314000  1
  C  6  1  0.86855200  0.97230200  0.03014000  1
  C  10  1  0.06565200  0.00537400  0.99293900  1
  C  11  1  0.13149600  0.03844400  0.97954200  1
  C  12  1  0.25727600  0.03914700  0.95676400  1
  C  13  1  0.31736000  0.00540500  0.94567800  1
  C  14  1  0.25911200  0.97165500  0.95732900  1
  C  15  1  0.13400000  0.97231000  0.98033400  1
  C  19  1  0.93681600  0.50507000  0.99291700  1
  C  20  1  0.87100000  0.47199900  0.97951700  1
  C  21  1  0.74520800  0.47129200  0.95674200  1
  C  22  1  0.68507600  0.50503200  0.94566800  1
  C  23  1  0.74326800  0.53878600  0.95733500  1
  C  24  1  0.86842400  0.53813000  0.98032300  1
  C  28  1  0.06561190  0.50508400  0.01751100  1
  C  29  1  0.13143590  0.47202400  0.03093700  1
  C  30  1  0.25721990  0.47133800  0.05371600  1
  C  31  1  0.31729990  0.50508900  0.06477700  1
  C  32  1  0.25911590  0.53882900  0.05307500  1
  C  33  1  0.13400390  0.53815500  0.03007300  1
  C  37  1  0.93716400  0.24280000  0.75493800  1
  C  38  1  0.86995200  0.22976200  0.78798500  1
  C  39  1  0.74536800  0.20656000  0.78859900  1
  C  40  1  0.68723600  0.19498600  0.75479500  1
  C  41  1  0.74599600  0.20657900  0.72109900  1
  C  42  1  0.87058800  0.22972400  0.72183400  1
  C  46  1  0.06521990  0.26762400  0.75494600  1
  C  47  1  0.13245990  0.28062300  0.78800400  1
  C  48  1  0.25700390  0.30383600  0.78863700  1
  C  49  1  0.31509590  0.31545400  0.75484500  1
  C  50  1  0.25636790  0.30388000  0.72113800  1
  C  51  1  0.13179190  0.28072900  0.72185600  1
  C  55  1  0.93716400  0.26764500  0.25551800  1
  C  56  1  0.86983600  0.28062800  0.22246500  1
  C  57  1  0.74527200  0.30383300  0.22183900  1
  C  58  1  0.68732000  0.31548400  0.25563500  1
  C  59  1  0.74609200  0.30391600  0.28934000  1
  C  60  1  0.87069200  0.28077100  0.28861400  1
  C  64  1  0.06521600  0.24282000  0.25552000  1
  C  65  1  0.13253200  0.22982600  0.22247000  1
  C  66  1  0.25707600  0.20661000  0.22185200  1
  C  67  1  0.31504800  0.19497600  0.25565100  1
  C  68  1  0.25628400  0.20655900  0.28935100  1
  C  69  1  0.13167600  0.22970000  0.28861900  1
  C  73  1  0.06523600  0.76763000  0.25508200  1
  C  74  1  0.13048000  0.78124400  0.22202300  1
  C  75  1  0.25551600  0.80428200  0.22134900  1
  C  76  1  0.31510400  0.81545200  0.25512800  1
  C  77  1  0.25784400  0.80344300  0.28884400  1
  C  78  1  0.13372800  0.78013100  0.28816400  1
  C  82  1  0.93722000  0.74280200  0.25508700  1
  C  83  1  0.87199600  0.72917000  0.22203200  1
  C  84  1  0.74696000  0.70612900  0.22136500  1
  C  85  1  0.68740800  0.69496400  0.25514800  1
  C  86  1  0.74464800  0.70699000  0.28886300  1
  C  87  1  0.86874000  0.73031000  0.28817200  1
  C  91  1  0.06525190  0.74281900  0.75534100  1
  C  92  1  0.13034390  0.72916700  0.78840400  1
  C  93  1  0.25544390  0.70614800  0.78908400  1
  C  94  1  0.31510790  0.69499600  0.75530500  1
  C  95  1  0.25798790  0.70704500  0.72158700  1
  C  96  1  0.13387190  0.73035700  0.72226400  1
  C  100  1  0.93720400  0.76763600  0.75533300  1
  C  101  1  0.87210800  0.78132000  0.78837900  1
  C  102  1  0.74700400  0.80434200  0.78904000  1
  C  103  1  0.68737200  0.81546300  0.75524800  1
  C  104  1  0.74443600  0.80336300  0.72154300  1
  C  105  1  0.86854800  0.78005400  0.72224200  1
  C  109  1  0.93750400  0.50535500  0.51776000  1
  C  110  1  0.87228400  0.53842400  0.53135100  1
  C  111  1  0.74812400  0.53909300  0.55466300  1
  C  112  1  0.68935200  0.50532800  0.56610300  1
  C  113  1  0.74606400  0.47159100  0.55396100  1
  C  114  1  0.86944400  0.47226800  0.53040300  1
  C  118  1  0.06479190  0.50536400  0.49270700  1
  C  119  1  0.13008790  0.53844300  0.47916800  1
  C  120  1  0.25420390  0.53913100  0.45584200  1
  C  121  1  0.31289190  0.50537400  0.44434500  1
  C  122  1  0.25617590  0.47162900  0.45645900  1
  C  123  1  0.13278390  0.47228700  0.48001700  1
  C  127  1  0.93757600  0.00510500  0.49269900  1
  C  128  1  0.87228000  0.97202800  0.47914800  1
  C  129  1  0.74813200  0.97135100  0.45583100  1
  C  130  1  0.68947600  0.00510700  0.44433900  1
  C  131  1  0.74619200  0.03885300  0.45646100  1
  C  132  1  0.86957200  0.03818500  0.48002300  1
  C  136  1  0.06486000  0.00510500  0.51774900  1
  C  137  1  0.13008400  0.97203100  0.53132600  1
  C  138  1  0.25424400  0.97135100  0.55463900  1
  C  139  1  0.31296400  0.00511000  0.56610800  1
  C  140  1  0.25630400  0.03885300  0.55396700  1
  C  141  1  0.13291600  0.03818600  0.53040800  1
  C  145  1  0.68128400  0.81838000  0.82184200  1
  C  146  1  0.76259200  0.83946100  0.84728200  1
  C  148  1  0.54421600  0.86115000  0.87677000  1
  C  149  1  0.45748800  0.83939500  0.85303300  1
  C  150  1  0.52672000  0.81772200  0.82623700  1
  C  152  1  0.47196400  0.88522400  0.90117600  1
  C  153  1  0.32494000  0.93882000  0.94345000  1
  C  154  1  0.24362800  0.91368500  0.92198300  1
  C  157  1  0.31648000  0.88707700  0.90058700  1
  C  161  1  0.47936000  0.93425300  0.94437600  1
  C  163  1  0.68114800  0.69213200  0.18855800  1
  C  164  1  0.76249600  0.67106200  0.16311600  1
  C  166  1  0.54413600  0.64936700  0.13363300  1
  C  167  1  0.45740000  0.67112500  0.15736400  1
  C  168  1  0.52661200  0.69284200  0.18413300  1
  C  170  1  0.47190800  0.62527400  0.10923700  1
  C  171  1  0.32489590  0.57167600  0.06692300  1
  C  172  1  0.24365590  0.59678400  0.08844300  1
  C  175  1  0.31644390  0.62340400  0.10983400  1
  C  179  1  0.47933200  0.57624800  0.06603800  1
  C  181  1  0.67920800  0.43873300  0.56746200  1
  C  182  1  0.76013200  0.41297000  0.58825000  1
  C  184  1  0.54123200  0.38403000  0.61030100  1
  C  185  1  0.45481600  0.40803600  0.58876500  1
  C  186  1  0.52446800  0.43475800  0.56708400  1
  C  188  1  0.46882000  0.35976700  0.63447900  1
  C  189  1  0.32176390  0.31774500  0.68826900  1
  C  190  1  0.24061990  0.33948700  0.66334500  1
  C  193  1  0.31342790  0.36072100  0.63661200  1
  C  197  1  0.47605600  0.31656400  0.68349100  1
  C  199  1  0.67945600  0.07170800  0.44291900  1
  C  200  1  0.76028000  0.09745700  0.42209900  1
  C  202  1  0.54130400  0.12642700  0.40015200  1
  C  203  1  0.45496400  0.10239700  0.42168200  1
  C  204  1  0.52470400  0.07567000  0.44334400  1
  C  206  1  0.46874800  0.15068500  0.37599300  1
  C  207  1  0.32155200  0.19268200  0.32223000  1
  C  208  1  0.24045200  0.17095200  0.34716800  1
  C  211  1  0.31336000  0.14973200  0.37389600  1
  C  215  1  0.47584400  0.19395100  0.32702200  1
  C  217  1  0.32109590  0.69213500  0.82190600  1
  C  218  1  0.23983190  0.67101300  0.84732000  1
  C  220  1  0.45818000  0.64931500  0.87680300  1
  C  221  1  0.54490800  0.67108700  0.85308200  1
  C  222  1  0.47567200  0.69277300  0.82630000  1
  C  224  1  0.53043200  0.62522700  0.90119500  1
  C  225  1  0.67744400  0.57161600  0.94345000  1
  C  226  1  0.75876000  0.59676200  0.92199900  1
  C  229  1  0.68590800  0.62338000  0.90061100  1
  C  233  1  0.52302000  0.57617700  0.94437100  1
  C  235  1  0.32136400  0.81825700  0.18853900  1
  C  236  1  0.24004400  0.83937000  0.16312200  1
  C  238  1  0.45839600  0.86106200  0.13363200  1
  C  239  1  0.54512000  0.83927700  0.15734300  1
  C  240  1  0.47589600  0.81755500  0.18410200  1
  C  242  1  0.53063600  0.88516400  0.10924800  1
  C  243  1  0.67760400  0.93879800  0.06701200  1
  C  244  1  0.75893200  0.91365400  0.08846700  1
  C  247  1  0.68617367  0.88702000  0.10983800  1
  C  251  1  0.52319200  0.93422500  0.06608300  1
  C  253  1  0.32322400  0.07170000  0.56747600  1
  C  254  1  0.24225200  0.09748700  0.58822200  1
  C  256  1  0.46117200  0.12642800  0.61026500  1
  C  257  1  0.54759600  0.10240900  0.58874600  1
  C  258  1  0.47795200  0.07567300  0.56707900  1
  C  260  1  0.53359200  0.15070100  0.63443300  1
  C  261  1  0.68062800  0.19273100  0.68822000  1
  C  262  1  0.76178000  0.17097800  0.66330700  1
  C  265  1  0.68897600  0.14974000  0.63657400  1
  C  269  1  0.52634400  0.19392200  0.68343400  1
  C  271  1  0.32292390  0.43877700  0.44290500  1
  C  272  1  0.24210790  0.41302500  0.42208800  1
  C  274  1  0.46107600  0.38405800  0.40013800  1
  C  275  1  0.54741600  0.40809100  0.42166600  1
  C  276  1  0.47768800  0.43481600  0.44332800  1
  C  278  1  0.53363200  0.35980300  0.37597600  1
  C  279  1  0.68082800  0.31780000  0.32221700  1
  C  280  1  0.76192800  0.33953300  0.34715100  1
  C  283  1  0.68902000  0.36075400  0.37387700  1
  C  287  1  0.52653600  0.31653400  0.32700800  1
  C  289  1  0.32354400  0.19281400  0.18904400  1
  C  290  1  0.24252400  0.17193600  0.16337400  1
  C  292  1  0.46114800  0.14986200  0.13430800  1
  C  293  1  0.54775200  0.17135700  0.15830400  1
  C  294  1  0.47830000  0.19310500  0.18500600  1
  C  296  1  0.53343200  0.12569800  0.10999700  1
  C  297  1  0.68010400  0.07194700  0.06784500  1
  C  298  1  0.76152000  0.09681400  0.08959200  1
  C  301  1  0.68882000  0.12349600  0.11093000  1
  C  305  1  0.52587600  0.07686400  0.06658900  1
  C  307  1  0.32357190  0.31758900  0.82145000  1
  C  308  1  0.24252790  0.33847500  0.84711200  1
  C  310  1  0.46116400  0.36051800  0.87619400  1
  C  311  1  0.54775600  0.33899600  0.85221600  1
  C  312  1  0.47829200  0.31721400  0.82553800  1
  C  314  1  0.53346000  0.38469400  0.90049100  1
  C  315  1  0.68012800  0.43847000  0.94261100  1
  C  316  1  0.76153600  0.41359500  0.92087200  1
  C  319  1  0.68884800  0.38689500  0.89955300  1
  C  323  1  0.52591600  0.43354700  0.94387500  1
  C  325  1  0.32036790  0.57196400  0.44206100  1
  C  326  1  0.23941190  0.59748000  0.42098000  1
  C  328  1  0.45822400  0.62679300  0.39934900  1
  C  329  1  0.54458400  0.60304200  0.42117800  1
  C  330  1  0.47495600  0.57627300  0.44280100  1
  C  332  1  0.53082400  0.65114100  0.37528600  1
  C  333  1  0.67861200  0.69329100  0.32172600  1
  C  334  1  0.75948400  0.67179100  0.34691300  1
  C  337  1  0.68631200  0.65049700  0.37353900  1
  C  341  1  0.52411200  0.69420400  0.32613700  1
  C  343  1  0.32024000  0.93851500  0.56847400  1
  C  344  1  0.23928400  0.91301600  0.58956000  1
  C  346  1  0.45805600  0.88364500  0.61112300  1
  C  347  1  0.54444400  0.90742300  0.58933300  1
  C  348  1  0.47484000  0.93421200  0.56772600  1
  C  350  1  0.53066400  0.85927800  0.63516700  1
  C  351  1  0.67841200  0.81704200  0.68867500  1
  C  352  1  0.75928400  0.83858400  0.66352100  1
  C  355  1  0.68615600  0.85990000  0.63690800  1
  C  359  1  0.52392400  0.81611300  0.68423400  1
  C  361  1  0.67881200  0.31762200  0.18902600  1
  C  362  1  0.75988800  0.33844000  0.16331800  1
  C  364  1  0.54123200  0.36058100  0.13430300  1
  C  365  1  0.45460400  0.33907600  0.15828700  1
  C  366  1  0.52406000  0.31732600  0.18498800  1
  C  368  1  0.46894800  0.38476200  0.11000900  1
  C  369  1  0.32230790  0.43852800  0.06786700  1
  C  370  1  0.24087990  0.41365600  0.08960600  1
  C  373  1  0.31356790  0.38696600  0.11093800  1
  C  377  1  0.47653600  0.43361000  0.06661500  1
  C  379  1  0.67880000  0.19275900  0.82139600  1
  C  380  1  0.75992400  0.17192700  0.84707900  1
  C  382  1  0.54126400  0.14989800  0.87617000  1
  C  383  1  0.45466400  0.17141300  0.85218300  1
  C  384  1  0.52410000  0.19318200  0.82549400  1
  C  386  1  0.46896800  0.12573000  0.90047400  1
  C  387  1  0.32228000  0.07197300  0.94261600  1
  C  388  1  0.24088800  0.09684300  0.92087200  1
  C  391  1  0.31358400  0.12353600  0.89954500  1
  C  395  1  0.47651200  0.07688300  0.94387200  1
  C  397  1  0.68198800  0.93852100  0.44203400  1
  C  398  1  0.76298000  0.91300200  0.42096400  1
  C  400  1  0.54420000  0.88368600  0.39931900  1
  C  401  1  0.45780400  0.90744000  0.42113100  1
  C  402  1  0.52740000  0.93421400  0.44275700  1
  C  404  1  0.47164400  0.85933000  0.37525500  1
  C  405  1  0.32389600  0.81713300  0.32170700  1
  C  406  1  0.24302800  0.83866000  0.34687500  1
  C  409  1  0.31615600  0.85996900  0.37349800  1
  C  413  1  0.47839600  0.81624700  0.32612600  1
  C  415  1  0.68208000  0.57191700  0.56851200  1
  C  416  1  0.76309200  0.59741700  0.58958500  1
  C  418  1  0.54432400  0.62679800  0.61114300  1
  C  419  1  0.45792000  0.60303100  0.58933800  1
  C  420  1  0.52750400  0.57623700  0.56773100  1
  C  422  1  0.47172400  0.65115700  0.63519500  1
  C  423  1  0.32404390  0.69332700  0.68873500  1
  C  424  1  0.24307590  0.67184900  0.66355100  1
  C  427  1  0.31622390  0.65054600  0.63692700  1
  C  431  1  0.47852400  0.69429500  0.68429200  1
  H  7  1  0.91236800  0.06338500  0.02404200  1
  H  8  1  0.90729200  0.94733700  0.02239500  1
  H  9  1  0.59936400  0.00537400  0.08298900  1
  H  16  1  0.09008000  0.06339100  0.98643100  1
  H  17  1  0.40310800  0.00540000  0.92747100  1
  H  18  1  0.09528000  0.94734200  0.98807600  1
  H  25  1  0.91246000  0.44705300  0.98640100  1
  H  26  1  0.90707600  0.56310100  0.98808100  1
  H  27  1  0.59931600  0.50503500  0.92746500  1
  H  34  1  0.08999990  0.44707200  0.02406900  1
  H  35  1  0.40311190  0.50510900  0.08296600  1
  H  36  1  0.09530790  0.56311700  0.02230600  1
  H  43  1  0.90906000  0.23736100  0.81295800  1
  H  44  1  0.91033600  0.23715300  0.69687400  1
  H  45  1  0.60200400  0.17662800  0.75469700  1
  H  52  1  0.09332390  0.27301200  0.81297200  1
  H  53  1  0.40036390  0.33380100  0.75476300  1
  H  54  1  0.09205190  0.27331900  0.69688800  1
  H  61  1  0.90890400  0.27300000  0.19749500  1
  H  62  1  0.91054000  0.27338700  0.31357600  1
  H  63  1  0.60210000  0.33384500  0.25572700  1
  H  70  1  0.09349600  0.23745100  0.19749800  1
  H  71  1  0.40026000  0.17661400  0.25574800  1
  H  72  1  0.09187200  0.23710200  0.31358100  1
  H  79  1  0.08925200  0.77428600  0.19707500  1
  H  80  1  0.09608400  0.77203600  0.31312400  1
  H  81  1  0.40026800  0.83382700  0.25520300  1
  H  88  1  0.91319200  0.73613300  0.19708200  1
  H  89  1  0.60227200  0.67657800  0.25522900  1
  H  90  1  0.90638400  0.73840800  0.31312900  1
  H  97  1  0.08895990  0.73608600  0.81334700  1
  H  98  1  0.09638390  0.73849300  0.69730500  1
  H  99  1  0.40023190  0.67661100  0.75522900  1
  H  106  1  0.91348000  0.77442300  0.81333100  1
  H  107  1  0.60220000  0.83383800  0.75515500  1
  H  108  1  0.90608800  0.77190700  0.69729100  1
  H  115  1  0.91264800  0.56338600  0.52413600  1
  H  116  1  0.90678000  0.44731400  0.52220900  1
  H  117  1  0.60467600  0.50530000  0.58461800  1
  H  124  1  0.08975990  0.56340300  0.48641000  1
  H  125  1  0.39758390  0.50536400  0.42583500  1
  H  126  1  0.09541590  0.44732700  0.48817800  1
  H  133  1  0.91260800  0.94706800  0.48638000  1
  H  134  1  0.90695200  0.06314300  0.48819500  1
  H  135  1  0.60478400  0.00512700  0.42582700  1
  H  142  1  0.08969600  0.94707100  0.52411100  1
  H  143  1  0.39766400  0.00512900  0.58461800  1
  H  144  1  0.09565200  0.06314300  0.52220300  1
  H  151  1  0.46269600  0.80358800  0.80800700  1
  H  155  1  0.87379200  0.84196600  0.84483700  1
  H  160  1  0.13273200  0.91689700  0.91903800  1
  H  162  1  0.54406400  0.95191500  0.95893500  1
  H  169  1  0.46256400  0.70686600  0.20244000  1
  H  173  1  0.87368400  0.66854800  0.16557000  1
  H  178  1  0.13276390  0.59356200  0.09139500  1
  H  180  1  0.54407200  0.55859400  0.05147900  1
  H  187  1  0.46089200  0.45334200  0.55329000  1
  H  191  1  0.87139600  0.41524800  0.59073100  1
  H  196  1  0.12983990  0.34256500  0.66666667  1
  H  198  1  0.54065200  0.30177700  0.70099400  1
  H  205  1  0.46117200  0.05709100  0.45716000  1
  H  209  1  0.87157600  0.09521900  0.41968700  1
  H  214  1  0.12969200  0.16785200  0.34380700  1
  H  216  1  0.54040400  0.20866600  0.30945800  1
  H  223  1  0.53969600  0.70691600  0.80807800  1
  H  227  1  0.12863190  0.66849900  0.84486400  1
  H  232  1  0.86966400  0.59355700  0.91905800  1
  H  234  1  0.45830400  0.55850900  0.95892200  1
  H  241  1  0.53993200  0.80351700  0.20239900  1
  H  245  1  0.12885600  0.84190100  0.16558800  1
  H  250  1  0.86982400  0.91687000  0.09141500  1
  H  252  1  0.45847200  0.95189000  0.05153300  1
  H  259  1  0.54152400  0.05707700  0.55329800  1
  H  263  1  0.13098400  0.09521400  0.59069500  1
  H  268  1  0.87254400  0.16789000  0.66666667  1
  H  270  1  0.46175200  0.20871100  0.70093100  1
  H  277  1  0.54120800  0.45339400  0.45714400  1
  H  281  1  0.13079990  0.41526200  0.41967800  1
  H  286  1  0.87268800  0.34263100  0.34379100  1
  H  288  1  0.46197200  0.30181600  0.30944500  1
  H  295  1  0.54214800  0.20700200  0.20345400  1
  H  299  1  0.13117200  0.16962300  0.16558400  1
  H  304  1  0.87221200  0.09337200  0.09273300  1
  H  306  1  0.46107200  0.05944600  0.05176700  1
  H  313  1  0.54214400  0.30340800  0.80702600  1
  H  317  1  0.13119990  0.34081900  0.84488300  1
  H  322  1  0.87222800  0.41703800  0.91772500  1
  H  324  1  0.46110000  0.45097000  0.95869400  1
  H  331  1  0.53863200  0.55792300  0.45688100  1
  H  335  1  0.12829990  0.59498500  0.41828600  1
  H  340  1  0.87045200  0.66889400  0.34380700  1
  H  342  1  0.45972400  0.70878300  0.30841400  1
  H  349  1  0.53853600  0.95255400  0.55364400  1
  H  353  1  0.12812400  0.91546900  0.59216400  1
  H  358  1  0.87024400  0.84148900  0.66666667  1
  H  360  1  0.45949600  0.80161200  0.70200900  1
  H  367  1  0.46020800  0.30344100  0.20344400  1
  H  371  1  0.87116400  0.34086800  0.16561600  1
  H  376  1  0.13017590  0.41709300  0.09274100  1
  H  378  1  0.54135200  0.45102500  0.05179400  1
  H  385  1  0.46025200  0.20698600  0.80697600  1
  H  389  1  0.87126000  0.16959000  0.84485000  1
  H  394  1  0.13019600  0.09340300  0.91773100  1
  H  396  1  0.54132000  0.05946400  0.95869100  1
  H  403  1  0.46370400  0.95256200  0.45682900  1
  H  407  1  0.87410000  0.91549400  0.41828000  1
  H  412  1  0.13206000  0.84155800  0.34376000  1
  H  414  1  0.54280800  0.80166600  0.30841400  1
  H  421  1  0.46380800  0.55790100  0.55364400  1
  H  425  1  0.87424800  0.59495500  0.59219200  1
  H  430  1  0.13210790  0.66895100  0.66666667  1
  H  432  1  0.54294400  0.70878500  0.70207500  1
  N  147  1  0.69271600  0.86008900  0.87303400  1
  N  156  1  0.54659600  0.90865200  0.92324100  1
  N  158  1  0.24245600  0.86479900  0.87717900  1
  N  159  1  0.30906800  0.84222400  0.85477400  1
  N  165  1  0.69264000  0.65043400  0.13736300  1
  N  174  1  0.54656000  0.60185200  0.08717300  1
  N  176  1  0.24239590  0.64566100  0.13325800  1
  N  177  1  0.30898790  0.66825500  0.15564900  1
  N  183  1  0.68982400  0.38737500  0.60897100  1
  N  192  1  0.54334800  0.33753200  0.65776700  1
  N  194  1  0.23963190  0.38435700  0.61452800  1
  N  195  1  0.30642390  0.40665700  0.59188200  1
  N  201  1  0.68989600  0.12308500  0.40143500  1
  N  210  1  0.54319200  0.17294200  0.35270500  1
  N  212  1  0.23967200  0.12607400  0.39597700  1
  N  213  1  0.30656000  0.10376600  0.41859800  1
  N  219  1  0.30969190  0.65037100  0.87306100  1
  N  228  1  0.45578000  0.60178600  0.92324600  1
  N  230  1  0.75993600  0.64567200  0.87722000  1
  N  231  1  0.69333200  0.66826000  0.85482600  1
  N  237  1  0.30990400  0.86001000  0.13737600  1
  N  246  1  0.45597200  0.90860500  0.08720000  1
  N  248  1  0.76014000  0.86473900  0.13324100  1
  N  249  1  0.69353600  0.84213600  0.15562000  1
  N  255  1  0.31257600  0.12309100  0.60893000  1
  N  264  1  0.45906000  0.17294800  0.65771200  1
  N  266  1  0.76277200  0.12609100  0.61450600  1
  N  267  1  0.69598000  0.10378200  0.59186800  1
  N  273  1  0.31248390  0.38739900  0.40142400  1
  N  282  1  0.45918800  0.33754300  0.35269200  1
  N  284  1  0.76270800  0.38441400  0.39595800  1
  N  285  1  0.69582000  0.40672000  0.41857900  1
  N  291  1  0.31256800  0.15123000  0.13771700  1
  N  300  1  0.45876800  0.10252900  0.08767000  1
  N  302  1  0.76276000  0.14553900  0.13457600  1
  N  303  1  0.69612400  0.16819600  0.15689600  1
  N  309  1  0.31259590  0.35917200  0.87277300  1
  N  318  1  0.45879600  0.40787400  0.92280800  1
  N  320  1  0.76277600  0.36484900  0.87590900  1
  N  321  1  0.69612800  0.34217600  0.85360600  1
  N  327  1  0.30969990  0.62314100  0.40033600  1
  N  336  1  0.45650000  0.67316700  0.35175700  1
  N  338  1  0.75999600  0.62708100  0.39587600  1
  N  339  1  0.69304400  0.60471700  0.41843100  1
  N  345  1  0.30953200  0.88730200  0.61015000  1
  N  354  1  0.45634800  0.83722400  0.65866900  1
  N  356  1  0.75984000  0.88334900  0.61460500  1
  N  357  1  0.69290000  0.90574300  0.59207700  1
  N  363  1  0.68980000  0.35920200  0.13771300  1
  N  372  1  0.54363200  0.40793700  0.08769000  1
  N  374  1  0.23961990  0.36491200  0.13457200  1
  N  375  1  0.30623590  0.34224200  0.15688300  1
  N  381  1  0.68984400  0.15124500  0.87275100  1
  N  390  1  0.54362800  0.10255100  0.92279400  1
  N  392  1  0.23965200  0.14557600  0.87589600  1
  N  393  1  0.30629600  0.16823900  0.85358400  1
  N  399  1  0.69272400  0.88733500  0.40031900  1
  N  408  1  0.54598800  0.83729800  0.35173800  1
  N  410  1  0.24242400  0.88339300  0.39581800  1
  N  411  1  0.30934400  0.90576500  0.41837300  1
  N  417  1  0.69284800  0.62313000  0.61017500  1
  N  426  1  0.54605600  0.67319800  0.65871000  1
  N  428  1  0.24252790  0.62711300  0.61460800  1
  N  429  1  0.30945990  0.60472500  0.59207700  1
