# generated using pymatgen
data_ZnH3C7NO4
_symmetry_space_group_name_H-M   'P 1'
_cell_length_a   12.53282000
_cell_length_b   13.80518000
_cell_length_c   14.46636000
_cell_angle_alpha   105.26038000
_cell_angle_beta   89.86645000
_cell_angle_gamma   89.82658000
_symmetry_Int_Tables_number   1
_chemical_formula_structural   ZnH3C7NO4
_chemical_formula_sum   'Zn8 H24 C56 N8 O32'
_cell_volume   2414.66008683
_cell_formula_units_Z   8
loop_
 _symmetry_equiv_pos_site_id
 _symmetry_equiv_pos_as_xyz
  1  'x, y, z'
loop_
 _atom_site_type_symbol
 _atom_site_label
 _atom_site_symmetry_multiplicity
 _atom_site_fract_x
 _atom_site_fract_y
 _atom_site_fract_z
 _atom_site_occupancy
  Zn  Zn0  1  0.78105000  0.20446000  0.08068000  1
  Zn  Zn1  1  0.98133000  0.35294000  0.16532000  1
  Zn  Zn2  1  0.27913000  0.29588000  0.41910000  1
  Zn  Zn3  1  0.47945000  0.14579000  0.33279000  1
  Zn  Zn4  1  0.21895000  0.79554000  0.91932000  1
  Zn  Zn5  1  0.01868000  0.64706000  0.83468000  1
  Zn  Zn6  1  0.72088000  0.70412000  0.58091000  1
  Zn  Zn7  1  0.52055000  0.85421000  0.66721000  1
  H  H8  1  0.98457000  0.47571000  0.93490000  1
  H  H9  1  0.66656000  0.36842000  0.85647000  1
  H  H10  1  0.66425000  0.47982000  0.74222000  1
  H  H11  1  0.82005000  0.52635000  0.40915000  1
  H  H12  1  0.54499000  0.39047000  0.25073000  1
  H  H13  1  0.42990000  0.51300000  0.37399000  1
  H  H14  1  0.48510000  0.02532000  0.56600000  1
  H  H15  1  0.16561000  0.13167000  0.64369000  1
  H  H16  1  0.16286000  0.01920000  0.75686000  1
  H  H17  1  0.31873000  0.97383000  0.09019000  1
  H  H18  1  0.04375000  0.11059000  0.25104000  1
  H  H19  1  0.92869000  0.98965000  0.12812000  1
  H  H20  1  0.01543000  0.52429000  0.06510000  1
  H  H21  1  0.33344000  0.63158000  0.14354000  1
  H  H22  1  0.33575000  0.52018000  0.25778000  1
  H  H23  1  0.17996000  0.47365000  0.59086000  1
  H  H24  1  0.45501000  0.60953000  0.74927000  1
  H  H25  1  0.57010000  0.48700000  0.62602000  1
  H  H26  1  0.51490000  0.97468000  0.43400000  1
  H  H27  1  0.83440000  0.86833000  0.35632000  1
  H  H28  1  0.83714000  0.98080000  0.24315000  1
  H  H29  1  0.68127000  0.02617000  0.90981000  1
  H  H30  1  0.95625000  0.88941000  0.74896000  1
  H  H31  1  0.07132000  0.01035000  0.87189000  1
  C  C32  1  0.91083000  0.47554000  0.89598000  1
  C  C33  1  0.82462000  0.41529000  0.90673000  1
  C  C34  1  0.73426000  0.41560000  0.85019000  1
  C  C35  1  0.73261000  0.47730000  0.78752000  1
  C  C36  1  0.82018000  0.53853000  0.78426000  1
  C  C37  1  0.83221000  0.35732000  0.98176000  1
  C  C38  1  0.82656000  0.61137000  0.72239000  1
  C  C39  1  0.73414000  0.52222000  0.39846000  1
  C  C40  1  0.69094000  0.45295000  0.31898000  1
  C  C41  1  0.57977000  0.44749000  0.30958000  1
  C  C42  1  0.51665000  0.51443000  0.37673000  1
  C  C43  1  0.56592000  0.58366000  0.45230000  1
  C  C44  1  0.76364000  0.38701000  0.24591000  1
  C  C45  1  0.50118000  0.66117000  0.52424000  1
  C  C46  1  0.41102000  0.02500000  0.60464000  1
  C  C47  1  0.32443000  0.08518000  0.59371000  1
  C  C48  1  0.23355000  0.08441000  0.64983000  1
  C  C49  1  0.23165000  0.02213000  0.71196000  1
  C  C50  1  0.31966000  0.96106000  0.71551000  1
  C  C51  1  0.33194000  0.14317000  0.51863000  1
  C  C52  1  0.32619000  0.88865000  0.77796000  1
  C  C53  1  0.23280000  0.97826000  0.10150000  1
  C  C54  1  0.18961000  0.04760000  0.18144000  1
  C  C55  1  0.07853000  0.05363000  0.19178000  1
  C  C56  1  0.01541000  0.98737000  0.12490000  1
  C  C57  1  0.06451000  0.91796000  0.04890000  1
  C  C58  1  0.26191000  0.11339000  0.25409000  1
  C  C59  1  0.99913000  0.84126000  0.97750000  1
  C  C60  1  0.08917000  0.52446000  0.10403000  1
  C  C61  1  0.17538000  0.58471000  0.09327000  1
  C  C62  1  0.26574000  0.58440000  0.14981000  1
  C  C63  1  0.26739000  0.52270000  0.21248000  1
  C  C64  1  0.17982000  0.46147000  0.21574000  1
  C  C65  1  0.16780000  0.64268000  0.01825000  1
  C  C66  1  0.17344000  0.38863000  0.27762000  1
  C  C67  1  0.26586000  0.47778000  0.60155000  1
  C  C68  1  0.30906000  0.54705000  0.68102000  1
  C  C69  1  0.42023000  0.55251000  0.69042000  1
  C  C70  1  0.48335000  0.48557000  0.62327000  1
  C  C71  1  0.43408000  0.41634000  0.54770000  1
  C  C72  1  0.23636000  0.61299000  0.75409000  1
  C  C73  1  0.49883000  0.33883000  0.47576000  1
  C  C74  1  0.58898000  0.97500000  0.39536000  1
  C  C75  1  0.67558000  0.91481000  0.40630000  1
  C  C76  1  0.76645000  0.91559000  0.35018000  1
  C  C77  1  0.76835000  0.97787000  0.28805000  1
  C  C78  1  0.68035000  0.03893000  0.28449000  1
  C  C79  1  0.66806000  0.85683000  0.48137000  1
  C  C80  1  0.67381000  0.11135000  0.22204000  1
  C  C81  1  0.76720000  0.02174000  0.89851000  1
  C  C82  1  0.81039000  0.95240000  0.81856000  1
  C  C83  1  0.92147000  0.94637000  0.80823000  1
  C  C84  1  0.98459000  0.01263000  0.87510000  1
  C  C85  1  0.93549000  0.08204000  0.95110000  1
  C  C86  1  0.73810000  0.88661000  0.74591000  1
  C  C87  1  0.00087000  0.15874000  0.02250000  1
  N  N88  1  0.90774000  0.53696000  0.83817000  1
  N  N89  1  0.67303000  0.58546000  0.46366000  1
  N  N90  1  0.40788000  0.96329000  0.66223000  1
  N  N91  1  0.17167000  0.91539000  0.03667000  1
  N  N92  1  0.09227000  0.46304000  0.16184000  1
  N  N93  1  0.32697000  0.41454000  0.53635000  1
  N  N94  1  0.59213000  0.03671000  0.33777000  1
  N  N95  1  0.82833000  0.08461000  0.96334000  1
  O  O96  1  0.76629000  0.28628000  0.97663000  1
  O  O97  1  0.90497000  0.38708000  0.04374000  1
  O  O98  1  0.75149000  0.60560000  0.66172000  1
  O  O99  1  0.90524000  0.67040000  0.73505000  1
  O  O100  1  0.71889000  0.32517000  0.17659000  1
  O  O101  1  0.86370000  0.40039000  0.26020000  1
  O  O102  1  0.40685000  0.67615000  0.50919000  1
  O  O103  1  0.55570000  0.70937000  0.60092000  1
  O  O104  1  0.26463000  0.21343000  0.52305000  1
  O  O105  1  0.40614000  0.11401000  0.45736000  1
  O  O106  1  0.24815000  0.89097000  0.83529000  1
  O  O107  1  0.40812000  0.83339000  0.76913000  1
  O  O108  1  0.21686000  0.17557000  0.32352000  1
  O  O109  1  0.36203000  0.09958000  0.23934000  1
  O  O110  1  0.90406000  0.82883000  0.99181000  1
  O  O111  1  0.05410000  0.79076000  0.90179000  1
  O  O112  1  0.23371000  0.71372000  0.02337000  1
  O  O113  1  0.09503000  0.61292000  0.95626000  1
  O  O114  1  0.24851000  0.39440000  0.33829000  1
  O  O115  1  0.09476000  0.32960000  0.26495000  1
  O  O116  1  0.28112000  0.67483000  0.82342000  1
  O  O117  1  0.13630000  0.59961000  0.73980000  1
  O  O118  1  0.59315000  0.32385000  0.49081000  1
  O  O119  1  0.44430000  0.29063000  0.39909000  1
  O  O120  1  0.73537000  0.78657000  0.47695000  1
  O  O121  1  0.59387000  0.88599000  0.54264000  1
  O  O122  1  0.75186000  0.10903000  0.16472000  1
  O  O123  1  0.59189000  0.16661000  0.23087000  1
  O  O124  1  0.78314000  0.82443000  0.67648000  1
  O  O125  1  0.63797000  0.90042000  0.76067000  1
  O  O126  1  0.09594000  0.17117000  0.00819000  1
  O  O127  1  0.94591000  0.20923000  0.09821000  1
