# generated using pymatgen
data_H38C69N4
_symmetry_space_group_name_H-M   'P 1'
_cell_length_a   20.46920000
_cell_length_b   20.46920000
_cell_length_c   30.57110000
_cell_angle_alpha   90.01650000
_cell_angle_beta   89.99850000
_cell_angle_gamma   90.00000000
_symmetry_Int_Tables_number   1
_chemical_formula_structural   H38C69N4
_chemical_formula_sum   'H76 C138 N8'
_cell_volume   12808.92805536
_cell_formula_units_Z   2
loop_
 _symmetry_equiv_pos_site_id
 _symmetry_equiv_pos_as_xyz
  1  'x, y, z'
loop_
 _atom_site_type_symbol
 _atom_site_label
 _atom_site_symmetry_multiplicity
 _atom_site_fract_x
 _atom_site_fract_y
 _atom_site_fract_z
 _atom_site_occupancy
  C  1  1  0.99780300  0.46389100  0.13723700  1
  C  2  1  0.99802300  0.53104400  0.13724400  1
  C  3  1  0.99787800  0.55243000  0.09379700  1
  C  5  1  0.99778500  0.44248900  0.09378700  1
  C  6  1  0.99772400  0.37582000  0.08073600  1
  C  7  1  0.99774300  0.35396100  0.03646900  1
  C  9  1  0.99791700  0.35393200  0.96262000  1
  C  10  1  0.99776200  0.28912300  0.97686900  1
  C  11  1  0.99769200  0.28914000  0.02221700  1
  C  12  1  0.99793400  0.37576000  0.91835100  1
  C  13  1  0.99794600  0.44242100  0.90531300  1
  C  15  1  0.99783100  0.55235300  0.90532100  1
  C  16  1  0.99786300  0.53095100  0.86187100  1
  C  17  1  0.99814800  0.46380000  0.86186700  1
  C  18  1  0.99782600  0.61902300  0.91837000  1
  C  19  1  0.99774100  0.64088200  0.96264100  1
  C  21  1  0.99783100  0.64091800  0.03649100  1
  C  22  1  0.99780700  0.70572600  0.02223900  1
  C  23  1  0.99780900  0.70570600  0.97689300  1
  C  24  1  0.99784900  0.61909800  0.08076200  1
  C  25  1  0.99772100  0.66619900  0.11532400  1
  C  26  1  0.05700600  0.68812700  0.13386800  1
  C  27  1  0.05694900  0.73355700  0.16854800  1
  C  28  1  0.99736200  0.75968100  0.18461500  1
  C  29  1  0.93839100  0.72971200  0.17065100  1
  C  30  1  0.93863100  0.68442100  0.13588600  1
  C  31  1  0.99833300  0.66610900  0.88382200  1
  C  32  1  0.05756400  0.68386500  0.86327800  1
  C  33  1  0.05805700  0.72943900  0.82872200  1
  C  34  1  0.99951400  0.75989700  0.81453700  1
  C  35  1  0.93978000  0.73411200  0.83074600  1
  C  36  1  0.93922200  0.68847700  0.86528200  1
  C  37  1  0.99765400  0.32864800  0.88379700  1
  C  38  1  0.93855000  0.31101800  0.86303100  1
  C  39  1  0.93820200  0.26545300  0.82843100  1
  C  40  1  0.99691200  0.23479400  0.81455800  1
  C  41  1  0.05648600  0.26049100  0.83092700  1
  C  42  1  0.05685600  0.30610800  0.86548700  1
  C  43  1  0.99769100  0.32873000  0.11528500  1
  C  44  1  0.93834000  0.30714700  0.13388700  1
  C  45  1  0.05672800  0.31007700  0.13570300  1
  C  46  1  0.05674600  0.26450400  0.17027500  1
  C  47  1  0.99765500  0.23479200  0.18436300  1
  C  48  1  0.93826800  0.26161600  0.16848200  1
  C  75  1  0.46374600  0.99698800  0.63704900  1
  C  76  1  0.53089700  0.99674200  0.63704900  1
  C  77  1  0.55228600  0.99692200  0.59360000  1
  C  79  1  0.44235000  0.99700800  0.59360300  1
  C  80  1  0.37568200  0.99707600  0.58056400  1
  C  81  1  0.35384900  0.99710900  0.53629100  1
  C  83  1  0.35386100  0.99695300  0.46244000  1
  C  84  1  0.28904700  0.99717700  0.47668800  1
  C  85  1  0.28903800  0.99721300  0.52203500  1
  C  86  1  0.37570800  0.99688900  0.41816900  1
  C  87  1  0.44238000  0.99672700  0.40512400  1
  C  89  1  0.55232400  0.99677200  0.40512400  1
  C  90  1  0.53093600  0.99660500  0.36167800  1
  C  91  1  0.46377900  0.99637100  0.36167800  1
  C  92  1  0.61898900  0.99687400  0.41816900  1
  C  93  1  0.64082000  0.99701400  0.46244000  1
  C  95  1  0.64079900  0.99698200  0.53628400  1
  C  96  1  0.70561800  0.99710800  0.52204200  1
  C  97  1  0.70563300  0.99708100  0.47669500  1
  C  98  1  0.61894800  0.99697900  0.58055100  1
  C  99  1  0.66604800  0.99720400  0.61509700  1
  C  100  1  0.68815900  0.93795700  0.63354900  1
  C  101  1  0.73375300  0.93813200  0.66811800  1
  C  102  1  0.76024500  0.99762300  0.68417900  1
  C  103  1  0.72983900  0.05641300  0.67019800  1
  C  104  1  0.68407800  0.05625900  0.63574400  1
  C  105  1  0.66610500  0.99654200  0.38362300  1
  C  106  1  0.68428000  0.93736200  0.36315600  1
  C  107  1  0.72994100  0.93704400  0.32864300  1
  C  108  1  0.75982400  0.99586400  0.31444400  1
  C  109  1  0.73372600  0.05555600  0.33043900  1
  C  110  1  0.68829100  0.05575400  0.36512200  1
  C  111  1  0.32861200  0.99732400  0.38361000  1
  C  112  1  0.31112600  0.05648800  0.36287500  1
  C  113  1  0.26548200  0.05694200  0.32835600  1
  C  114  1  0.23495200  0.99831000  0.31441100  1
  C  115  1  0.26036500  0.93850200  0.33068500  1
  C  116  1  0.30582200  0.93815800  0.36535100  1
  C  117  1  0.32859600  0.99691100  0.61512700  1
  C  118  1  0.30671300  0.05617600  0.63373900  1
  C  119  1  0.31042100  0.93778600  0.63564900  1
  C  120  1  0.26515200  0.93753200  0.67041700  1
  C  121  1  0.23525800  0.99640300  0.68453400  1
  C  122  1  0.26131400  0.05602400  0.66843500  1
  C  149  1  0.99677200  0.05439400  0.78099700  1
  C  150  1  0.99559200  0.03060600  0.82393200  1
  C  151  1  0.99856700  0.96412700  0.82393800  1
  C  152  1  0.99815900  0.94030200  0.78099400  1
  C  153  1  0.99882300  0.87101500  0.77587300  1
  C  154  1  0.00143100  0.82936400  0.81343800  1
  C  155  1  0.00462400  0.85769300  0.85570100  1
  C  156  1  0.00278700  0.92473600  0.86128400  1
  C  157  1  0.99114900  0.07005200  0.86125600  1
  C  158  1  0.98999700  0.13710900  0.85567400  1
  C  159  1  0.99377900  0.16537500  0.81342700  1
  C  160  1  0.99664100  0.12367900  0.77587700  1
  C  161  1  0.05467500  0.99704200  0.71781600  1
  C  162  1  0.03094200  0.99638300  0.67485300  1
  C  163  1  0.96442400  0.99857400  0.67481700  1
  C  164  1  0.94058800  0.99767400  0.71775000  1
  C  165  1  0.92496200  0.00204600  0.63745800  1
  C  166  1  0.85789500  0.00296000  0.64302900  1
  C  167  1  0.82963200  0.99995900  0.68530700  1
  C  168  1  0.87130300  0.99776400  0.72287400  1
  C  169  1  0.12395000  0.99675700  0.72300000  1
  C  170  1  0.16571900  0.99464900  0.68547100  1
  C  171  1  0.13752500  0.99180300  0.64316300  1
  C  172  1  0.07047800  0.99294200  0.63752700  1
  C  185  1  0.99758300  0.99733900  0.74938900  1
  C  186  1  0.05442900  0.99813400  0.28103000  1
  C  187  1  0.03065000  0.99934700  0.32397600  1
  C  188  1  0.96414400  0.99667800  0.32399800  1
  C  189  1  0.94034900  0.99689800  0.28105300  1
  C  190  1  0.87107000  0.99630000  0.27591100  1
  C  191  1  0.82936200  0.99412700  0.31346600  1
  C  192  1  0.85762900  0.99140900  0.35575400  1
  C  193  1  0.92468500  0.99297600  0.36134700  1
  C  194  1  0.07013700  0.00353300  0.36128900  1
  C  195  1  0.13719900  0.00453200  0.35567500  1
  C  196  1  0.16543800  0.00081100  0.31341300  1
  C  197  1  0.12370900  0.99819800  0.27587800  1
  C  198  1  0.99704200  0.94027900  0.21786200  1
  C  199  1  0.99610100  0.96398800  0.17489700  1
  C  200  1  0.99808000  0.03052300  0.17485800  1
  C  201  1  0.99761400  0.05435700  0.21779700  1
  C  202  1  0.00105900  0.07000200  0.13749200  1
  C  203  1  0.00200400  0.13707200  0.14307900  1
  C  204  1  0.99965500  0.16532900  0.18538100  1
  C  205  1  0.99783900  0.12364200  0.22294200  1
  C  206  1  0.99706700  0.87101000  0.22306000  1
  C  207  1  0.99507000  0.82920500  0.18554100  1
  C  208  1  0.99212100  0.85734700  0.14323000  1
  C  209  1  0.99282800  0.92440100  0.13758400  1
  C  222  1  0.99737800  0.99737800  0.24943800  1
  H  49  1  0.89496800  0.23890900  0.17562300  1
  H  50  1  0.89473700  0.32107700  0.12040400  1
  H  51  1  0.10062200  0.24407900  0.17881200  1
  H  52  1  0.10047000  0.32618100  0.12357700  1
  H  53  1  0.99774000  0.43611700  0.16500800  1
  H  54  1  0.99819300  0.55882400  0.16502100  1
  H  55  1  0.99770900  0.49744500  0.03771500  1
  H  56  1  0.99769300  0.49740800  0.96139700  1
  H  57  1  0.99758000  0.24820700  0.04133900  1
  H  58  1  0.99769500  0.24817400  0.95774400  1
  H  59  1  0.89493700  0.32778700  0.87496600  1
  H  60  1  0.89399600  0.24597700  0.81964300  1
  H  61  1  0.10055000  0.31943400  0.87911700  1
  H  62  1  0.09962200  0.23742200  0.82380500  1
  H  63  1  0.99840600  0.43601900  0.83408900  1
  H  64  1  0.99782700  0.55871700  0.83409700  1
  H  65  1  0.99785300  0.74667400  0.04136200  1
  H  66  1  0.99784900  0.74663700  0.95776900  1
  H  67  1  0.10111000  0.66707900  0.87530600  1
  H  68  1  0.10218900  0.74897800  0.81985100  1
  H  69  1  0.89545300  0.67509600  0.87877300  1
  H  70  1  0.89657900  0.75690200  0.82337500  1
  H  71  1  0.89496600  0.66798600  0.12382900  1
  H  72  1  0.89437400  0.74982500  0.17919500  1
  H  73  1  0.10011100  0.75655600  0.17566500  1
  H  74  1  0.10065500  0.67456600  0.12027700  1
  H  123  1  0.23860200  0.09932200  0.67564400  1
  H  124  1  0.32033200  0.09983700  0.62020300  1
  H  125  1  0.24516800  0.89348800  0.67902500  1
  H  126  1  0.32687600  0.89413900  0.62356600  1
  H  127  1  0.43597700  0.99705400  0.66482700  1
  H  128  1  0.55867400  0.99657000  0.66482100  1
  H  129  1  0.49732000  0.99716000  0.53752000  1
  H  130  1  0.49734200  0.99716100  0.46120300  1
  H  131  1  0.24809500  0.99734700  0.54115800  1
  H  132  1  0.24810800  0.99727200  0.45756600  1
  H  133  1  0.32812400  0.10004500  0.37476200  1
  H  134  1  0.24610800  0.10108100  0.31932400  1
  H  135  1  0.31890000  0.89447300  0.37909000  1
  H  136  1  0.23696700  0.89547000  0.32378300  1
  H  137  1  0.43600600  0.99609100  0.33390300  1
  H  138  1  0.55871600  0.99657800  0.33390300  1
  H  139  1  0.74655600  0.99717100  0.54116800  1
  H  140  1  0.74657900  0.99711500  0.45757600  1
  H  141  1  0.66768800  0.89374100  0.37517800  1
  H  142  1  0.74979500  0.89303100  0.31979800  1
  H  143  1  0.67468300  0.09945800  0.37862500  1
  H  144  1  0.75663800  0.09877400  0.32334400  1
  H  145  1  0.66760100  0.09993700  0.62374900  1
  H  146  1  0.74973800  0.10042700  0.67899100  1
  H  147  1  0.75676600  0.89495300  0.67515400  1
  H  148  1  0.67463400  0.89428500  0.61997100  1
  H  173  1  0.16569800  0.99002600  0.61542700  1
  H  174  1  0.05206800  0.99134100  0.60651700  1
  H  175  1  0.94343900  0.00373600  0.60647100  1
  H  176  1  0.82978700  0.00463400  0.61525700  1
  H  177  1  0.85155500  0.99606100  0.75354000  1
  H  178  1  0.14362400  0.99818100  0.75369200  1
  H  179  1  0.99727600  0.85124600  0.74520600  1
  H  180  1  0.00672400  0.82961800  0.88346900  1
  H  181  1  0.00444700  0.94325200  0.89226700  1
  H  182  1  0.99892700  0.14341000  0.74522900  1
  H  183  1  0.98908700  0.05157200  0.89223100  1
  H  184  1  0.98792600  0.16522400  0.88343600  1
  H  210  1  0.99053900  0.82913600  0.11549800  1
  H  211  1  0.99117500  0.94277700  0.10657100  1
  H  212  1  0.00238000  0.05153700  0.10649200  1
  H  213  1  0.00343700  0.16520100  0.11531400  1
  H  214  1  0.99654300  0.14337700  0.25362500  1
  H  215  1  0.99874800  0.85136500  0.25375200  1
  H  216  1  0.85134400  0.99760800  0.24523100  1
  H  217  1  0.82949600  0.98957400  0.38350900  1
  H  218  1  0.94316100  0.99155600  0.39234400  1
  H  219  1  0.14341700  0.99609100  0.24521200  1
  H  220  1  0.05167900  0.00557900  0.39227500  1
  H  221  1  0.16534700  0.00663800  0.38341400  1
  N  4  1  0.99780300  0.49745400  0.06910400  1
  N  8  1  0.99789800  0.39062700  0.99954500  1
  N  14  1  0.99780400  0.49739400  0.93000700  1
  N  20  1  0.99776400  0.60422300  0.99956800  1
  N  78  1  0.49731700  0.99701300  0.56891000  1
  N  82  1  0.39053200  0.99692400  0.49936700  1
  N  88  1  0.49734800  0.99687300  0.42981400  1
  N  94  1  0.60412900  0.99694300  0.49935700  1
