# generated using pymatgen
data_H9(C7N)2
_symmetry_space_group_name_H-M   'P 1'
_cell_length_a   9.99886667
_cell_length_b   91.72625000
_cell_length_c   91.72620000
_cell_angle_alpha   119.99994590
_cell_angle_beta   90.00000000
_cell_angle_gamma   90.00000000
_symmetry_Int_Tables_number   1
_chemical_formula_structural   H9(C7N)2
_chemical_formula_sum   'H162 C252 N36'
_cell_volume   72856.56415855
_cell_formula_units_Z   18
loop_
 _symmetry_equiv_pos_site_id
 _symmetry_equiv_pos_as_xyz
  1  'x, y, z'
loop_
 _atom_site_type_symbol
 _atom_site_label
 _atom_site_symmetry_multiplicity
 _atom_site_fract_x
 _atom_site_fract_y
 _atom_site_fract_z
 _atom_site_occupancy
  C  1  1  0.96887100  0.82100100  0.43709100  1
  C  2  1  0.03685000  0.87493900  0.44052500  1
  C  3  1  0.01934700  0.82353900  0.38575600  1
  C  4  1  0.02821300  0.88549300  0.43338600  1
  C  5  1  0.04356000  0.90305900  0.44336000  1
  C  6  1  0.06941300  0.91062100  0.46080200  1
  C  7  1  0.07928300  0.90018500  0.46799500  1
  C  8  1  0.06210700  0.88267600  0.45804700  1
  C  9  1  0.96476100  0.82885100  0.45489600  1
  C  10  1  0.94429300  0.81945300  0.46300200  1
  C  11  1  0.92881600  0.80181800  0.45353700  1
  C  12  1  0.93248700  0.79383100  0.43578700  1
  C  13  1  0.95208900  0.80328800  0.42772300  1
  C  14  1  0.00147100  0.80587400  0.37603300  1
  C  15  1  0.01180200  0.79731400  0.35840600  1
  C  16  1  0.04000100  0.80607600  0.34971000  1
  C  17  1  0.05807600  0.82370100  0.35930400  1
  C  18  1  0.04719600  0.83227300  0.37699000  1
  C  29  1  0.01211600  0.83200900  0.40369400  1
  C  31  1  0.98841300  0.83060000  0.42892000  1
  C  33  1  0.02140700  0.85715400  0.43049600  1
  C  36  1  0.05541300  0.79755500  0.33233300  1
  C  38  1  0.08975000  0.92775700  0.47072600  1
  C  39  1  0.90717400  0.79272000  0.46158100  1
  C  43  1  0.96900100  0.61591400  0.17896000  1
  C  44  1  0.03707500  0.56541900  0.12503800  1
  C  45  1  0.01946300  0.56203400  0.17642700  1
  C  46  1  0.02833400  0.54772900  0.11447300  1
  C  47  1  0.04365500  0.54014800  0.09690800  1
  C  48  1  0.06955300  0.55004000  0.08935900  1
  C  49  1  0.07955900  0.56766500  0.09980400  1
  C  50  1  0.06247600  0.57521400  0.11731400  1
  C  51  1  0.96436400  0.62584900  0.17109100  1
  C  52  1  0.94394700  0.64335400  0.18047700  1
  C  53  1  0.92915000  0.65155000  0.19812300  1
  C  54  1  0.93330700  0.64180300  0.20612800  1
  C  55  1  0.95280000  0.62428000  0.19668100  1
  C  56  1  0.00188600  0.56997200  0.19409700  1
  C  57  1  0.01217300  0.56088800  0.20264400  1
  C  58  1  0.04001400  0.54342200  0.19386200  1
  C  59  1  0.05775600  0.53539600  0.17623300  1
  C  60  1  0.04699100  0.54452600  0.16767600  1
  C  71  1  0.01224200  0.57150800  0.16796200  1
  C  73  1  0.98852300  0.59814300  0.16937200  1
  C  75  1  0.02157800  0.57316600  0.14281900  1
  C  78  1  0.05532600  0.53454000  0.20235900  1
  C  80  1  0.08967600  0.54284800  0.07222300  1
  C  81  1  0.90766800  0.66869800  0.20721400  1
  C  85  1  0.96923000  0.56307700  0.38396800  1
  C  86  1  0.03726400  0.55942200  0.43436000  1
  C  87  1  0.01946300  0.61428100  0.43792600  1
  C  88  1  0.02837300  0.56651100  0.45204600  1
  C  89  1  0.04352400  0.55649700  0.45959600  1
  C  90  1  0.06938800  0.53905800  0.44967900  1
  C  91  1  0.07949400  0.53191300  0.43205700  1
  C  92  1  0.06252300  0.54190300  0.42453800  1
  C  93  1  0.96750000  0.54527500  0.37391000  1
  C  94  1  0.94615800  0.53723200  0.35642600  1
  C  95  1  0.92745100  0.54677600  0.34839500  1
  C  96  1  0.92897500  0.56452000  0.35823900  1
  C  97  1  0.94948900  0.57251500  0.37574100  1
  C  98  1  0.00139900  0.62404000  0.43002600  1
  C  99  1  0.01155700  0.64166800  0.43913300  1
  C  100  1  0.03983400  0.65032800  0.45658800  1
  C  101  1  0.05811600  0.64069700  0.46457700  1
  C  102  1  0.04736600  0.62301000  0.45542500  1
  C  113  1  0.01245200  0.59634400  0.42841500  1
  C  115  1  0.98901200  0.57117600  0.40173000  1
  C  117  1  0.02195700  0.56949600  0.42665000  1
  C  120  1  0.05520200  0.66770500  0.46547700  1
  C  122  1  0.08944500  0.52908800  0.45684700  1
  C  123  1  0.90426800  0.53881800  0.33130900  1
  C  127  1  0.97794200  0.18140900  0.56455500  1
  C  128  1  0.99977300  0.12576700  0.55857000  1
  C  129  1  0.03308300  0.17627100  0.61416100  1
  C  130  1  0.00164600  0.11489900  0.56538500  1
  C  131  1  0.99144900  0.09731000  0.55496900  1
  C  132  1  0.97929700  0.08988100  0.53728600  1
  C  133  1  0.97860100  0.10068700  0.53043700  1
  C  134  1  0.98879400  0.11822900  0.54084700  1
  C  135  1  0.98175200  0.17475600  0.54688600  1
  C  136  1  0.96103400  0.18511600  0.53980500  1
  C  137  1  0.93500600  0.20244600  0.55025600  1
  C  138  1  0.93124100  0.20924400  0.56785500  1
  C  139  1  0.95340300  0.19889600  0.57487100  1
  C  140  1  0.03127800  0.19407000  0.62417200  1
  C  141  1  0.04228000  0.20220400  0.64176900  1
  C  142  1  0.05506600  0.19287600  0.65016400  1
  C  143  1  0.05882200  0.17512200  0.64029200  1
  C  144  1  0.04732100  0.16697500  0.62261400  1
  C  155  1  0.02084800  0.16823700  0.59628000  1
  C  157  1  0.99479300  0.17091800  0.57178800  1
  C  159  1  0.00558100  0.14363400  0.56907500  1
  C  162  1  0.06773300  0.20099300  0.66755700  1
  C  164  1  0.96531900  0.07261300  0.52660100  1
  C  165  1  0.90685900  0.21266200  0.54366000  1
  C  169  1  0.97853600  0.38290900  0.81876200  1
  C  170  1  0.99991733  0.43271900  0.87423700  1
  C  171  1  0.03362900  0.43756300  0.82359800  1
  C  172  1  0.00140500  0.45040900  0.88506500  1
  C  173  1  0.99107200  0.45761900  0.90265600  1
  C  174  1  0.97913200  0.44739800  0.91012500  1
  C  175  1  0.97879700  0.42973900  0.89936000  1
  C  176  1  0.98913300  0.42256800  0.88181500  1
  C  177  1  0.97942200  0.37207000  0.82563000  1
  C  178  1  0.95811900  0.35462900  0.81542300  1
  C  179  1  0.93500200  0.34755600  0.79801200  1
  C  180  1  0.93441600  0.35816100  0.79098100  1
  C  181  1  0.95673300  0.37554200  0.80119900  1
  C  182  1  0.03203900  0.42972400  0.80579700  1
  C  183  1  0.04311000  0.43914500  0.79761800  1
  C  184  1  0.05574200  0.45687200  0.80690400  1
  C  185  1  0.05925700  0.46480400  0.82466200  1
  C  186  1  0.04771200  0.45531500  0.83285200  1
  C  197  1  0.02131300  0.42776500  0.83168300  1
  C  199  1  0.99533900  0.40064900  0.82913800  1
  C  201  1  0.00578600  0.42531000  0.85636700  1
  C  204  1  0.06843200  0.46610600  0.79874600  1
  C  206  1  0.96496000  0.45401200  0.92739400  1
  C  207  1  0.90586300  0.33075200  0.78800600  1
  C  211  1  0.97882700  0.43565900  0.61684900  1
  C  212  1  0.99961900  0.44123300  0.56700300  1
  C  213  1  0.03316400  0.38576000  0.56219400  1
  C  214  1  0.00112000  0.43437600  0.54931600  1
  C  215  1  0.99084800  0.44476200  0.54210900  1
  C  216  1  0.97901200  0.46245300  0.55233300  1
  C  217  1  0.97869600  0.46934200  0.56999200  1
  C  218  1  0.98894800  0.45896400  0.57715800  1
  C  219  1  0.97798100  0.45338000  0.62760200  1
  C  220  1  0.95663800  0.46067800  0.64504700  1
  C  221  1  0.93546800  0.45039200  0.65221900  1
  C  222  1  0.93672100  0.43274200  0.64170700  1
  C  223  1  0.95888000  0.42551600  0.62431200  1
  C  224  1  0.03147400  0.37578900  0.57002400  1
  C  225  1  0.04247500  0.35818800  0.56059800  1
  C  226  1  0.05515100  0.34975100  0.54287100  1
  C  227  1  0.05873700  0.35958400  0.53494800  1
  C  228  1  0.04723700  0.37726300  0.54444000  1
  C  239  1  0.02094200  0.40364400  0.57198900  1
  C  241  1  0.99532900  0.42823800  0.59909600  1
  C  243  1  0.00551100  0.43077100  0.57441300  1
  C  246  1  0.06776800  0.33235500  0.53361600  1
  C  248  1  0.96494500  0.47311700  0.54572800  1
  C  249  1  0.90601300  0.45727800  0.66902400  1
  C  253  1  0.01080200  0.95510300  0.47872500  1
  C  254  1  0.12962600  0.96474500  0.48362900  1
  C  255  1  0.12425400  0.98243700  0.49255500  1
  C  256  1  0.00021600  0.99104400  0.49676100  1
  C  257  1  0.88169600  0.98127700  0.49160300  1
  C  258  1  0.88696600  0.96357200  0.48263600  1
  C  261  1  0.99541400  0.00901700  0.50560400  1
  C  262  1  0.07893900  0.01870500  0.51967800  1
  C  263  1  0.07645400  0.03641400  0.52811700  1
  C  264  1  0.99181400  0.04499900  0.52261900  1
  C  265  1  0.90623900  0.03541200  0.50877600  1
  C  266  1  0.90827900  0.01771600  0.50040000  1
  C  275  1  0.01056700  0.52352800  0.04488000  1
  C  276  1  0.12938500  0.51873800  0.03523700  1
  C  277  1  0.12399400  0.50999500  0.01754700  1
  C  278  1  0.99997900  0.50567400  0.00894200  1
  C  279  1  0.88142000  0.51032900  0.01871100  1
  C  280  1  0.88670600  0.51904000  0.03641400  1
  C  283  1  0.99510300  0.49657000  0.99097200  1
  C  284  1  0.07901300  0.50093100  0.98129600  1
  C  285  1  0.07648900  0.49168200  0.96358800  1
  C  286  1  0.99143800  0.47764600  0.95499100  1
  C  287  1  0.90545300  0.47341800  0.96456500  1
  C  288  1  0.90748500  0.48272200  0.98226100  1
  C  297  1  0.01060700  0.52108200  0.47619200  1
  C  298  1  0.12943500  0.51621100  0.48096100  1
  C  299  1  0.12406900  0.50726900  0.48971100  1
  C  300  1  0.00001000  0.50302300  0.49407300  1
  C  301  1  0.88150500  0.50816200  0.48944500  1
  C  302  1  0.88677000  0.51714500  0.48072300  1
  C  305  1  0.99520800  0.49416000  0.50318400  1
  C  306  1  0.07897400  0.48010800  0.49880800  1
  C  307  1  0.07644000  0.47164700  0.50805600  1
  C  308  1  0.99147300  0.47709600  0.52210200  1
  C  309  1  0.90564300  0.49091400  0.52634500  1
  C  310  1  0.90771300  0.49931000  0.51704400  1
  C  319  1  0.98367200  0.69444100  0.23092400  1
  C  320  1  0.87261500  0.70520300  0.23424200  1
  C  321  1  0.87494100  0.72182200  0.24784800  1
  C  322  1  0.98819300  0.72817700  0.25847400  1
  C  323  1  0.10097200  0.71754600  0.25466700  1
  C  324  1  0.09829000  0.70088800  0.24114500  1
  C  327  1  0.98288200  0.74384300  0.27387400  1
  C  328  1  0.87500100  0.74723400  0.28512500  1
  C  329  1  0.87715500  0.76132200  0.30142500  1
  C  330  1  0.98608800  0.77256800  0.30688300  1
  C  331  1  0.09245000  0.76959400  0.29557600  1
  C  332  1  0.09081000  0.75538000  0.27928700  1
  C  341  1  0.98410700  0.53606800  0.30538300  1
  C  342  1  0.87325400  0.52860100  0.29458500  1
  C  343  1  0.87592400  0.52555900  0.27795800  1
  C  344  1  0.98927400  0.52984000  0.27162800  1
  C  345  1  0.10211600  0.53659800  0.28225900  1
  C  346  1  0.09920700  0.53972500  0.29891500  1
  C  349  1  0.98387300  0.52963000  0.25598900  1
  C  350  1  0.87595000  0.53753100  0.25265600  1
  C  351  1  0.87790900  0.53980400  0.23860500  1
  C  352  1  0.98654400  0.53400300  0.22731100  1
  C  353  1  0.09310600  0.52567500  0.23025400  1
  C  354  1  0.09175600  0.52356100  0.24444400  1
  C  363  1  0.98362700  0.76905200  0.46366800  1
  C  364  1  0.87283500  0.76578700  0.47119200  1
  C  365  1  0.87532400  0.75221700  0.47425900  1
  C  366  1  0.98844300  0.74156500  0.46995600  1
  C  367  1  0.10105200  0.74533800  0.46307600  1
  C  368  1  0.09829100  0.75884200  0.45991200  1
  C  371  1  0.98309200  0.72617700  0.47024500  1
  C  372  1  0.87489900  0.71496100  0.46244800  1
  C  373  1  0.87692500  0.69866300  0.46024300  1
  C  374  1  0.98595800  0.69318000  0.46599400  1
  C  375  1  0.09260000  0.70445700  0.47427000  1
  C  376  1  0.09115600  0.72073800  0.47632300  1
  C  385  1  0.99989733  0.30373800  0.76974700  1
  C  386  1  0.88631100  0.29323100  0.76589300  1
  C  387  1  0.88749600  0.27673900  0.75206400  1
  C  388  1  0.00225100  0.27020300  0.74175100  1
  C  389  1  0.11794400  0.28045500  0.74624300  1
  C  390  1  0.11677300  0.29695700  0.76007500  1
  C  393  1  0.99685400  0.25470500  0.72616500  1
  C  394  1  0.89180700  0.25179200  0.71466800  1
  C  395  1  0.89405200  0.23778600  0.69831200  1
  C  396  1  0.00034000  0.22615700  0.69302600  1
  C  397  1  0.10372200  0.22865100  0.70455500  1
  C  398  1  0.10206200  0.24279400  0.72089600  1
  C  407  1  0.99949500  0.46547800  0.69597800  1
  C  408  1  0.88608500  0.47215400  0.70650500  1
  C  409  1  0.88735100  0.47479500  0.72299000  1
  C  410  1  0.00216100  0.47101100  0.72950700  1
  C  411  1  0.11775900  0.46523300  0.71924200  1
  C  412  1  0.11635900  0.46253700  0.70273200  1
  C  415  1  0.99692400  0.47094200  0.74501500  1
  C  416  1  0.89195700  0.46236200  0.74794700  1
  C  417  1  0.89451200  0.46000100  0.76194600  1
  C  418  1  0.00080500  0.46636800  0.77357100  1
  C  419  1  0.10416100  0.47538400  0.77104600  1
  C  420  1  0.10220600  0.47760000  0.75691500  1
  C  429  1  0.00093500  0.23003400  0.53390900  1
  C  430  1  0.88685600  0.23395700  0.52740200  1
  C  431  1  0.88772600  0.24781000  0.52477400  1
  C  432  1  0.00276100  0.25805700  0.52841900  1
  C  433  1  0.11906900  0.25345300  0.53396900  1
  C  434  1  0.11816800  0.23960800  0.53661900  1
  C  437  1  0.99719900  0.27367200  0.52856000  1
  C  438  1  0.89264200  0.28520000  0.53728300  1
  C  439  1  0.89502700  0.30159200  0.53972300  1
  C  440  1  0.00057900  0.30687100  0.53326900  1
  C  441  1  0.10363100  0.29532600  0.52414400  1
  C  442  1  0.10194200  0.27895500  0.52186700  1
  H  19  1  0.09864200  0.90523900  0.48058100  1
  H  20  1  0.07074800  0.87562400  0.46380800  1
  H  21  1  0.95351000  0.79699200  0.41484700  1
  H  22  1  0.97612200  0.84159800  0.46227000  1
  H  23  1  0.94172300  0.82561100  0.47589000  1
  H  24  1  0.91972500  0.78107500  0.42856600  1
  H  25  1  0.98188700  0.79888000  0.38165700  1
  H  26  1  0.07964300  0.83048000  0.35349000  1
  H  27  1  0.06181700  0.84502000  0.38340600  1
  H  28  1  0.00050600  0.78450100  0.35200900  1
  H  35  1  0.00974600  0.88052700  0.42080900  1
  H  37  1  0.03755500  0.91025000  0.43771300  1
  H  40  1  0.83435500  0.79626100  0.47005800  1
  H  41  1  0.16370800  0.93179000  0.47911600  1
  H  42  1  0.12054800  0.80176200  0.32710200  1
  H  61  1  0.09893100  0.57520300  0.09475900  1
  H  62  1  0.07111800  0.58802600  0.12437300  1
  H  63  1  0.95463800  0.61771400  0.20299200  1
  H  64  1  0.97524500  0.62046000  0.15833700  1
  H  65  1  0.94104200  0.65006800  0.17430400  1
  H  66  1  0.92101400  0.64735400  0.21889300  1
  H  67  1  0.98248800  0.58259200  0.20110000  1
  H  68  1  0.07902300  0.52279700  0.16943800  1
  H  69  1  0.06128700  0.53819300  0.15492200  1
  H  70  1  0.00100500  0.56729800  0.21545900  1
  H  77  1  0.00976700  0.54011200  0.11943000  1
  H  79  1  0.03749000  0.52731300  0.08970800  1
  H  82  1  0.83532600  0.67365600  0.20362600  1
  H  83  1  0.16402500  0.54714800  0.06818800  1
  H  84  1  0.11991900  0.52504100  0.19808500  1
  H  103  1  0.09886200  0.51933200  0.42449900  1
  H  104  1  0.07133300  0.53617700  0.41173000  1
  H  105  1  0.94902800  0.58539100  0.38240400  1
  H  106  1  0.98109700  0.53785600  0.37919500  1
  H  107  1  0.94513800  0.52434300  0.34961400  1
  H  108  1  0.91387400  0.57177500  0.35278300  1
  H  109  1  0.98173200  0.61844500  0.41741300  1
  H  110  1  0.07976300  0.64648400  0.47716600  1
  H  111  1  0.06215300  0.61656600  0.46172500  1
  H  112  1  0.00010033  0.64809000  0.43274300  1
  H  119  1  0.00989200  0.57908400  0.45968500  1
  H  121  1  0.03733500  0.56211100  0.47242900  1
  H  124  1  0.82704900  0.53100300  0.32658400  1
  H  125  1  0.16345900  0.52070600  0.45249500  1
  H  126  1  0.12026400  0.67292300  0.47492300  1
  H  145  1  0.96994100  0.09589400  0.51771400  1
  H  146  1  0.98694200  0.12542800  0.53520000  1
  H  147  1  0.94810800  0.20432500  0.58768300  1
  H  148  1  0.99908900  0.16221800  0.53890600  1
  H  149  1  0.96270500  0.17985300  0.52698400  1
  H  150  1  0.91137000  0.22176100  0.57573100  1
  H  151  1  0.02198300  0.20147600  0.61880700  1
  H  152  1  0.06885700  0.16794000  0.64590800  1
  H  153  1  0.04970500  0.15410200  0.61597700  1
  H  154  1  0.04166000  0.21509600  0.64838000  1
  H  161  1  0.00860600  0.11967100  0.57810400  1
  H  163  1  0.99115200  0.09000300  0.56050600  1
  H  166  1  0.81402900  0.21697700  0.54475500  1
  H  167  1  0.93365200  0.06850100  0.51489600  1
  H  168  1  0.12826500  0.19629300  0.67277800  1
  H  187  1  0.97032200  0.42182900  0.90418100  1
  H  188  1  0.98755700  0.40972000  0.87464800  1
  H  189  1  0.95364800  0.38279500  0.79561400  1
  H  190  1  0.99463300  0.37676400  0.83823100  1
  H  191  1  0.95745400  0.34721200  0.82084700  1
  H  192  1  0.91630500  0.35337000  0.77840200  1
  H  193  1  0.02285400  0.41694800  0.79842300  1
  H  194  1  0.06917400  0.47760500  0.83181300  1
  H  195  1  0.04992100  0.46158800  0.84572500  1
  H  196  1  0.04263500  0.43283100  0.78472400  1
  H  203  1  0.00817500  0.45832800  0.88025800  1
  H  205  1  0.99049200  0.47046600  0.90993700  1
  H  208  1  0.81141200  0.32750000  0.78453600  1
  H  209  1  0.93331200  0.44642900  0.93152000  1
  H  210  1  0.12875000  0.47604900  0.80344100  1
  H  229  1  0.97031700  0.48207300  0.57790400  1
  H  230  1  0.98743300  0.46464400  0.59000600  1
  H  231  1  0.95708900  0.41266900  0.61712200  1
  H  232  1  0.99163800  0.46125500  0.62284000  1
  H  233  1  0.95443900  0.47352300  0.65239000  1
  H  234  1  0.91985100  0.42499300  0.64657200  1
  H  235  1  0.02225300  0.38119100  0.58280000  1
  H  236  1  0.06860700  0.35394000  0.52214600  1
  H  237  1  0.04949600  0.38386600  0.53816900  1
  H  238  1  0.04188600  0.35160200  0.56690400  1
  H  245  1  0.00785000  0.42165000  0.54139500  1
  H  247  1  0.99028700  0.43920000  0.52926200  1
  H  250  1  0.81088200  0.45759900  0.67228900  1
  H  251  1  0.93321300  0.48482100  0.55331100  1
  H  252  1  0.12747900  0.32711500  0.52361300  1
  H  259  1  0.78989100  0.98697100  0.49450100  1
  H  260  1  0.79941100  0.95689000  0.47914100  1
  H  267  1  0.14177700  0.01294400  0.52405400  1
  H  268  1  0.13865000  0.04301400  0.53819700  1
  H  269  1  0.84177000  0.04120200  0.50462400  1
  H  270  1  0.22099100  0.95896000  0.48053100  1
  H  271  1  0.84727800  0.01123700  0.49017500  1
  H  272  1  0.21239500  0.98898200  0.49561000  1
  H  281  1  0.78961000  0.50759300  0.01301800  1
  H  282  1  0.79915100  0.52227600  0.04310000  1
  H  289  1  0.14219700  0.51103200  0.98706800  1
  H  290  1  0.13903100  0.49513600  0.95699500  1
  H  291  1  0.84069600  0.46350900  0.95876700  1
  H  292  1  0.22074500  0.52137700  0.04102100  1
  H  293  1  0.84625800  0.47898800  0.98873000  1
  H  294  1  0.21211500  0.50647100  0.01099900  1
  H  303  1  0.78970000  0.50523500  0.49221100  1
  H  304  1  0.79920600  0.52061700  0.47751300  1
  H  311  1  0.14210600  0.47577300  0.48870200  1
  H  312  1  0.13889000  0.46159100  0.50459200  1
  H  313  1  0.84096600  0.49503400  0.53626300  1
  H  314  1  0.22079000  0.51933600  0.47829900  1
  H  315  1  0.84658800  0.50952400  0.52079000  1
  H  316  1  0.21220400  0.50423800  0.49322600  1
  H  325  1  0.18285500  0.72141500  0.26240300  1
  H  326  1  0.17874600  0.69324300  0.23930300  1
  H  333  1  0.79775000  0.73886500  0.28199400  1
  H  334  1  0.80102700  0.76287400  0.30955300  1
  H  335  1  0.17510100  0.77717000  0.29940500  1
  H  336  1  0.78632500  0.70077600  0.22744800  1
  H  337  1  0.17167500  0.75317900  0.27161600  1
  H  338  1  0.79077100  0.72904500  0.25034800  1
  H  347  1  0.18419600  0.54044000  0.27840000  1
  H  348  1  0.17971100  0.54549900  0.30656400  1
  H  355  1  0.79897500  0.54279700  0.26106400  1
  H  356  1  0.80186500  0.54643400  0.23711900  1
  H  357  1  0.17567500  0.52194800  0.22266300  1
  H  358  1  0.78683500  0.52621500  0.29897000  1
  H  359  1  0.17263000  0.51805600  0.24659800  1
  H  360  1  0.79173600  0.52086300  0.27073200  1
  H  369  1  0.18278100  0.73757700  0.45917900  1
  H  370  1  0.17855000  0.76063900  0.45404900  1
  H  377  1  0.79772600  0.71808500  0.45719300  1
  H  378  1  0.80081200  0.69053800  0.45365600  1
  H  379  1  0.17540500  0.70059500  0.47795700  1
  H  380  1  0.78661000  0.77259900  0.47359600  1
  H  381  1  0.17222900  0.72838300  0.48174700  1
  H  382  1  0.79126100  0.74974200  0.47902100  1
  H  391  1  0.20160200  0.27643300  0.73882600  1
  H  392  1  0.19966700  0.30435300  0.76236200  1
  H  399  1  0.81668700  0.26042200  0.71769700  1
  H  400  1  0.82042400  0.23659500  0.69002100  1
  H  401  1  0.18476700  0.22080700  0.70084100  1
  H  402  1  0.79996100  0.29769800  0.77266500  1
  H  403  1  0.18089000  0.24462200  0.72874900  1
  H  404  1  0.80171100  0.26974300  0.74919700  1
  H  413  1  0.20145300  0.46183500  0.72325500  1
  H  414  1  0.19925300  0.45744700  0.69532900  1
  H  421  1  0.81682200  0.45675200  0.73932100  1
  H  422  1  0.82079400  0.45293200  0.76317200  1
  H  423  1  0.18508100  0.47956600  0.77890900  1
  H  424  1  0.79969700  0.47447400  0.70206000  1
  H  425  1  0.18095600  0.48362500  0.75507200  1
  H  426  1  0.80170800  0.47896200  0.73001000  1
  H  435  1  0.20303300  0.26081000  0.53725000  1
  H  436  1  0.20155300  0.23723400  0.54158100  1
  H  443  1  0.81817800  0.28219200  0.54298300  1
  H  444  1  0.82176900  0.30989500  0.54691700  1
  H  445  1  0.18416000  0.29901800  0.51991200  1
  H  446  1  0.80035700  0.22723000  0.52521500  1
  H  447  1  0.18037000  0.27107500  0.51572600  1
  H  448  1  0.80156100  0.25073700  0.52077000  1
  N  30  1  0.99374900  0.82323000  0.41188500  1
  N  32  1  0.00290600  0.84759000  0.43783400  1
  N  34  1  0.02564400  0.84900900  0.41337300  1
  N  72  1  0.99385700  0.58847900  0.17674500  1
  N  74  1  0.00305000  0.59006800  0.15238500  1
  N  76  1  0.02579300  0.56418700  0.15096300  1
  N  114  1  0.99414300  0.58820500  0.41144700  1
  N  116  1  0.00355100  0.56220800  0.40974900  1
  N  118  1  0.02603200  0.58661900  0.43568300  1
  N  156  1  0.00811600  0.17762000  0.58866400  1
  N  158  1  0.99362300  0.15386100  0.56234700  1
  N  160  1  0.01867300  0.15120100  0.58612500  1
  N  198  1  0.00870500  0.41075500  0.82235700  1
  N  200  1  0.99393900  0.40835000  0.84620000  1
  N  202  1  0.01896800  0.43472400  0.84873000  1
  N  240  1  0.00856200  0.41134400  0.58900600  1
  N  242  1  0.99386300  0.43757500  0.59137200  1
  N  244  1  0.01856100  0.41371800  0.56501400  1
  N  273  1  0.99652400  0.06175100  0.53100400  1
  N  274  1  0.00970600  0.93837500  0.47006000  1
  N  295  1  0.99623400  0.46927700  0.93823800  1
  N  296  1  0.00945600  0.53158900  0.06160700  1
  N  317  1  0.99624800  0.46870400  0.53046400  1
  N  318  1  0.00950100  0.52976100  0.46814300  1
  N  339  1  0.98959300  0.78395300  0.32311700  1
  N  340  1  0.98231100  0.67804300  0.21990600  1
  N  361  1  0.98987800  0.53893600  0.21598900  1
  N  362  1  0.98274700  0.54146400  0.32179100  1
  N  383  1  0.98943800  0.67693800  0.46110800  1
  N  384  1  0.98220300  0.78007600  0.45829600  1
  N  405  1  0.00531500  0.21488400  0.67676300  1
  N  406  1  0.00139000  0.32008200  0.78112800  1
  N  427  1  0.00591500  0.46139700  0.78485700  1
  N  428  1  0.00108000  0.46052500  0.67963800  1
  N  449  1  0.00563700  0.32315100  0.53832600  1
  N  450  1  0.00255100  0.21865800  0.53888200  1
