# generated using pymatgen
data_ZnH7C12(N2O)2
_symmetry_space_group_name_H-M   'P 1'
_cell_length_a   9.91707000
_cell_length_b   18.99951000
_cell_length_c   32.46559000
_cell_angle_alpha   89.98582000
_cell_angle_beta   89.80500000
_cell_angle_gamma   89.91734000
_symmetry_Int_Tables_number   1
_chemical_formula_structural   ZnH7C12(N2O)2
_chemical_formula_sum   'Zn16 H112 C192 N64 O32'
_cell_volume   6117.10730809
_cell_formula_units_Z   16
loop_
 _symmetry_equiv_pos_site_id
 _symmetry_equiv_pos_as_xyz
  1  'x, y, z'
loop_
 _atom_site_type_symbol
 _atom_site_label
 _atom_site_symmetry_multiplicity
 _atom_site_fract_x
 _atom_site_fract_y
 _atom_site_fract_z
 _atom_site_occupancy
  Zn  Zn1  1  0.74961000  0.90431000  0.94489000  1.0
  Zn  Zn2  1  0.97085000  0.93659000  0.78017000  1.0
  Zn  Zn3  1  0.24958000  0.59574000  0.44447000  1.0
  Zn  Zn4  1  0.02863000  0.56323000  0.28011000  1.0
  Zn  Zn5  1  0.25014000  0.09512000  0.55542000  1.0
  Zn  Zn6  1  0.47153000  0.06504000  0.71980000  1.0
  Zn  Zn7  1  0.74986000  0.40413000  0.05537000  1.0
  Zn  Zn8  1  0.52874000  0.43484000  0.21982000  1.0
  Zn  Zn9  1  0.25038000  0.09569000  0.05512000  1.0
  Zn  Zn10  1  0.02914000  0.06340000  0.21983000  1.0
  Zn  Zn11  1  0.75041000  0.40426000  0.55554000  1.0
  Zn  Zn12  1  0.97136000  0.43677000  0.71989000  1.0
  Zn  Zn13  1  0.74985000  0.90488000  0.44458000  1.0
  Zn  Zn14  1  0.52846000  0.93495000  0.28020000  1.0
  Zn  Zn15  1  0.25013000  0.59586000  0.94463000  1.0
  Zn  Zn16  1  0.47125000  0.56516000  0.78018000  1.0
  H  H1  1  0.93615000  0.82316000  0.00714000  1.0
  H  H2  1  0.98335000  0.69429000  0.02173000  1.0
  H  H3  1  0.84961000  0.60431000  0.98407000  1.0
  H  H4  1  0.67869000  0.64256000  0.93281000  1.0
  H  H5  1  0.55017000  0.68268000  0.88819000  1.0
  H  H6  1  0.37994000  0.73782000  0.84222000  1.0
  H  H7  1  0.36117000  0.86787000  0.83905000  1.0
  H  H8  1  0.51460000  0.94046000  0.88454000  1.0
  H  H9  1  0.04077000  0.98296000  0.97435000  1.0
  H  H10  1  0.36583000  0.04755000  0.89450000  1.0
  H  H11  1  0.24420000  0.00167000  0.83193000  1.0
  H  H12  1  0.88413000  0.73361000  0.74180000  1.0
  H  H13  1  0.85674000  0.60490000  0.72889000  1.0
  H  H14  1  0.28569000  0.70360000  0.78854000  1.0
  H  H15  1  0.06175000  0.67667000  0.50691000  1.0
  H  H16  1  0.01493000  0.80547000  0.52181000  1.0
  H  H17  1  0.14917000  0.89560000  0.48416000  1.0
  H  H18  1  0.32050000  0.85752000  0.43263000  1.0
  H  H19  1  0.45100000  0.81761000  0.38821000  1.0
  H  H20  1  0.62237000  0.76241000  0.34225000  1.0
  H  H21  1  0.64030000  0.63241000  0.33867000  1.0
  H  H22  1  0.48468000  0.55973000  0.38385000  1.0
  H  H23  1  0.95754000  0.51740000  0.47453000  1.0
  H  H24  1  0.63249000  0.45205000  0.39588000  1.0
  H  H25  1  0.75403000  0.49720000  0.33280000  1.0
  H  H26  1  0.11675000  0.76667000  0.24179000  1.0
  H  H27  1  0.14389000  0.89536000  0.22875000  1.0
  H  H28  1  0.71391000  0.79634000  0.28840000  1.0
  H  H29  1  0.43827000  0.17643000  0.49276000  1.0
  H  H30  1  0.48540000  0.30523000  0.47828000  1.0
  H  H31  1  0.35103000  0.39527000  0.51611000  1.0
  H  H32  1  0.17939000  0.35707000  0.56744000  1.0
  H  H33  1  0.04915000  0.31729000  0.61176000  1.0
  H  H34  1  0.87826000  0.26230000  0.65783000  1.0
  H  H35  1  0.86024000  0.13229000  0.66131000  1.0
  H  H36  1  0.01551000  0.05948000  0.61600000  1.0
  H  H37  1  0.54191000  0.01857000  0.52523000  1.0
  H  H38  1  0.86859000  0.95200000  0.60329000  1.0
  H  H39  1  0.74772000  0.99656000  0.66666667  1.0
  H  H40  1  0.38373000  0.26724000  0.75815000  1.0
  H  H41  1  0.35613000  0.39588000  0.77133000  1.0
  H  H42  1  0.78642000  0.29684000  0.71155000  1.0
  H  H43  1  0.56399000  0.32340000  0.99287000  1.0
  H  H44  1  0.51692000  0.19453000  0.97829000  1.0
  H  H45  1  0.65070000  0.10438000  0.01607000  1.0
  H  H46  1  0.82116000  0.14256000  0.06742000  1.0
  H  H47  1  0.95019000  0.18247000  0.11187000  1.0
  H  H48  1  0.12037000  0.23746000  0.15777000  1.0
  H  H49  1  0.13881000  0.36748000  0.16092000  1.0
  H  H50  1  0.98493000  0.44022000  0.11551000  1.0
  H  H51  1  0.45935000  0.48306000  0.02561000  1.0
  H  H52  1  0.13295000  0.54844000  0.10468000  1.0
  H  H53  1  0.25348000  0.50287000  0.16756000  1.0
  H  H54  1  0.61555000  0.23288000  0.25809000  1.0
  H  H55  1  0.64324000  0.10423000  0.27127000  1.0
  H  H56  1  0.21390000  0.20303000  0.21154000  1.0
  H  H57  1  0.06384000  0.17684000  0.99286000  1.0
  H  H58  1  0.01664000  0.30571000  0.97827000  1.0
  H  H59  1  0.15038000  0.39568000  0.01594000  1.0
  H  H60  1  0.32130000  0.35743000  0.06719000  1.0
  H  H61  1  0.44983000  0.31732000  0.11181000  1.0
  H  H62  1  0.62005000  0.26217000  0.15779000  1.0
  H  H63  1  0.63882000  0.13212000  0.16095000  1.0
  H  H64  1  0.48540000  0.05954000  0.11546000  1.0
  H  H65  1  0.95922000  0.01704000  0.02565000  1.0
  H  H66  1  0.63417000  0.95244000  0.10550000  1.0
  H  H67  1  0.75579000  0.99833000  0.16807000  1.0
  H  H68  1  0.11586000  0.26639000  0.25820000  1.0
  H  H69  1  0.14325000  0.39510000  0.27111000  1.0
  H  H70  1  0.71430000  0.29640000  0.21146000  1.0
  H  H71  1  0.93824000  0.32333000  0.49309000  1.0
  H  H72  1  0.98506000  0.19453000  0.47819000  1.0
  H  H73  1  0.85082000  0.10440000  0.51585000  1.0
  H  H74  1  0.67949000  0.14247000  0.56737000  1.0
  H  H75  1  0.54899000  0.18239000  0.61180000  1.0
  H  H76  1  0.37763000  0.23758000  0.65775000  1.0
  H  H77  1  0.35969000  0.36759000  0.66133000  1.0
  H  H78  1  0.51531000  0.44027000  0.61615000  1.0
  H  H79  1  0.04245000  0.48259000  0.52547000  1.0
  H  H80  1  0.36750000  0.54795000  0.60413000  1.0
  H  H81  1  0.24597000  0.50280000  0.66720000  1.0
  H  H82  1  0.88324000  0.23333000  0.75821000  1.0
  H  H83  1  0.85610000  0.10464000  0.77125000  1.0
  H  H84  1  0.28608000  0.20365000  0.71160000  1.0
  H  H85  1  0.56172000  0.82357000  0.50724000  1.0
  H  H86  1  0.51459000  0.69476000  0.52173000  1.0
  H  H87  1  0.64896000  0.60472000  0.48389000  1.0
  H  H88  1  0.82060000  0.64292000  0.43256000  1.0
  H  H89  1  0.95084000  0.68270000  0.38825000  1.0
  H  H90  1  0.12173000  0.73770000  0.34217000  1.0
  H  H91  1  0.13975000  0.86771000  0.33869000  1.0
  H  H92  1  0.98448000  0.94052000  0.38401000  1.0
  H  H93  1  0.45808000  0.98142000  0.47477000  1.0
  H  H94  1  0.13140000  0.04800000  0.39672000  1.0
  H  H95  1  0.25227000  0.00343000  0.33338000  1.0
  H  H96  1  0.61626000  0.73275000  0.24186000  1.0
  H  H97  1  0.64386000  0.60411000  0.22867000  1.0
  H  H98  1  0.21357000  0.70316000  0.28846000  1.0
  H  H99  1  0.43600000  0.67660000  0.00713000  1.0
  H  H100  1  0.48307000  0.80546000  0.02171000  1.0
  H  H101  1  0.34929000  0.89561000  0.98393000  1.0
  H  H102  1  0.17883000  0.85743000  0.93258000  1.0
  H  H103  1  0.04980000  0.81753000  0.88813000  1.0
  H  H104  1  0.87963000  0.76254000  0.84223000  1.0
  H  H105  1  0.86118000  0.63252000  0.83909000  1.0
  H  H106  1  0.01506000  0.55977000  0.88449000  1.0
  H  H107  1  0.54064000  0.51694000  0.97440000  1.0
  H  H108  1  0.86704000  0.45156000  0.89533000  1.0
  H  H109  1  0.74651000  0.49712000  0.83244000  1.0
  H  H110  1  0.38444000  0.76712000  0.74191000  1.0
  H  H111  1  0.35675000  0.89576000  0.72873000  1.0
  H  H112  1  0.78609000  0.79697000  0.78846000  1.0
  C  C1  1  0.88175000  0.78125000  0.99149000  1.0
  C  C2  1  0.90674000  0.71051000  0.99972000  1.0
  C  C3  1  0.83236000  0.66008000  0.97828000  1.0
  C  C4  1  0.73652000  0.68168000  0.94958000  1.0
  C  C5  1  0.71688000  0.75373000  0.94262000  1.0
  C  C6  1  0.61760000  0.78226000  0.91286000  1.0
  C  C7  1  0.53836000  0.73945000  0.88769000  1.0
  C  C8  1  0.44458000  0.77032000  0.86139000  1.0
  C  C9  1  0.43365000  0.84343000  0.85975000  1.0
  C  C10  1  0.51784000  0.88324000  0.88485000  1.0
  C  C11  1  0.01417000  0.96478000  0.90883000  1.0
  C  C12  1  0.08403000  0.98763000  0.94375000  1.0
  C  C13  1  0.21115000  0.01725000  0.93767000  1.0
  C  C14  1  0.28597000  0.04796000  0.97383000  1.0
  C  C15  1  0.26755000  0.02256000  0.89733000  1.0
  C  C16  1  0.20041000  0.99842000  0.86266000  1.0
  C  C17  1  0.07103000  0.96969000  0.86894000  1.0
  C  C18  1  0.09290000  0.80255000  0.77768000  1.0
  C  C19  1  0.08537000  0.72572000  0.76645000  1.0
  C  C20  1  0.96618000  0.69756000  0.74847000  1.0
  C  C21  1  0.95108000  0.62646000  0.74024000  1.0
  C  C22  1  0.06278000  0.58308000  0.74851000  1.0
  C  C23  1  0.18332000  0.61116000  0.76469000  1.0
  C  C24  1  0.19467000  0.68239000  0.77507000  1.0
  C  C25  1  0.11646000  0.71863000  0.49126000  1.0
  C  C26  1  0.09163000  0.78933000  0.49967000  1.0
  C  C27  1  0.16635000  0.83986000  0.47824000  1.0
  C  C28  1  0.26238000  0.81836000  0.44938000  1.0
  C  C29  1  0.28203000  0.74634000  0.44229000  1.0
  C  C30  1  0.38195000  0.71791000  0.41249000  1.0
  C  C31  1  0.46226000  0.76079000  0.38750000  1.0
  C  C32  1  0.55670000  0.72991000  0.36123000  1.0
  C  C33  1  0.56718000  0.65679000  0.35934000  1.0
  C  C34  1  0.48196000  0.61695000  0.38428000  1.0
  C  C35  1  0.98404000  0.53555000  0.40892000  1.0
  C  C36  1  0.91465000  0.51260000  0.44400000  1.0
  C  C37  1  0.78791000  0.48256000  0.43835000  1.0
  C  C38  1  0.71522000  0.45201000  0.47500000  1.0
  C  C39  1  0.73088000  0.47699000  0.39828000  1.0
  C  C40  1  0.79783000  0.50102000  0.36340000  1.0
  C  C41  1  0.92709000  0.53010000  0.36919000  1.0
  C  C42  1  0.90722000  0.69753000  0.27766000  1.0
  C  C43  1  0.91482000  0.77435000  0.26637000  1.0
  C  C44  1  0.03435000  0.80260000  0.24840000  1.0
  C  C45  1  0.04943000  0.87371000  0.24014000  1.0
  C  C46  1  0.93744000  0.91701000  0.24841000  1.0
  C  C47  1  0.81660000  0.88885000  0.26457000  1.0
  C  C48  1  0.80522000  0.81761000  0.27497000  1.0
  C  C49  1  0.38350000  0.21829000  0.50854000  1.0
  C  C50  1  0.40852000  0.28903000  0.50033000  1.0
  C  C51  1  0.33373000  0.33951000  0.52185000  1.0
  C  C52  1  0.23756000  0.31794000  0.55061000  1.0
  C  C53  1  0.21790000  0.24589000  0.55754000  1.0
  C  C54  1  0.11808000  0.21757000  0.58738000  1.0
  C  C55  1  0.03789000  0.26051000  0.61243000  1.0
  C  C56  1  0.94367000  0.22973000  0.63876000  1.0
  C  C57  1  0.93317000  0.15663000  0.64061000  1.0
  C  C58  1  0.01822000  0.11671000  0.61561000  1.0
  C  C59  1  0.51633000  0.03564000  0.59089000  1.0
  C  C60  1  0.58554000  0.01319000  0.55564000  1.0
  C  C61  1  0.71275000  0.98319000  0.56103000  1.0
  C  C62  1  0.78493000  0.95334000  0.52405000  1.0
  C  C63  1  0.77011000  0.97707000  0.60104000  1.0
  C  C64  1  0.70342000  0.00074000  0.63609000  1.0
  C  C65  1  0.57394000  0.02997000  0.63054000  1.0
  C  C66  1  0.59309000  0.19828000  0.72231000  1.0
  C  C67  1  0.58564000  0.27501000  0.73358000  1.0
  C  C68  1  0.46597000  0.30320000  0.75159000  1.0
  C  C69  1  0.45070000  0.37427000  0.75993000  1.0
  C  C70  1  0.56251000  0.41759000  0.75169000  1.0
  C  C71  1  0.68351000  0.38940000  0.73550000  1.0
  C  C72  1  0.69513000  0.31818000  0.72502000  1.0
  C  C73  1  0.61829000  0.28140000  0.00856000  1.0
  C  C74  1  0.59341000  0.21068000  0.00033000  1.0
  C  C75  1  0.66775000  0.16015000  0.02183000  1.0
  C  C76  1  0.76341000  0.18169000  0.05056000  1.0
  C  C77  1  0.78295000  0.25371000  0.05750000  1.0
  C  C78  1  0.88220000  0.28211000  0.08725000  1.0
  C  C79  1  0.96175000  0.23923000  0.11236000  1.0
  C  C80  1  0.05555000  0.27001000  0.13862000  1.0
  C  C81  1  0.06629000  0.34310000  0.14026000  1.0
  C  C82  1  0.98184000  0.38300000  0.11522000  1.0
  C  C83  1  0.48472000  0.46497000  0.09119000  1.0
  C  C84  1  0.41559000  0.48775000  0.05612000  1.0
  C  C85  1  0.28835000  0.51757000  0.06184000  1.0
  C  C86  1  0.21537000  0.54793000  0.02522000  1.0
  C  C87  1  0.23116000  0.52318000  0.10205000  1.0
  C  C88  1  0.29771000  0.49914000  0.13691000  1.0
  C  C89  1  0.42723000  0.47006000  0.13100000  1.0
  C  C90  1  0.40684000  0.30173000  0.22229000  1.0
  C  C91  1  0.41422000  0.22497000  0.23353000  1.0
  C  C92  1  0.53358000  0.19684000  0.25154000  1.0
  C  C93  1  0.54880000  0.12578000  0.25991000  1.0
  C  C94  1  0.43721000  0.08241000  0.25173000  1.0
  C  C95  1  0.31655000  0.11053000  0.23552000  1.0
  C  C96  1  0.30498000  0.18174000  0.22501000  1.0
  C  C97  1  0.11825000  0.21875000  0.00851000  1.0
  C  C98  1  0.09325000  0.28948000  0.00028000  1.0
  C  C99  1  0.16764000  0.33992000  0.02173000  1.0
  C  C100  1  0.26347000  0.31832000  0.05042000  1.0
  C  C101  1  0.28312000  0.24626000  0.05739000  1.0
  C  C102  1  0.38239000  0.21774000  0.08714000  1.0
  C  C103  1  0.46163000  0.26054000  0.11231000  1.0
  C  C104  1  0.55541000  0.22967000  0.13861000  1.0
  C  C105  1  0.56634000  0.15657000  0.14026000  1.0
  C  C106  1  0.48215000  0.11676000  0.11516000  1.0
  C  C107  1  0.98582000  0.03522000  0.09117000  1.0
  C  C108  1  0.91597000  0.01237000  0.05625000  1.0
  C  C109  1  0.78884000  0.98275000  0.06234000  1.0
  C  C110  1  0.71403000  0.95203000  0.02617000  1.0
  C  C111  1  0.73244000  0.97743000  0.10268000  1.0
  C  C112  1  0.79958000  0.00158000  0.13734000  1.0
  C  C113  1  0.92896000  0.03030000  0.13106000  1.0
  C  C114  1  0.90709000  0.19745000  0.22232000  1.0
  C  C115  1  0.91463000  0.27427000  0.23355000  1.0
  C  C116  1  0.03382000  0.30243000  0.25153000  1.0
  C  C117  1  0.04892000  0.37354000  0.25976000  1.0
  C  C118  1  0.93721000  0.41692000  0.25149000  1.0
  C  C119  1  0.81667000  0.38884000  0.23532000  1.0
  C  C120  1  0.80532000  0.31761000  0.22493000  1.0
  C  C121  1  0.88353000  0.28137000  0.50874000  1.0
  C  C122  1  0.90836000  0.21067000  0.50033000  1.0
  C  C123  1  0.83364000  0.16014000  0.52176000  1.0
  C  C124  1  0.73761000  0.18164000  0.55062000  1.0
  C  C125  1  0.71796000  0.25366000  0.55771000  1.0
  C  C126  1  0.61804000  0.28208000  0.58751000  1.0
  C  C127  1  0.53774000  0.23920000  0.61250000  1.0
  C  C128  1  0.44329000  0.27009000  0.63878000  1.0
  C  C129  1  0.43281000  0.34320000  0.64066000  1.0
  C  C130  1  0.51803000  0.38304000  0.61572000  1.0
  C  C131  1  0.01595000  0.46445000  0.59108000  1.0
  C  C132  1  0.08534000  0.48739000  0.55600000  1.0
  C  C133  1  0.21208000  0.51743000  0.56165000  1.0
  C  C134  1  0.28477000  0.54799000  0.52500000  1.0
  C  C135  1  0.26911000  0.52300000  0.60172000  1.0
  C  C136  1  0.20216000  0.49898000  0.63660000  1.0
  C  C137  1  0.07290000  0.46990000  0.63081000  1.0
  C  C138  1  0.09278000  0.30247000  0.72235000  1.0
  C  C139  1  0.08517000  0.22564000  0.73363000  1.0
  C  C140  1  0.96564000  0.19739000  0.75160000  1.0
  C  C141  1  0.95057000  0.12629000  0.75986000  1.0
  C  C142  1  0.06256000  0.08299000  0.75159000  1.0
  C  C143  1  0.18340000  0.11115000  0.73543000  1.0
  C  C144  1  0.19477000  0.18239000  0.72503000  1.0
  C  C145  1  0.61649000  0.78171000  0.49146000  1.0
  C  C146  1  0.59147000  0.71097000  0.49967000  1.0
  C  C147  1  0.66626000  0.66048000  0.47815000  1.0
  C  C148  1  0.76244000  0.68206000  0.44939000  1.0
  C  C149  1  0.78209000  0.75411000  0.44246000  1.0
  C  C150  1  0.88192000  0.78242000  0.41262000  1.0
  C  C151  1  0.96210000  0.73949000  0.38757000  1.0
  C  C152  1  0.05632000  0.77027000  0.36124000  1.0
  C  C153  1  0.06683000  0.84337000  0.35939000  1.0
  C  C154  1  0.98177000  0.88329000  0.38439000  1.0
  C  C155  1  0.48367000  0.96436000  0.40911000  1.0
  C  C156  1  0.41445000  0.98680000  0.44436000  1.0
  C  C157  1  0.28724000  0.01681000  0.43897000  1.0
  C  C158  1  0.21506000  0.04666000  0.47595000  1.0
  C  C159  1  0.22988000  0.02293000  0.39896000  1.0
  C  C160  1  0.29657000  0.99926000  0.36391000  1.0
  C  C161  1  0.42605000  0.97002000  0.36946000  1.0
  C  C162  1  0.40690000  0.80171000  0.27769000  1.0
  C  C163  1  0.41435000  0.72499000  0.26642000  1.0
  C  C164  1  0.53402000  0.69679000  0.24842000  1.0
  C  C165  1  0.54929000  0.62573000  0.24007000  1.0
  C  C166  1  0.43748000  0.58240000  0.24831000  1.0
  C  C167  1  0.31648000  0.61060000  0.26450000  1.0
  C  C168  1  0.30487000  0.68181000  0.27498000  1.0
  C  C169  1  0.38170000  0.71860000  0.99144000  1.0
  C  C170  1  0.40658000  0.78932000  0.99967000  1.0
  C  C171  1  0.33224000  0.83984000  0.97817000  1.0
  C  C172  1  0.23658000  0.81831000  0.94944000  1.0
  C  C173  1  0.21704000  0.74629000  0.94251000  1.0
  C  C174  1  0.11780000  0.71788000  0.91275000  1.0
  C  C175  1  0.03824000  0.76076000  0.88764000  1.0
  C  C176  1  0.94445000  0.72998000  0.86138000  1.0
  C  C177  1  0.93370000  0.65690000  0.85974000  1.0
  C  C178  1  0.01816000  0.61699000  0.88478000  1.0
  C  C179  1  0.51527000  0.53502000  0.90881000  1.0
  C  C180  1  0.58440000  0.51225000  0.94388000  1.0
  C  C181  1  0.71164000  0.48243000  0.93816000  1.0
  C  C182  1  0.78462000  0.45206000  0.97478000  1.0
  C  C183  1  0.76884000  0.47682000  0.89796000  1.0
  C  C184  1  0.70228000  0.50086000  0.86310000  1.0
  C  C185  1  0.57276000  0.52994000  0.86901000  1.0
  C  C186  1  0.59315000  0.69827000  0.77771000  1.0
  C  C187  1  0.58577000  0.77502000  0.76647000  1.0
  C  C188  1  0.46642000  0.80316000  0.74846000  1.0
  C  C189  1  0.45119000  0.87422000  0.74009000  1.0
  C  C190  1  0.56278000  0.91759000  0.74827000  1.0
  C  C191  1  0.68344000  0.88946000  0.76448000  1.0
  C  C192  1  0.69501000  0.81825000  0.77499000  1.0
  N  N1  1  0.60641000  0.85363000  0.91107000  1.0
  N  N2  1  0.78997000  0.80213000  0.96356000  1.0
  N  N3  1  0.88860000  0.93522000  0.90405000  1.0
  N  N4  1  0.86846000  0.92280000  0.86386000  1.0
  N  N5  1  0.97644000  0.94322000  0.84239000  1.0
  N  N6  1  0.27311000  0.55616000  0.76732000  1.0
  N  N7  1  0.21315000  0.49749000  0.75433000  1.0
  N  N8  1  0.08594000  0.51232000  0.74313000  1.0
  N  N9  1  0.39291000  0.64653000  0.41055000  1.0
  N  N10  1  0.20855000  0.69787000  0.46321000  1.0
  N  N11  1  0.10938000  0.56532000  0.40383000  1.0
  N  N12  1  0.12944000  0.57729000  0.36355000  1.0
  N  N13  1  0.02161000  0.55645000  0.34235000  1.0
  N  N14  1  0.72662000  0.94378000  0.26718000  1.0
  N  N15  1  0.78673000  0.00249000  0.25418000  1.0
  N  N16  1  0.91422000  0.98774000  0.24299000  1.0
  N  N17  1  0.10712000  0.14623000  0.58932000  1.0
  N  N18  1  0.29128000  0.19739000  0.53651000  1.0
  N  N19  1  0.39094000  0.06547000  0.59619000  1.0
  N  N20  1  0.37158000  0.07741000  0.63648000  1.0
  N  N21  1  0.47977000  0.05645000  0.65753000  1.0
  N  N22  1  0.77322000  0.44434000  0.73293000  1.0
  N  N23  1  0.71278000  0.50303000  0.74592000  1.0
  N  N24  1  0.58537000  0.48837000  0.75712000  1.0
  N  N25  1  0.89318000  0.35347000  0.08906000  1.0
  N  N26  1  0.70987000  0.30217000  0.03652000  1.0
  N  N27  1  0.60998000  0.43498000  0.09610000  1.0
  N  N28  1  0.62934000  0.42229000  0.13628000  1.0
  N  N29  1  0.52127000  0.44305000  0.15765000  1.0
  N  N30  1  0.22702000  0.05555000  0.23293000  1.0
  N  N31  1  0.28725000  0.99689000  0.24596000  1.0
  N  N32  1  0.41436000  0.01162000  0.25719000  1.0
  N  N33  1  0.39359000  0.14637000  0.08893000  1.0
  N  N34  1  0.21002000  0.19787000  0.03644000  1.0
  N  N35  1  0.11139000  0.06477000  0.09595000  1.0
  N  N36  1  0.13154000  0.07719000  0.13615000  1.0
  N  N37  1  0.02355000  0.05678000  0.15761000  1.0
  N  N38  1  0.72688000  0.44383000  0.23268000  1.0
  N  N39  1  0.78684000  0.50251000  0.24567000  1.0
  N  N40  1  0.91406000  0.48768000  0.25688000  1.0
  N  N41  1  0.60708000  0.35346000  0.58945000  1.0
  N  N42  1  0.79145000  0.30213000  0.53679000  1.0
  N  N43  1  0.89061000  0.43467000  0.59617000  1.0
  N  N44  1  0.87055000  0.42270000  0.63645000  1.0
  N  N45  1  0.97838000  0.44354000  0.65765000  1.0
  N  N46  1  0.27337000  0.05622000  0.73283000  1.0
  N  N47  1  0.21326000  0.99750000  0.74582000  1.0
  N  N48  1  0.08577000  0.01225000  0.75701000  1.0
  N  N49  1  0.89287000  0.85377000  0.41068000  1.0
  N  N50  1  0.70871000  0.80261000  0.46350000  1.0
  N  N51  1  0.60905000  0.93453000  0.40382000  1.0
  N  N52  1  0.62841000  0.92258000  0.36352000  1.0
  N  N53  1  0.52023000  0.94354000  0.34247000  1.0
  N  N54  1  0.22677000  0.55566000  0.26707000  1.0
  N  N55  1  0.28721000  0.49697000  0.25408000  1.0
  N  N56  1  0.41462000  0.51163000  0.24288000  1.0
  N  N57  1  0.10681000  0.64653000  0.91094000  1.0
  N  N58  1  0.29012000  0.69782000  0.96348000  1.0
  N  N59  1  0.39001000  0.56502000  0.90391000  1.0
  N  N60  1  0.37065000  0.57770000  0.86373000  1.0
  N  N61  1  0.47872000  0.55695000  0.84235000  1.0
  N  N62  1  0.77298000  0.94445000  0.76707000  1.0
  N  N63  1  0.71274000  0.00311000  0.75404000  1.0
  N  N64  1  0.58563000  0.98837000  0.74281000  1.0
  O  O1  1  0.99993000  0.84109000  0.76038000  1.0
  O  O2  1  0.17981000  0.82470000  0.80222000  1.0
  O  O3  1  0.38667000  0.08579000  0.96876000  1.0
  O  O4  1  0.23169000  0.03203000  0.00978000  1.0
  O  O5  1  0.00032000  0.65894000  0.26032000  1.0
  O  O6  1  0.81994000  0.67538000  0.30226000  1.0
  O  O7  1  0.61385000  0.41435000  0.47095000  1.0
  O  O8  1  0.77287000  0.46786000  0.51035000  1.0
  O  O9  1  0.49943000  0.16023000  0.73969000  1.0
  O  O10  1  0.68008000  0.17554000  0.69777000  1.0
  O  O11  1  0.88549000  0.91454000  0.52730000  1.0
  O  O12  1  0.72752000  0.97068000  0.48892000  1.0
  O  O13  1  0.50032000  0.33970000  0.23966000  1.0
  O  O14  1  0.32021000  0.32450000  0.19782000  1.0
  O  O15  1  0.11355000  0.58549000  0.02931000  1.0
  O  O16  1  0.27286000  0.53211000  0.98973000  1.0
  O  O17  1  0.00007000  0.15891000  0.23963000  1.0
  O  O18  1  0.82018000  0.17530000  0.19778000  1.0
  O  O19  1  0.61333000  0.91421000  0.03124000  1.0
  O  O20  1  0.76830000  0.96797000  0.99023000  1.0
  O  O21  1  0.99967000  0.34106000  0.73969000  1.0
  O  O22  1  0.18005000  0.32462000  0.69774000  1.0
  O  O23  1  0.38614000  0.58565000  0.52905000  1.0
  O  O24  1  0.22712000  0.53214000  0.48965000  1.0
  O  O25  1  0.50056000  0.83977000  0.26031000  1.0
  O  O26  1  0.31991000  0.82446000  0.30223000  1.0
  O  O27  1  0.11450000  0.08546000  0.47270000  1.0
  O  O28  1  0.27247000  0.02932000  0.51108000  1.0
  O  O29  1  0.49967000  0.66030000  0.76034000  1.0
  O  O30  1  0.67978000  0.67550000  0.80218000  1.0
  O  O31  1  0.88644000  0.41450000  0.97069000  1.0
  O  O32  1  0.72713000  0.46789000  0.01027000  1.0
