# generated using pymatgen
data_LaH18C24(NO3)2
_symmetry_space_group_name_H-M   'P 1'
_cell_length_a   8.38195000
_cell_length_b   17.96576000
_cell_length_c   19.55966000
_cell_angle_alpha   90.39158000
_cell_angle_beta   89.82321000
_cell_angle_gamma   89.93211000
_symmetry_Int_Tables_number   1
_chemical_formula_structural   LaH18C24(NO3)2
_chemical_formula_sum   'La4 H72 C96 N8 O24'
_cell_volume   2945.36712416
_cell_formula_units_Z   4
loop_
 _symmetry_equiv_pos_site_id
 _symmetry_equiv_pos_as_xyz
  1  'x, y, z'
loop_
 _atom_site_type_symbol
 _atom_site_label
 _atom_site_symmetry_multiplicity
 _atom_site_fract_x
 _atom_site_fract_y
 _atom_site_fract_z
 _atom_site_occupancy
  La  La0  1  0.95460000  0.74956000  0.74982000  1
  La  La1  1  0.54682000  0.25040000  0.24970000  1
  La  La2  1  0.04539000  0.25044000  0.25018000  1
  La  La3  1  0.45317000  0.74960000  0.75030000  1
  H  H4  1  0.10348000  0.95567000  0.69796000  1
  H  H5  1  0.39952000  0.89903000  0.53456000  1
  H  H6  1  0.75765000  0.92880000  0.49634000  1
  H  H7  1  0.17699000  0.02551000  0.59343000  1
  H  H8  1  0.02943000  0.73764000  0.56446000  1
  H  H9  1  0.31377000  0.91515000  0.41324000  1
  H  H10  1  0.70000000  0.86642000  0.60631000  1
  H  H11  1  0.08676000  0.84120000  0.36785000  1
  H  H12  1  0.94373000  0.75213000  0.44379000  1
  H  H13  1  0.10440000  0.54369000  0.80162000  1
  H  H14  1  0.39966000  0.60014000  0.96671000  1
  H  H15  1  0.75706000  0.57115000  0.00363000  1
  H  H16  1  0.17713000  0.47409000  0.90622000  1
  H  H17  1  0.02848000  0.76113000  0.93609000  1
  H  H18  1  0.31288000  0.58494000  0.08819000  1
  H  H19  1  0.69957000  0.63324000  0.89368000  1
  H  H20  1  0.08556000  0.65951000  0.13343000  1
  H  H21  1  0.94242000  0.74789000  0.05702000  1
  H  H22  1  0.40260000  0.04472000  0.19926000  1
  H  H23  1  0.10049000  0.09903000  0.03303000  1
  H  H24  1  0.74339000  0.07036000  0.99544000  1
  H  H25  1  0.32527000  0.97523000  0.09445000  1
  H  H26  1  0.46946000  0.26068000  0.06613000  1
  H  H27  1  0.18705000  0.08477000  0.91130000  1
  H  H28  1  0.80530000  0.13263000  0.10577000  1
  H  H29  1  0.41417000  0.15952000  0.86731000  1
  H  H30  1  0.55607000  0.24785000  0.94513000  1
  H  H31  1  0.40215000  0.45590000  0.30093000  1
  H  H32  1  0.10089000  0.40133000  0.46732000  1
  H  H33  1  0.74335000  0.42927000  0.50357000  1
  H  H34  1  0.32511000  0.52525000  0.40603000  1
  H  H35  1  0.46958000  0.23916000  0.43456000  1
  H  H36  1  0.18585000  0.41613000  0.58912000  1
  H  H37  1  0.80501000  0.36730000  0.39304000  1
  H  H38  1  0.41218000  0.34112000  0.63328000  1
  H  H39  1  0.55523000  0.25236000  0.55565000  1
  H  H40  1  0.89651000  0.04433000  0.30204000  1
  H  H41  1  0.60047000  0.10097000  0.46543000  1
  H  H42  1  0.24234000  0.07119000  0.50366000  1
  H  H43  1  0.82300000  0.97448000  0.40657000  1
  H  H44  1  0.97056000  0.26236000  0.43554000  1
  H  H45  1  0.68622000  0.08485000  0.58676000  1
  H  H46  1  0.30000000  0.13358000  0.39368000  1
  H  H47  1  0.91323000  0.15880000  0.63215000  1
  H  H48  1  0.05626000  0.24786000  0.55620000  1
  H  H49  1  0.89559000  0.45631000  0.19838000  1
  H  H50  1  0.60033000  0.39986000  0.03329000  1
  H  H51  1  0.24293000  0.42885000  0.99637000  1
  H  H52  1  0.82286000  0.52591000  0.09377000  1
  H  H53  1  0.97151000  0.23887000  0.06391000  1
  H  H54  1  0.68711000  0.41506000  0.91181000  1
  H  H55  1  0.30042000  0.36676000  0.10632000  1
  H  H56  1  0.91443000  0.34049000  0.86657000  1
  H  H57  1  0.05757000  0.25211000  0.94298000  1
  H  H58  1  0.59739000  0.95528000  0.80073000  1
  H  H59  1  0.89950000  0.90096000  0.96697000  1
  H  H60  1  0.25660000  0.92964000  0.00456000  1
  H  H61  1  0.67472000  0.02477000  0.90555000  1
  H  H62  1  0.53053000  0.73932000  0.93387000  1
  H  H63  1  0.81294000  0.91523000  0.08869000  1
  H  H64  1  0.19469000  0.86737000  0.89422000  1
  H  H65  1  0.58582000  0.84048000  0.13269000  1
  H  H66  1  0.44392000  0.75215000  0.05487000  1
  H  H67  1  0.59784000  0.54410000  0.69907000  1
  H  H68  1  0.89910000  0.59867000  0.53268000  1
  H  H69  1  0.25665000  0.57072000  0.49643000  1
  H  H70  1  0.67488000  0.47475000  0.59396000  1
  H  H71  1  0.53042000  0.76084000  0.56543000  1
  H  H72  1  0.81414000  0.58387000  0.41088000  1
  H  H73  1  0.19498000  0.63270000  0.60696000  1
  H  H74  1  0.58781000  0.65888000  0.36672000  1
  H  H75  1  0.44476000  0.74764000  0.44435000  1
  C  C76  1  0.21817000  0.81805000  0.55686000  1
  C  C77  1  0.03416000  0.95329000  0.65119000  1
  C  C78  1  0.30009000  0.86741000  0.51378000  1
  C  C79  1  0.97897000  0.98232000  0.53136000  1
  C  C80  1  0.84010000  0.93673000  0.53853000  1
  C  C81  1  0.07190000  0.99019000  0.59222000  1
  C  C82  1  0.09029000  0.77659000  0.53118000  1
  C  C83  1  0.25273000  0.87568000  0.44609000  1
  C  C84  1  0.80437000  0.90107000  0.59838000  1
  C  C85  1  0.12422000  0.83424000  0.42065000  1
  C  C86  1  0.04347000  0.78467000  0.46313000  1
  C  C87  1  0.27471000  0.80826000  0.62814000  1
  C  C88  1  0.21777000  0.68091000  0.94409000  1
  C  C89  1  0.03459000  0.54627000  0.84845000  1
  C  C90  1  0.29990000  0.63196000  0.98740000  1
  C  C91  1  0.97894000  0.51756000  0.96859000  1
  C  C92  1  0.83986000  0.56314000  0.96135000  1
  C  C93  1  0.07200000  0.50950000  0.90749000  1
  C  C94  1  0.08948000  0.72259000  0.96966000  1
  C  C95  1  0.25213000  0.62430000  0.05524000  1
  C  C96  1  0.80430000  0.59869000  0.90145000  1
  C  C97  1  0.12351000  0.66612000  0.08058000  1
  C  C98  1  0.04256000  0.71524000  0.03786000  1
  C  C99  1  0.27347000  0.69021000  0.87243000  1
  C  C100  1  0.28167000  0.17993000  0.05718000  1
  C  C101  1  0.47079000  0.04696000  0.15205000  1
  C  C102  1  0.20007000  0.13109000  0.01301000  1
  C  C103  1  0.52212000  0.01772000  0.03139000  1
  C  C104  1  0.66192000  0.06287000  0.03818000  1
  C  C105  1  0.43083000  0.01021000  0.09289000  1
  C  C106  1  0.40931000  0.22193000  0.03208000  1
  C  C107  1  0.24755000  0.12395000  0.94496000  1
  C  C108  1  0.69996000  0.09844000  0.09824000  1
  C  C109  1  0.37589000  0.16588000  0.92023000  1
  C  C110  1  0.45625000  0.21496000  0.96372000  1
  C  C111  1  0.22570000  0.18887000  0.12904000  1
  C  C112  1  0.28173000  0.32005000  0.44364000  1
  C  C113  1  0.47043000  0.45341000  0.34794000  1
  C  C114  1  0.19993000  0.36925000  0.48761000  1
  C  C115  1  0.52197000  0.48232000  0.46849000  1
  C  C116  1  0.66169000  0.43700000  0.46114000  1
  C  C117  1  0.43057000  0.49006000  0.40727000  1
  C  C118  1  0.40925000  0.27804000  0.46864000  1
  C  C119  1  0.24679000  0.37673000  0.55557000  1
  C  C120  1  0.69965000  0.40158000  0.40090000  1
  C  C121  1  0.37484000  0.33468000  0.58032000  1
  C  C122  1  0.45568000  0.28531000  0.53692000  1
  C  C123  1  0.22598000  0.31096000  0.37200000  1
  C  C124  1  0.78182000  0.18195000  0.44313000  1
  C  C125  1  0.96584000  0.04670000  0.34880000  1
  C  C126  1  0.69990000  0.13259000  0.48622000  1
  C  C127  1  0.02102000  0.01768000  0.46864000  1
  C  C128  1  0.15989000  0.06327000  0.46147000  1
  C  C129  1  0.92809000  0.00981000  0.40777000  1
  C  C130  1  0.90970000  0.22341000  0.46882000  1
  C  C131  1  0.74726000  0.12431000  0.55391000  1
  C  C132  1  0.19562000  0.09893000  0.40162000  1
  C  C133  1  0.87577000  0.16576000  0.57935000  1
  C  C134  1  0.95652000  0.21533000  0.53687000  1
  C  C135  1  0.72528000  0.19174000  0.37185000  1
  C  C136  1  0.78222000  0.31909000  0.05591000  1
  C  C137  1  0.96540000  0.45373000  0.15155000  1
  C  C138  1  0.70009000  0.36803000  0.01259000  1
  C  C139  1  0.02105000  0.48244000  0.03141000  1
  C  C140  1  0.16013000  0.43686000  0.03865000  1
  C  C141  1  0.92799000  0.49049000  0.09251000  1
  C  C142  1  0.91051000  0.27741000  0.03033000  1
  C  C143  1  0.74786000  0.37570000  0.94475000  1
  C  C144  1  0.19569000  0.40131000  0.09855000  1
  C  C145  1  0.87649000  0.33388000  0.91941000  1
  C  C146  1  0.95743000  0.28476000  0.96214000  1
  C  C147  1  0.72652000  0.30978000  0.12757000  1
  C  C148  1  0.71832000  0.82007000  0.94282000  1
  C  C149  1  0.52920000  0.95304000  0.84795000  1
  C  C150  1  0.79992000  0.86891000  0.98698000  1
  C  C151  1  0.47787000  0.98228000  0.96860000  1
  C  C152  1  0.33807000  0.93713000  0.96182000  1
  C  C153  1  0.56917000  0.98979000  0.90711000  1
  C  C154  1  0.59068000  0.77807000  0.96792000  1
  C  C155  1  0.75245000  0.87605000  0.05503000  1
  C  C156  1  0.30003000  0.90156000  0.90176000  1
  C  C157  1  0.62410000  0.83412000  0.07976000  1
  C  C158  1  0.54374000  0.78504000  0.03628000  1
  C  C159  1  0.77429000  0.81113000  0.87096000  1
  C  C160  1  0.71826000  0.67995000  0.55635000  1
  C  C161  1  0.52957000  0.54659000  0.65206000  1
  C  C162  1  0.80006000  0.63075000  0.51238000  1
  C  C163  1  0.47802000  0.51768000  0.53150000  1
  C  C164  1  0.33831000  0.56300000  0.53885000  1
  C  C165  1  0.56942000  0.50993000  0.59272000  1
  C  C166  1  0.59075000  0.72196000  0.53135000  1
  C  C167  1  0.75321000  0.62327000  0.44443000  1
  C  C168  1  0.30034000  0.59842000  0.59910000  1
  C  C169  1  0.62515000  0.66532000  0.41968000  1
  C  C170  1  0.54431000  0.71469000  0.46308000  1
  C  C171  1  0.77401000  0.68904000  0.62800000  1
  N  N172  1  0.90350000  0.90737000  0.65392000  1
  N  N173  1  0.90375000  0.59225000  0.84569000  1
  N  N174  1  0.60229000  0.09241000  0.15453000  1
  N  N175  1  0.60197000  0.40784000  0.34488000  1
  N  N176  1  0.09649000  0.09263000  0.34608000  1
  N  N177  1  0.09624000  0.40775000  0.15431000  1
  N  N178  1  0.39770000  0.90759000  0.84546000  1
  N  N179  1  0.39803000  0.59216000  0.65511000  1
  O  O180  1  0.87229000  0.86958000  0.71143000  1
  O  O181  1  0.18650000  0.77469000  0.67319000  1
  O  O182  1  0.41446000  0.82951000  0.64337000  1
  O  O183  1  0.87259000  0.62979000  0.78799000  1
  O  O184  1  0.18354000  0.72247000  0.82750000  1
  O  O185  1  0.41442000  0.67024000  0.85703000  1
  O  O186  1  0.63523000  0.12994000  0.21259000  1
  O  O187  1  0.31432000  0.22216000  0.17442000  1
  O  O188  1  0.08588000  0.16767000  0.14448000  1
  O  O189  1  0.63502000  0.37055000  0.28656000  1
  O  O190  1  0.31571000  0.27833000  0.32644000  1
  O  O191  1  0.08553000  0.33140000  0.35702000  1
  O  O192  1  0.12770000  0.13042000  0.28857000  1
  O  O193  1  0.81349000  0.22531000  0.32681000  1
  O  O194  1  0.58553000  0.17049000  0.35662000  1
  O  O195  1  0.12741000  0.37020000  0.21201000  1
  O  O196  1  0.81645000  0.27753000  0.17250000  1
  O  O197  1  0.58557000  0.32976000  0.14297000  1
  O  O198  1  0.36476000  0.87006000  0.78741000  1
  O  O199  1  0.68568000  0.77784000  0.82558000  1
  O  O200  1  0.91411000  0.83233000  0.85552000  1
  O  O201  1  0.36497000  0.62945000  0.71344000  1
  O  O202  1  0.68428000  0.72167000  0.67356000  1
  O  O203  1  0.91446000  0.66860000  0.64297000  1
