# generated using pymatgen
data_H9C16N4O
_symmetry_space_group_name_H-M   'P 1'
_cell_length_a   19.35990000
_cell_length_b   19.35990000
_cell_length_c   27.01310000
_cell_angle_alpha   89.31350000
_cell_angle_beta   89.31350000
_cell_angle_gamma   89.99180000
_symmetry_Int_Tables_number   1
_chemical_formula_structural   H9C16N4O
_chemical_formula_sum   'H72 C128 N32 O8'
_cell_volume   10123.21117608
_cell_formula_units_Z   8
loop_
 _symmetry_equiv_pos_site_id
 _symmetry_equiv_pos_as_xyz
  1  'x, y, z'
loop_
 _atom_site_type_symbol
 _atom_site_label
 _atom_site_symmetry_multiplicity
 _atom_site_fract_x
 _atom_site_fract_y
 _atom_site_fract_z
 _atom_site_occupancy
  C  1  1  0.85247300  0.19903400  0.98741300  1
  C  2  1  0.80506500  0.19326600  0.94803300  1
  C  3  1  0.82630150  0.18908300  0.89830200  1
  C  4  1  0.89722800  0.18463700  0.88709500  1
  C  5  1  0.94632400  0.18122100  0.92519300  1
  C  6  1  0.92385450  0.18903100  0.97525000  1
  C  9  1  0.82646650  0.21251700  0.03615100  1
  C  10  1  0.76997050  0.25857700  0.04449800  1
  C  11  1  0.74363700  0.27026400  0.09282300  1
  C  12  1  0.77732250  0.24129300  0.13393000  1
  C  13  1  0.83407100  0.19659500  0.12716300  1
  C  14  1  0.85521050  0.18006100  0.07860800  1
  C  25  1  0.79828800  0.43200300  0.47826700  1
  C  26  1  0.82856300  0.43127700  0.42994600  1
  C  27  1  0.79622850  0.46200400  0.38890900  1
  C  28  1  0.73187050  0.49381100  0.39466200  1
  C  29  1  0.69535300  0.48732000  0.43968400  1
  C  30  1  0.72839300  0.45675800  0.48122900  1
  C  33  1  0.83679050  0.41149200  0.52126000  1
  C  34  1  0.89510250  0.36580200  0.52135200  1
  C  35  1  0.93135300  0.35031100  0.56557400  1
  C  36  1  0.90565500  0.37416800  0.61115900  1
  C  37  1  0.85103750  0.42174700  0.61232200  1
  C  38  1  0.82119500  0.44297200  0.56746600  1
  C  49  1  0.43080350  0.84693300  0.23941400  1
  C  50  1  0.43241000  0.80090400  0.19884200  1
  C  51  1  0.43852600  0.82360500  0.14929700  1
  C  52  1  0.44817400  0.89441200  0.13936300  1
  C  53  1  0.45387700  0.94153200  0.17845800  1
  C  54  1  0.44499800  0.91788500  0.22821800  1
  C  57  1  0.41765150  0.82087000  0.28847600  1
  C  58  1  0.36932600  0.76648100  0.29828200  1
  C  59  1  0.35642000  0.74200900  0.34715900  1
  C  60  1  0.38743500  0.77500400  0.38728700  1
  C  61  1  0.43573700  0.82846000  0.37917500  1
  C  62  1  0.45267050  0.84784800  0.33003500  1
  C  73  1  0.20852400  0.79314800  0.72202500  1
  C  74  1  0.20464000  0.82536200  0.67425600  1
  C  75  1  0.17445800  0.79240400  0.63367700  1
  C  76  1  0.14799550  0.72568600  0.63972300  1
  C  77  1  0.15871850  0.68815900  0.68363100  1
  C  78  1  0.18796000  0.72183500  0.72484300  1
  C  81  1  0.22825000  0.83194300  0.76478100  1
  C  82  1  0.27110200  0.89226000  0.76300000  1
  C  83  1  0.28474100  0.93102500  0.80612600  1
  C  84  1  0.26195800  0.90645000  0.85269200  1
  C  85  1  0.21899600  0.84813800  0.85611300  1
  C  86  1  0.19973150  0.81477000  0.81227600  1
  C  97  1  0.12437150  0.12810300  0.89726900  1
  C  98  1  0.11472050  0.08298300  0.85678300  1
  C  99  1  0.17232200  0.05775700  0.82893300  1
  C  100  1  0.24085400  0.07500000  0.84211000  1
  C  101  1  0.24977000  0.11982500  0.88248200  1
  C  102  1  0.19297550  0.14559500  0.90946500  1
  C  104  1  0.09493850  0.99672100  0.77641000  1
  C  105  1  0.03841400  0.01981100  0.80461900  1
  C  111  1  0.07046150  0.15325100  0.92682600  1
  C  113  1  0.29983000  0.05327500  0.81618900  1
  C  115  1  0.51649350  0.54878000  0.43780700  1
  C  116  1  0.51911750  0.58436600  0.39136700  1
  C  117  1  0.45770600  0.60939800  0.36875200  1
  C  118  1  0.39277600  0.60263200  0.39316600  1
  C  119  1  0.39066150  0.56752600  0.43933200  1
  C  120  1  0.45097850  0.54105000  0.46101000  1
  C  122  1  0.52452250  0.64978700  0.29884800  1
  C  123  1  0.58527300  0.62763200  0.32178700  1
  C  129  1  0.57429200  0.52037200  0.46121700  1
  C  131  1  0.33059750  0.62636500  0.37344000  1
  C  133  1  0.51355450  0.12015000  0.16234800  1
  C  134  1  0.56194600  0.11474700  0.12248200  1
  C  135  1  0.60036100  0.17345800  0.10531500  1
  C  136  1  0.59321700  0.23839900  0.12866200  1
  C  137  1  0.54522700  0.24296700  0.16838300  1
  C  138  1  0.50645050  0.18554700  0.18470500  1
  C  140  1  0.65339650  0.10393400  0.04249000  1
  C  141  1  0.61722700  0.04583900  0.06014400  1
  C  147  1  0.47365400  0.06528000  0.18138300  1
  C  149  1  0.62584550  0.29952900  0.11295000  1
  C  151  1  0.10803500  0.50807900  0.66918400  1
  C  152  1  0.06914400  0.51817800  0.62526500  1
  C  153  1  0.05197100  0.46152700  0.59450200  1
  C  154  1  0.06970550  0.39298400  0.60836700  1
  C  155  1  0.10745050  0.38328500  0.65239700  1
  C  156  1  0.12644250  0.43947300  0.68193500  1
  C  158  1  0.99694700  0.53943300  0.53766500  1
  C  159  1  0.01126450  0.59487600  0.56879900  1
  C  165  1  0.13075600  0.56209000  0.69902500  1
  C  167  1  0.05219650  0.33490900  0.58076200  1
  C  169  1  0.79964600  0.24444700  0.78441900  1
  C  170  1  0.78606100  0.24725200  0.73288800  1
  C  171  1  0.79995550  0.30811300  0.70415700  1
  C  172  1  0.82840100  0.36785700  0.72630100  1
  C  173  1  0.84406100  0.36313200  0.77728800  1
  C  174  1  0.83124450  0.30285700  0.80543700  1
  C  176  1  0.74916300  0.25367500  0.63370300  1
  C  177  1  0.73824300  0.19308100  0.66152300  1
  C  183  1  0.77105750  0.19080500  0.81443400  1
  C  185  1  0.83303850  0.43411400  0.70339800  1
  C  187  1  0.86966450  0.38479400  0.27920800  1
  C  188  1  0.89162500  0.37779900  0.22926100  1
  C  189  1  0.89529700  0.31158500  0.20698100  1
  C  190  1  0.87651100  0.25102300  0.23411600  1
  C  191  1  0.86280150  0.25812000  0.28535100  1
  C  192  1  0.85850350  0.32352400  0.30730600  1
  C  194  1  0.94070800  0.36458800  0.13264500  1
  C  195  1  0.93496350  0.42990000  0.15413900  1
  C  201  1  0.85195900  0.45037900  0.29796700  1
  C  203  1  0.87580100  0.18397500  0.21372000  1
  C  205  1  0.38976350  0.80246000  0.03299800  1
  C  206  1  0.39115250  0.79069400  0.98115900  1
  C  207  1  0.33272000  0.80559000  0.95108400  1
  C  208  1  0.27080350  0.83217800  0.97229900  1
  C  209  1  0.27191050  0.84741200  0.02348600  1
  C  210  1  0.33008450  0.83431700  0.05290900  1
  C  212  1  0.39345750  0.75850600  0.88101900  1
  C  213  1  0.45151350  0.74613000  0.91026500  1
  C  219  1  0.43993850  0.77138400  0.06399600  1
  C  221  1  0.20585850  0.83448900  0.94833300  1
  C  223  1  0.25041600  0.87495600  0.53307100  1
  C  224  1  0.26131850  0.90114800  0.48420200  1
  C  225  1  0.32792850  0.89908400  0.46131700  1
  C  226  1  0.38557350  0.87196200  0.48706400  1
  C  227  1  0.37566350  0.85370200  0.53750600  1
  C  228  1  0.30931950  0.85305000  0.55950600  1
  C  230  1  0.28172200  0.95416400  0.38876000  1
  C  231  1  0.21573850  0.95411400  0.41060500  1
  C  237  1  0.18216600  0.86424400  0.55111600  1
  C  239  1  0.45254850  0.86655400  0.46572700  1
  H  7  1  0.75310250  0.19222000  0.95535300  1
  H  8  1  0.91231550  0.17631600  0.85115500  1
  H  15  1  0.75881550  0.25095600  0.16880000  1
  H  16  1  0.89293550  0.14364700  0.07464400  1
  H  19  1  0.98680200  0.14846100  0.01985100  1
  H  20  1  0.69698550  0.28440200  0.00094900  1
  H  31  1  0.87828850  0.41618700  0.42426000  1
  H  32  1  0.70799350  0.51401700  0.36400800  1
  H  39  1  0.93125600  0.36246500  0.64310700  1
  H  40  1  0.78683250  0.48280900  0.56941000  1
  H  43  1  0.67679100  0.48538400  0.53781700  1
  H  44  1  0.95912300  0.34736300  0.46905200  1
  H  55  1  0.43083650  0.74874900  0.20520600  1
  H  56  1  0.45897000  0.91034200  0.10379400  1
  H  63  1  0.37793900  0.75688200  0.42244500  1
  H  64  1  0.49150450  0.88298200  0.32498300  1
  H  67  1  0.49119150  0.98045200  0.27001600  1
  H  68  1  0.34216350  0.69328800  0.25598100  1
  H  79  1  0.21404050  0.87673300  0.66949500  1
  H  80  1  0.12701750  0.70172900  0.60970800  1
  H  87  1  0.27224350  0.93416900  0.88378100  1
  H  88  1  0.16299100  0.77719500  0.81580400  1
  H  91  1  0.16171900  0.66523100  0.78015000  1
  H  92  1  0.28923400  0.95511600  0.70938500  1
  H  107  1  0.08827350  0.96520400  0.74680200  1
  H  108  1  0.98909300  0.00599000  0.79612900  1
  H  109  1  0.20256300  0.17763700  0.93851100  1
  H  110  1  0.29833450  0.13419200  0.89298900  1
  H  112  1  0.07944750  0.16186200  0.96226600  1
  H  114  1  0.33489200  0.08919100  0.80797400  1
  H  125  1  0.52577900  0.67352600  0.26489300  1
  H  126  1  0.63242850  0.63421300  0.30505800  1
  H  127  1  0.44621800  0.51561400  0.49435800  1
  H  128  1  0.34466200  0.56066600  0.45791100  1
  H  130  1  0.57135350  0.50658300  0.49666500  1
  H  132  1  0.29073250  0.59410000  0.37483600  1
  H  143  1  0.68681300  0.10065600  0.01309700  1
  H  144  1  0.62300100  0.99879200  0.04391200  1
  H  145  1  0.47252150  0.19242900  0.21363800  1
  H  146  1  0.53742100  0.28895900  0.18601600  1
  H  148  1  0.44034950  0.07403900  0.20890500  1
  H  150  1  0.59716900  0.34209300  0.11324300  1
  H  161  1  0.97068300  0.54659600  0.50545000  1
  H  162  1  0.99637400  0.64402800  0.55989100  1
  H  163  1  0.15461650  0.42949300  0.71307600  1
  H  164  1  0.12177700  0.33464100  0.66356000  1
  H  166  1  0.14221900  0.55355100  0.73430200  1
  H  168  1  0.08947450  0.30088000  0.57423100  1
  H  179  1  0.73507300  0.25722700  0.59745300  1
  H  180  1  0.71567950  0.15075300  0.64635800  1
  H  181  1  0.83879900  0.30558700  0.84268800  1
  H  182  1  0.86301300  0.40517700  0.79540700  1
  H  184  1  0.73007000  0.16479900  0.80011300  1
  H  186  1  0.82914900  0.47567800  0.72631200  1
  H  197  1  0.95913850  0.35892800  0.09734900  1
  H  198  1  0.94925050  0.47357200  0.13508300  1
  H  199  1  0.84282500  0.32562800  0.34354400  1
  H  200  1  0.85057050  0.21569500  0.30673200  1
  H  202  1  0.84508200  0.49027900  0.27340500  1
  H  204  1  0.88702300  0.14340700  0.23686100  1
  H  215  1  0.39315650  0.74615400  0.84437600  1
  H  216  1  0.49512150  0.72419000  0.89576200  1
  H  217  1  0.32477550  0.84125600  0.09018300  1
  H  218  1  0.22834550  0.86555600  0.04089900  1
  H  220  1  0.46556650  0.72989800  0.04962400  1
  H  222  1  0.16340250  0.82897600  0.97098500  1
  H  233  1  0.29007400  0.97385200  0.35396200  1
  H  234  1  0.17416400  0.97388700  0.39234400  1
  H  235  1  0.30460500  0.83406100  0.59479400  1
  H  236  1  0.41601500  0.83475200  0.55775100  1
  H  238  1  0.14334850  0.87025800  0.52615500  1
  H  240  1  0.49374150  0.87297500  0.48857100  1
  N  21  1  0.86815900  0.16700900  0.16554500  1
  N  22  1  0.68864300  0.31019900  0.09860500  1
  N  23  1  0.00938350  0.16291700  0.90996500  1
  N  24  1  0.77674650  0.18195700  0.86390600  1
  N  45  1  0.82949200  0.45155200  0.65482600  1
  N  46  1  0.99249550  0.31883400  0.56341200  1
  N  47  1  0.63099700  0.51022800  0.43740300  1
  N  48  1  0.82245900  0.45857900  0.34273900  1
  N  69  1  0.46878650  0.85949200  0.41701000  1
  N  70  1  0.31745900  0.68625000  0.35440300  1
  N  71  1  0.48001950  0.00297200  0.16617900  1
  N  72  1  0.44522200  0.77528800  0.11378400  1
  N  93  1  0.19054950  0.82728900  0.89982800  1
  N  94  1  0.31602150  0.99196300  0.80192400  1
  N  95  1  0.14028350  0.62260200  0.68049500  1
  N  96  1  0.16479250  0.82088100  0.58852200  1
  N  103  1  0.15914850  0.01655300  0.78965800  1
  N  106  1  0.05055550  0.06198700  0.84320600  1
  N  121  1  0.46372200  0.63974700  0.32317300  1
  N  124  1  0.57983650  0.59564900  0.36650800  1
  N  139  1  0.64325350  0.16484500  0.06560800  1
  N  142  1  0.57290550  0.05388600  0.09878800  1
  N  157  1  0.01765500  0.47543500  0.55179400  1
  N  160  1  0.04691350  0.58197500  0.61074100  1
  N  175  1  0.77861000  0.30806200  0.65635500  1
  N  178  1  0.75614950  0.19275600  0.70981800  1
  N  193  1  0.92099450  0.30869800  0.15990700  1
  N  196  1  0.91115350  0.43380600  0.20138300  1
  N  211  1  0.33701350  0.78677400  0.90279700  1
  N  214  1  0.44763200  0.76180600  0.95893300  1
  N  229  1  0.33455750  0.92709800  0.41500300  1
  N  232  1  0.20847300  0.92810600  0.45714100  1
  O  17  1  0.97257450  0.19566000  0.01071300  1
  O  18  1  0.74491500  0.29886000  0.00682800  1
  O  41  1  0.68831100  0.44145800  0.52175600  1
  O  42  1  0.91400450  0.32937700  0.48046600  1
  O  65  1  0.44317750  0.96580300  0.26473000  1
  O  66  1  0.32839250  0.74152400  0.26170400  1
  O  89  1  0.20506200  0.68171400  0.76470300  1
  O  90  1  0.30715300  0.91024600  0.72104400  1
