# generated using pymatgen
data_H20C41(NO)8
_symmetry_space_group_name_H-M   'P 1'
_cell_length_a   25.92050000
_cell_length_b   35.22630000
_cell_length_c   35.22630000
_cell_angle_alpha   90.00000000
_cell_angle_beta   90.00000000
_cell_angle_gamma   90.00000000
_symmetry_Int_Tables_number   1
_chemical_formula_structural   H20C41(NO)8
_chemical_formula_sum   'H80 C164 N32 O32'
_cell_volume   32164.54657311
_cell_formula_units_Z   4
loop_
 _symmetry_equiv_pos_site_id
 _symmetry_equiv_pos_as_xyz
  1  'x, y, z'
loop_
 _atom_site_type_symbol
 _atom_site_label
 _atom_site_symmetry_multiplicity
 _atom_site_fract_x
 _atom_site_fract_y
 _atom_site_fract_z
 _atom_site_occupancy
  H  25  1  0.03868800  0.13861500  0.26106200  1
  H  26  1  0.09735500  0.11978700  0.30963500  1
  H  27  1  0.14335100  0.09578600  0.36312100  1
  H  28  1  0.18352500  0.06213900  0.41372500  1
  H  29  1  0.07071200  0.97562300  0.40581000  1
  H  30  1  0.94465400  0.04323800  0.28436100  1
  H  31  1  0.95441100  0.04943100  0.40453300  1
  H  32  1  0.84279300  0.96183200  0.40896700  1
  H  33  1  0.88627600  0.92867200  0.35945000  1
  H  34  1  0.08835200  0.98336700  0.28704400  1
  H  35  1  0.93887500  0.90281600  0.31029900  1
  H  36  1  0.00220300  0.88379100  0.26491500  1
  H  66  1  0.53870900  0.88696700  0.76455000  1
  H  67  1  0.59736900  0.90579400  0.71597300  1
  H  68  1  0.64335600  0.92977900  0.66247600  1
  H  69  1  0.68352500  0.96342200  0.61186600  1
  H  70  1  0.57067600  0.04991500  0.61974700  1
  H  71  1  0.44459000  0.98228000  0.74116700  1
  H  72  1  0.45437400  0.97616200  0.62099300  1
  H  73  1  0.34282100  0.06381600  0.61657900  1
  H  74  1  0.38627000  0.09690400  0.66616400  1
  H  75  1  0.58832600  0.04212700  0.73852200  1
  H  76  1  0.43889200  0.12272400  0.71532300  1
  H  77  1  0.50221700  0.14169300  0.76072900  1
  H  107  1  0.28862100  0.76443100  0.13864400  1
  H  108  1  0.34725300  0.71584300  0.11981000  1
  H  109  1  0.39326800  0.66237400  0.09575800  1
  H  110  1  0.43346000  0.61182400  0.06204800  1
  H  111  1  0.32064800  0.61981200  0.97554900  1
  H  112  1  0.19455300  0.74116500  0.04327400  1
  H  113  1  0.20429800  0.62103000  0.04936700  1
  H  114  1  0.09284500  0.61654700  0.96164700  1
  H  115  1  0.13631300  0.66612100  0.92855800  1
  H  116  1  0.33828900  0.73854400  0.98341200  1
  H  117  1  0.18895300  0.71526900  0.90273700  1
  H  118  1  0.25228000  0.76067800  0.88378200  1
  H  148  1  0.78870000  0.26108500  0.88688800  1
  H  149  1  0.84736000  0.30965200  0.90574000  1
  H  150  1  0.89338200  0.36310900  0.92979600  1
  H  151  1  0.93353900  0.41369900  0.96347600  1
  H  152  1  0.82067100  0.40576500  0.04994000  1
  H  153  1  0.69463200  0.28435800  0.98225700  1
  H  154  1  0.70437300  0.40452700  0.97616200  1
  H  155  1  0.59289000  0.40896700  0.06386400  1
  H  156  1  0.63636100  0.35939900  0.09694800  1
  H  157  1  0.83835200  0.28699800  0.04211500  1
  H  158  1  0.68896800  0.31023400  0.12275100  1
  H  159  1  0.75229300  0.26483400  0.14171700  1
  H  170  1  0.90807300  0.11060100  0.17369600  1
  H  172  1  0.86192800  0.24346400  0.18153900  1
  H  180  1  0.79515100  0.20060600  0.11510700  1
  H  182  1  0.94617400  0.15891600  0.26126800  1
  H  188  1  0.40845300  0.91486700  0.85199100  1
  H  190  1  0.36143200  0.78217900  0.84388000  1
  H  198  1  0.29509000  0.82492300  0.91039000  1
  H  200  1  0.44638400  0.86655400  0.76440000  1
  H  206  1  0.15846100  0.85197100  0.11073300  1
  H  208  1  0.11136700  0.84384300  0.24339500  1
  H  216  1  0.04506700  0.91050100  0.20072700  1
  H  218  1  0.19636200  0.76437400  0.15904700  1
  H  224  1  0.65839400  0.17360300  0.91484400  1
  H  226  1  0.61158900  0.18162000  0.78211100  1
  H  234  1  0.54514000  0.11509700  0.82494000  1
  H  236  1  0.69635200  0.26118600  0.86651700  1
  H  242  1  0.67604400  0.00710500  0.51017200  1
  H  244  1  0.84384200  0.06728000  0.50548600  1
  H  252  1  0.79976500  0.03143100  0.41549300  1
  H  254  1  0.72803800  0.02574900  0.59887900  1
  H  260  1  0.17590100  0.01830600  0.51541300  1
  H  262  1  0.34391400  0.95844200  0.52004300  1
  H  270  1  0.29979400  0.99426500  0.61005800  1
  H  272  1  0.22805500  0.99975000  0.42663600  1
  H  278  1  0.92590800  0.51538200  0.00722100  1
  H  280  1  0.09390400  0.52009100  0.06707200  1
  H  288  1  0.04980700  0.61012600  0.03117300  1
  H  290  1  0.97811400  0.42670100  0.02578100  1
  H  296  1  0.42584500  0.51020400  0.01825100  1
  H  298  1  0.59393200  0.50550600  0.95853900  1
  H  306  1  0.54981200  0.41548200  0.99447200  1
  H  308  1  0.47807300  0.59887000  0.99973800  1
  C  1  1  0.01892000  0.97811200  0.31864200  1
  C  2  1  0.97645900  0.95440600  0.32489100  1
  C  3  1  0.94528700  0.96998200  0.35267100  1
  C  4  1  0.96595000  0.00462100  0.36506500  1
  C  5  1  0.93965000  0.02444600  0.39459700  1
  C  6  1  0.89310800  0.00959700  0.41044900  1
  C  7  1  0.87488300  0.97405900  0.39719400  1
  C  8  1  0.90023000  0.95432300  0.36824200  1
  C  9  1  0.96966900  0.92014700  0.30512400  1
  C  10  1  0.00672100  0.90938500  0.27829300  1
  C  11  1  0.05016100  0.93252100  0.27053200  1
  C  12  1  0.05658400  0.96678000  0.29148700  1
  C  13  1  0.01167800  0.04800100  0.31870500  1
  C  14  1  0.05466500  0.07093200  0.32589600  1
  C  15  1  0.08393600  0.05512400  0.35461600  1
  C  16  1  0.06184900  0.02080100  0.36645300  1
  C  17  1  0.12853500  0.07022400  0.37139600  1
  C  18  1  0.15205400  0.05012300  0.40092200  1
  C  19  1  0.13263400  0.01464300  0.41345800  1
  C  20  1  0.08647500  0.00048800  0.39640800  1
  C  21  1  0.97632000  0.05957500  0.28998200  1
  C  22  1  0.98448400  0.09391800  0.26941300  1
  C  23  1  0.03037900  0.11471800  0.27642300  1
  C  24  1  0.06500400  0.10392700  0.30490300  1
  C  37  1  0.01444200  0.01296300  0.34298500  1
  C  42  1  0.51889400  0.04741200  0.70694000  1
  C  43  1  0.47644200  0.07113200  0.70070300  1
  C  44  1  0.44528500  0.05558900  0.67289700  1
  C  45  1  0.46593200  0.02095000  0.66048600  1
  C  46  1  0.43963700  0.00115200  0.63093400  1
  C  47  1  0.39317900  0.01608200  0.61501700  1
  C  48  1  0.37490700  0.05158000  0.62834000  1
  C  49  1  0.40025100  0.07127900  0.65731800  1
  C  50  1  0.46967900  0.10538400  0.72048400  1
  C  51  1  0.50672300  0.11610500  0.74733900  1
  C  52  1  0.55013600  0.09294300  0.75512000  1
  C  53  1  0.55656000  0.05872300  0.73410200  1
  C  54  1  0.51163400  0.97753300  0.70684400  1
  C  55  1  0.55465000  0.95462400  0.69968700  1
  C  56  1  0.58392000  0.97042800  0.67096100  1
  C  57  1  0.56183000  0.00474900  0.65911800  1
  C  58  1  0.62851800  0.95532800  0.65418400  1
  C  59  1  0.65204800  0.97543300  0.62466100  1
  C  60  1  0.63261900  0.01090900  0.61211600  1
  C  61  1  0.58644700  0.02505800  0.62915700  1
  C  62  1  0.47627600  0.96595900  0.73556900  1
  C  63  1  0.48447800  0.93164100  0.75617300  1
  C  64  1  0.53038700  0.91085300  0.74917600  1
  C  65  1  0.56501600  0.92164900  0.72070300  1
  C  78  1  0.51440800  0.01257800  0.68257500  1
  C  83  1  0.26886900  0.70694900  0.97810400  1
  C  84  1  0.22643300  0.70070300  0.95437200  1
  C  85  1  0.19527900  0.67288900  0.96990800  1
  C  86  1  0.21589300  0.66050300  0.00456700  1
  C  87  1  0.18958900  0.63095100  0.02436100  1
  C  88  1  0.14315100  0.61502000  0.00941300  1
  C  89  1  0.12492100  0.62831700  0.97389400  1
  C  90  1  0.15027100  0.65729300  0.95419600  1
  C  91  1  0.21971600  0.72045000  0.92009600  1
  C  92  1  0.25676100  0.74730500  0.90938200  1
  C  93  1  0.30014200  0.75511100  0.93257000  1
  C  94  1  0.30653900  0.73410700  0.96680000  1
  C  95  1  0.26163800  0.70687500  0.04797500  1
  C  96  1  0.30459100  0.69964200  0.07092400  1
  C  97  1  0.33385200  0.67091900  0.05510400  1
  C  98  1  0.31178000  0.65912100  0.02076400  1
  C  99  1  0.37844400  0.65412200  0.07019100  1
  C  100  1  0.40198700  0.62463200  0.05004600  1
  C  101  1  0.38260900  0.61215300  0.01453000  1
  C  102  1  0.33641200  0.62919100  0.00042200  1
  C  103  1  0.22622500  0.73554400  0.05960300  1
  C  104  1  0.23441400  0.75611600  0.09394100  1
  C  105  1  0.28030400  0.74908500  0.11474100  1
  C  106  1  0.31493200  0.72061500  0.10393000  1
  C  119  1  0.26437000  0.68258900  0.01294100  1
  C  124  1  0.76892100  0.31858300  0.04740700  1
  C  125  1  0.72647100  0.32481400  0.07112800  1
  C  126  1  0.69531900  0.35263100  0.05559500  1
  C  127  1  0.71593900  0.36502800  0.02094300  1
  C  128  1  0.68964700  0.39458800  0.00115800  1
  C  129  1  0.64315900  0.41046900  0.01607100  1
  C  130  1  0.62495700  0.39719700  0.05161000  1
  C  131  1  0.65031200  0.36822500  0.07130800  1
  C  132  1  0.71972800  0.30505000  0.10539200  1
  C  133  1  0.75678300  0.27820900  0.11611900  1
  C  134  1  0.80018200  0.27041500  0.09294300  1
  C  135  1  0.80659000  0.29142400  0.05871600  1
  C  136  1  0.76167500  0.31868500  0.97752800  1
  C  137  1  0.80469900  0.32585300  0.95463000  1
  C  138  1  0.83393900  0.35459600  0.97043100  1
  C  139  1  0.81184000  0.36641900  0.00475400  1
  C  140  1  0.87854000  0.37138700  0.95534800  1
  C  141  1  0.90205800  0.40089600  0.97547800  1
  C  142  1  0.88265700  0.41340100  0.01097700  1
  C  143  1  0.83645800  0.39636600  0.02508400  1
  C  144  1  0.72630200  0.28997900  0.96592500  1
  C  145  1  0.73449200  0.26940500  0.93159000  1
  C  146  1  0.78038600  0.27643300  0.91079300  1
  C  147  1  0.81502700  0.30489100  0.92161200  1
  C  160  1  0.76443000  0.34295100  0.01257500  1
  C  165  1  0.86191300  0.19557600  0.14529100  1
  C  166  1  0.87451300  0.15636900  0.14395700  1
  C  167  1  0.89877900  0.13877500  0.17561400  1
  C  168  1  0.90950000  0.15875900  0.20963300  1
  C  169  1  0.89625600  0.19804700  0.21087900  1
  C  171  1  0.87282300  0.21559600  0.17911100  1
  C  179  1  0.82959800  0.21266900  0.11856200  1
  C  181  1  0.93566500  0.14173000  0.24020800  1
  C  183  1  0.36190000  0.82997600  0.88026500  1
  C  184  1  0.37469400  0.86914000  0.88167300  1
  C  185  1  0.39895500  0.88673500  0.85001500  1
  C  186  1  0.40946800  0.86679500  0.81593200  1
  C  187  1  0.39594500  0.82756000  0.81459800  1
  C  189  1  0.37250800  0.81000500  0.84636100  1
  C  197  1  0.32954700  0.81286700  0.90695800  1
  C  199  1  0.43571300  0.88378800  0.78537300  1
  C  201  1  0.11195300  0.88028500  0.19563600  1
  C  202  1  0.12472100  0.88165600  0.15646600  1
  C  203  1  0.14896300  0.84999200  0.13886600  1
  C  204  1  0.15941200  0.81589300  0.15878900  1
  C  205  1  0.14588100  0.81456700  0.19802200  1
  C  207  1  0.12250000  0.84635000  0.21558300  1
  C  215  1  0.07952200  0.90692700  0.21272500  1
  C  217  1  0.18567400  0.78533600  0.14180600  1
  C  219  1  0.61189400  0.14529600  0.82995000  1
  C  220  1  0.62467200  0.14390000  0.86912000  1
  C  221  1  0.64895400  0.17555700  0.88670100  1
  C  222  1  0.65948600  0.20963000  0.86675200  1
  C  223  1  0.64606000  0.21092300  0.82749500  1
  C  225  1  0.62265000  0.17914900  0.80994300  1
  C  233  1  0.57957600  0.11856000  0.81286400  1
  C  235  1  0.68572800  0.24019500  0.88374300  1
  C  237  1  0.78894300  0.03723000  0.47296500  1
  C  238  1  0.73929900  0.01993900  0.47501700  1
  C  239  1  0.71038000  0.02147400  0.50916500  1
  C  240  1  0.72935300  0.03922700  0.54236400  1
  C  241  1  0.77924800  0.05606700  0.54042500  1
  C  243  1  0.80780100  0.05538500  0.50595100  1
  C  251  1  0.81889600  0.03382300  0.43991800  1
  C  253  1  0.70490600  0.03230400  0.57725900  1
  C  255  1  0.28893000  0.98838000  0.55259000  1
  C  256  1  0.23921800  0.00557200  0.55056300  1
  C  257  1  0.21032500  0.00405300  0.51640400  1
  C  258  1  0.22938000  0.98639600  0.48318700  1
  C  259  1  0.27929900  0.96958700  0.48510600  1
  C  261  1  0.30784300  0.97028600  0.51958600  1
  C  269  1  0.31890400  0.99182700  0.58562700  1
  C  271  1  0.20493400  0.99319200  0.44825300  1
  C  273  1  0.03890400  0.55261200  0.03712200  1
  C  274  1  0.98920600  0.55055400  0.01992500  1
  C  275  1  0.96032900  0.51638700  0.02147800  1
  C  276  1  0.97932900  0.48318400  0.03920300  1
  C  277  1  0.02928300  0.48514600  0.05596900  1
  C  279  1  0.05781900  0.51962800  0.05525200  1
  C  287  1  0.06882200  0.58566700  0.03366100  1
  C  289  1  0.95490100  0.44825000  0.03241000  1
  C  291  1  0.53887900  0.47297900  0.98843100  1
  C  292  1  0.48915000  0.47503400  0.00558300  1
  C  293  1  0.46023400  0.50917900  0.00395700  1
  C  294  1  0.47929300  0.54239300  0.98628800  1
  C  295  1  0.52927200  0.54043400  0.96956200  1
  C  297  1  0.55781700  0.50595700  0.97030900  1
  C  305  1  0.56882000  0.43995500  0.99200500  1
  C  307  1  0.45486800  0.57732700  0.99308700  1
  N  38  1  0.15589300  0.99912800  0.44394100  1
  N  39  1  0.08591900  0.91748200  0.24758800  1
  N  40  1  0.86709000  0.02412500  0.44016200  1
  N  41  1  0.95250900  0.10713700  0.24225600  1
  N  79  1  0.65586300  0.02642800  0.58162800  1
  N  80  1  0.58594200  0.10799000  0.77801200  1
  N  81  1  0.36710400  0.00150700  0.58535500  1
  N  82  1  0.45243700  0.91841000  0.78328900  1
  N  120  1  0.40582900  0.58167000  0.99899200  1
  N  121  1  0.33594500  0.77802300  0.91754700  1
  N  122  1  0.11703800  0.58537800  0.02400100  1
  N  123  1  0.20237600  0.78323200  0.10717900  1
  N  161  1  0.90586600  0.44389800  0.02649900  1
  N  162  1  0.83598300  0.24751700  0.10798400  1
  N  163  1  0.61708700  0.44016200  0.00153500  1
  N  164  1  0.70247500  0.24227600  0.91835900  1
  N  173  1  0.90555400  0.21988400  0.24407600  1
  N  174  1  0.86246800  0.13545700  0.11078800  1
  N  191  1  0.40498100  0.80578400  0.78131900  1
  N  192  1  0.36285600  0.88999600  0.91491500  1
  N  209  1  0.15483700  0.78126800  0.21978400  1
  N  210  1  0.11289200  0.91489800  0.13560700  1
  N  227  1  0.65516900  0.24417400  0.80569600  1
  N  228  1  0.61278500  0.11068200  0.88999900  1
  N  245  1  0.80079100  0.07237800  0.57360800  1
  N  246  1  0.72003600  0.99903100  0.44360600  1
  N  263  1  0.30089700  0.95330700  0.45192300  1
  N  264  1  0.21985700  0.02637100  0.58201400  1
  N  281  1  0.05089800  0.45198000  0.07227100  1
  N  282  1  0.96983500  0.58197400  0.99908500  1
  N  299  1  0.55091200  0.57360800  0.95329000  1
  N  300  1  0.46977900  0.44363100  0.02645400  1
  O  175  1  0.93590800  0.24700100  0.23780400  1
  O  176  1  0.90239000  0.12191600  0.09574700  1
  O  177  1  0.83180900  0.10875600  0.11788900  1
  O  178  1  0.86453200  0.23270200  0.25815500  1
  O  193  1  0.43518100  0.77854300  0.78745700  1
  O  194  1  0.40289400  0.90339300  0.92992100  1
  O  195  1  0.33231000  0.91680000  0.90792900  1
  O  196  1  0.36382400  0.79315100  0.76728700  1
  O  211  1  0.18503600  0.78736000  0.24703700  1
  O  212  1  0.15292700  0.92989300  0.12219600  1
  O  213  1  0.08232600  0.90791800  0.10881400  1
  O  214  1  0.11364800  0.76727300  0.23239900  1
  O  229  1  0.68542700  0.23799800  0.77849700  1
  O  230  1  0.65279600  0.09566100  0.90342100  1
  O  231  1  0.58223000  0.11770700  0.91678900  1
  O  232  1  0.61405500  0.25821000  0.79300100  1
  O  247  1  0.81091000  0.10694600  0.56898100  1
  O  248  1  0.71462800  0.96442700  0.45142400  1
  O  249  1  0.67763800  0.01191400  0.43206300  1
  O  250  1  0.84128000  0.05541900  0.58353800  1
  O  265  1  0.31107500  0.91874800  0.45654200  1
  O  266  1  0.21431200  0.06098000  0.57426700  1
  O  267  1  0.17750500  0.01337300  0.59351900  1
  O  268  1  0.34135600  0.97031100  0.44201000  1
  O  283  1  0.06109400  0.45662400  0.10682400  1
  O  284  1  0.96430300  0.57418100  0.96448300  1
  O  285  1  0.92747500  0.59348200  0.01206100  1
  O  286  1  0.09134900  0.44205600  0.05526200  1
  O  301  1  0.56116600  0.56897200  0.91874500  1
  O  302  1  0.46420800  0.45146600  0.06104200  1
  O  303  1  0.42744200  0.43208300  0.01346800  1
  O  304  1  0.59133500  0.58353000  0.97034000  1
