# generated using pymatgen
data_Eu2H9C24(NO6)3
_symmetry_space_group_name_H-M   'P 1'
_cell_length_a   13.84745000
_cell_length_b   13.86008000
_cell_length_c   16.58807000
_cell_angle_alpha   66.94173000
_cell_angle_beta   66.90690000
_cell_angle_gamma   72.07699000
_symmetry_Int_Tables_number   1
_chemical_formula_structural   Eu2H9C24(NO6)3
_chemical_formula_sum   'Eu4 H18 C48 N6 O36'
_cell_volume   2649.55938566
_cell_formula_units_Z   2
loop_
 _symmetry_equiv_pos_site_id
 _symmetry_equiv_pos_as_xyz
  1  'x, y, z'
loop_
 _atom_site_type_symbol
 _atom_site_label
 _atom_site_symmetry_multiplicity
 _atom_site_fract_x
 _atom_site_fract_y
 _atom_site_fract_z
 _atom_site_occupancy
  Eu  Eu1  1  0.44128000  0.15290000  0.50197000  1.0
  Eu  Eu2  1  0.84667000  0.55888000  0.99806000  1.0
  Eu  Eu3  1  0.55871000  0.84711000  0.49803000  1.0
  Eu  Eu4  1  0.15333000  0.44113000  0.00194000  1.0
  H  H1  1  0.65640000  0.76455000  0.76378000  1.0
  H  H2  1  0.63978000  0.91349000  0.95561000  1.0
  H  H3  1  0.54758000  0.10406000  0.71239000  1.0
  H  H4  1  0.86768000  0.92133000  0.35491000  1.0
  H  H5  1  0.23571000  0.34235000  0.73715000  1.0
  H  H6  1  0.08792000  0.35915000  0.54472000  1.0
  H  H7  1  0.89621000  0.45331000  0.78712000  1.0
  H  H8  1  0.07972000  0.13237000  0.14505000  1.0
  H  H9  1  0.34360000  0.23545000  0.23622000  1.0
  H  H10  1  0.36022000  0.08651000  0.04439000  1.0
  H  H11  1  0.45242000  0.89594000  0.28761000  1.0
  H  H12  1  0.13232000  0.07867000  0.64510000  1.0
  H  H13  1  0.76429000  0.65765000  0.26285000  1.0
  H  H14  1  0.91208000  0.64085000  0.45528000  1.0
  H  H15  1  0.10379000  0.54669000  0.21288000  1.0
  H  H16  1  0.92028000  0.86763000  0.85495000  1.0
  H  H17  1  0.74450000  0.25622000  0.24966000  1.0
  H  H18  1  0.25549000  0.74379000  0.75035000  1.0
  C  C1  1  0.58026000  0.94184000  0.64425000  1.0
  C  C2  1  0.69760000  0.72392000  0.92270000  1.0
  C  C3  1  0.59936000  0.93468000  0.72934000  1.0
  C  C4  1  0.63802000  0.83533000  0.78448000  1.0
  C  C5  1  0.65268000  0.82781000  0.86579000  1.0
  C  C6  1  0.62886000  0.91871000  0.89260000  1.0
  C  C7  1  0.59190000  0.01659000  0.83609000  1.0
  C  C8  1  0.57684000  0.02641000  0.75481000  1.0
  C  C9  1  0.68434000  0.07160000  0.37440000  1.0
  C  C10  1  0.87960000  0.00107000  0.30940000  1.0
  C  C11  1  0.79416000  0.08755000  0.30999000  1.0
  C  C12  1  0.05822000  0.41994000  0.85588000  1.0
  C  C13  1  0.27709000  0.30146000  0.57849000  1.0
  C  C14  1  0.06553000  0.40058000  0.77090000  1.0
  C  C15  1  0.16496000  0.36117000  0.71628000  1.0
  C  C16  1  0.17284000  0.34633000  0.63502000  1.0
  C  C17  1  0.08218000  0.37036000  0.60775000  1.0
  C  C18  1  0.98412000  0.40787000  0.66390000  1.0
  C  C19  1  0.97397000  0.42343000  0.74506000  1.0
  C  C20  1  0.93005000  0.31517000  0.12526000  1.0
  C  C21  1  0.99982000  0.12037000  0.19052000  1.0
  C  C22  1  0.91336000  0.20583000  0.18982000  1.0
  C  C23  1  0.41973000  0.05816000  0.35575000  1.0
  C  C24  1  0.30240000  0.27608000  0.07731000  1.0
  C  C25  1  0.40063000  0.06532000  0.27066000  1.0
  C  C26  1  0.36198000  0.16467000  0.21552000  1.0
  C  C27  1  0.34732000  0.17219000  0.13421000  1.0
  C  C28  1  0.37113000  0.08129000  0.10740000  1.0
  C  C29  1  0.40810000  0.98341000  0.16391000  1.0
  C  C30  1  0.42316000  0.97359000  0.24519000  1.0
  C  C31  1  0.31566000  0.92840000  0.62561000  1.0
  C  C32  1  0.12039000  0.99893000  0.69060000  1.0
  C  C33  1  0.20583000  0.91245000  0.69001000  1.0
  C  C34  1  0.94178000  0.58006000  0.14412000  1.0
  C  C35  1  0.72291000  0.69855000  0.42151000  1.0
  C  C36  1  0.93447000  0.59942000  0.22910000  1.0
  C  C37  1  0.83503000  0.63884000  0.28372000  1.0
  C  C38  1  0.82715000  0.65368000  0.36499000  1.0
  C  C39  1  0.91781000  0.62964000  0.39225000  1.0
  C  C40  1  0.01588000  0.59214000  0.33610000  1.0
  C  C41  1  0.02602000  0.57657000  0.25494000  1.0
  C  C42  1  0.06995000  0.68483000  0.87474000  1.0
  C  C43  1  0.00018000  0.87963000  0.80949000  1.0
  C  C44  1  0.08663000  0.79417000  0.81018000  1.0
  C  C45  1  0.98102000  0.01929000  0.25000000  1.0
  C  C46  1  0.81115000  0.18942000  0.24981000  1.0
  C  C47  1  0.01898000  0.98071000  0.75000000  1.0
  C  C48  1  0.18884000  0.81058000  0.75019000  1.0
  N  N1  1  0.56695000  0.11302000  0.86383000  1.0
  N  N2  1  0.88762000  0.43302000  0.63611000  1.0
  N  N3  1  0.43305000  0.88698000  0.13617000  1.0
  N  N4  1  0.11237000  0.56699000  0.36390000  1.0
  N  N5  1  0.07175000  0.92820000  0.25017000  1.0
  N  N6  1  0.92825000  0.07180000  0.74983000  1.0
  O  O1  1  0.73636000  0.64283000  0.89324000  1.0
  O  O2  1  0.66706000  0.97605000  0.41267000  1.0
  O  O3  1  0.54390000  0.03478000  0.59642000  1.0
  O  O4  1  0.59952000  0.85767000  0.62370000  1.0
  O  O5  1  0.61474000  0.15346000  0.38725000  1.0
  O  O6  1  0.57673000  0.10040000  0.93882000  1.0
  O  O7  1  0.70383000  0.71500000  0.00066000  1.0
  O  O8  1  0.53704000  0.19960000  0.81095000  1.0
  O  O9  1  0.16231000  0.94802000  0.20192000  1.0
  O  O10  1  0.35666000  0.25911000  0.60989000  1.0
  O  O11  1  0.02612000  0.33119000  0.08723000  1.0
  O  O12  1  0.96521000  0.45662000  0.90356000  1.0
  O  O13  1  0.14247000  0.40051000  0.87643000  1.0
  O  O14  1  0.84852000  0.38522000  0.11214000  1.0
  O  O15  1  0.90007000  0.42314000  0.56121000  1.0
  O  O16  1  0.28745000  0.29927000  0.49879000  1.0
  O  O17  1  0.80099000  0.46318000  0.68900000  1.0
  O  O18  1  0.05160000  0.83787000  0.29849000  1.0
  O  O19  1  0.26364000  0.35717000  0.10676000  1.0
  O  O20  1  0.33293000  0.02395000  0.58734000  1.0
  O  O21  1  0.45610000  0.96522000  0.40358000  1.0
  O  O22  1  0.40048000  0.14233000  0.37631000  1.0
  O  O23  1  0.38525000  0.84654000  0.61276000  1.0
  O  O24  1  0.42326000  0.89960000  0.06118000  1.0
  O  O25  1  0.29616000  0.28500000  0.99934000  1.0
  O  O26  1  0.46296000  0.80040000  0.18905000  1.0
  O  O27  1  0.83768000  0.05199000  0.79808000  1.0
  O  O28  1  0.64333000  0.74089000  0.39011000  1.0
  O  O29  1  0.97388000  0.66881000  0.91277000  1.0
  O  O30  1  0.03479000  0.54338000  0.09644000  1.0
  O  O31  1  0.85753000  0.59949000  0.12357000  1.0
  O  O32  1  0.15147000  0.61479000  0.88786000  1.0
  O  O33  1  0.09992000  0.57686000  0.43879000  1.0
  O  O34  1  0.71254000  0.70074000  0.50122000  1.0
  O  O35  1  0.19900000  0.53682000  0.31100000  1.0
  O  O36  1  0.94839000  0.16213000  0.70151000  1.0
