# generated using pymatgen
data_H9C15N4O3
_symmetry_space_group_name_H-M   'P 1'
_cell_length_a   15.25137500
_cell_length_b   15.25135000
_cell_length_c   45.75410000
_cell_angle_alpha   90.00000000
_cell_angle_beta   90.00000000
_cell_angle_gamma   119.99983733
_symmetry_Int_Tables_number   1
_chemical_formula_structural   H9C15N4O3
_chemical_formula_sum   'H54 C90 N24 O18'
_cell_volume   9216.76783422
_cell_formula_units_Z   6
loop_
 _symmetry_equiv_pos_site_id
 _symmetry_equiv_pos_as_xyz
  1  'x, y, z'
loop_
 _atom_site_type_symbol
 _atom_site_label
 _atom_site_symmetry_multiplicity
 _atom_site_fract_x
 _atom_site_fract_y
 _atom_site_fract_z
 _atom_site_occupancy
  C  1  1  0.98988750  0.15019950  0.66855200  1
  C  2  1  0.98798750  0.19524050  0.71942800  1
  C  4  1  0.98550700  0.19781900  0.87062900  1
  C  5  1  0.99490750  0.93121550  0.13475900  1
  C  11  1  0.98300600  0.88683000  0.98541100  1
  C  12  1  0.98346400  0.02399500  0.52824500  1
  C  17  1  0.97449750  0.96029450  0.19492200  1
  C  20  1  0.96993850  0.48871350  0.31974100  1
  C  25  1  0.01079950  0.91716750  0.95560900  1
  C  26  1  0.93845250  0.87209550  0.93255300  1
  C  27  1  0.84036800  0.79440000  0.94047900  1
  C  28  1  0.81061700  0.75767200  0.96922300  1
  C  29  1  0.88273200  0.80735700  0.99199200  1
  C  30  1  0.11407650  0.98543950  0.94977300  1
  C  31  1  0.85663050  0.78290250  0.02171100  1
  C  33  1  0.05612600  0.93268600  0.00853200  1
  C  34  1  0.15784750  0.00789050  0.00187400  1
  C  35  1  0.23234650  0.05062750  0.02432300  1
  C  36  1  0.20509750  0.00966050  0.05272900  1
  C  37  1  0.10376400  0.94159400  0.06090700  1
  C  38  1  0.02905600  0.90239900  0.03830600  1
  C  39  1  0.18518950  0.02997050  0.97216300  1
  C  41  1  0.92828450  0.82631950  0.04402600  1
  C  46  1  0.71250300  0.67072900  0.97273400  1
  C  47  1  0.95708650  0.89488550  0.90208000  1
  C  48  1  0.32994000  0.13733400  0.02058800  1
  C  49  1  0.08479400  0.92354700  0.09146600  1
  C  54  1  0.90150800  0.01497300  0.31871400  1
  C  55  1  0.90408950  0.98717550  0.28891300  1
  C  56  1  0.93129150  0.05949550  0.26585500  1
  C  57  1  0.95160950  0.15756150  0.27377400  1
  C  58  1  0.94462800  0.18732200  0.30251700  1
  C  59  1  0.92223100  0.11522900  0.32528800  1
  C  60  1  0.86911750  0.88390450  0.28308400  1
  C  61  1  0.92386850  0.14134450  0.35500600  1
  C  62  1  0.87429650  0.94188550  0.34184200  1
  C  63  1  0.84774050  0.84014650  0.33518900  1
  C  64  1  0.81602150  0.76565050  0.35763300  1
  C  65  1  0.80262950  0.79304050  0.38605000  1
  C  66  1  0.83565950  0.89430650  0.39422900  1
  C  67  1  0.87111350  0.96897950  0.37161900  1
  C  68  1  0.84228600  0.81276300  0.30547600  1
  C  70  1  0.89578100  0.06974500  0.37733200  1
  C  75  1  0.95576450  0.28542150  0.30602200  1
  C  76  1  0.93557150  0.04088550  0.23538400  1
  C  77  1  0.80501400  0.66801100  0.35388900  1
  C  78  1  0.83656700  0.91315900  0.42479200  1
  C  83  1  0.11107200  0.09664500  0.65203100  1
  C  84  1  0.08076300  0.09427100  0.62223500  1
  C  85  1  0.12596500  0.06726200  0.59915000  1
  C  86  1  0.20371700  0.04692200  0.60704500  1
  C  87  1  0.24042850  0.05375850  0.63578500  1
  C  88  1  0.19062800  0.07592900  0.65857900  1
  C  89  1  0.01238700  0.12916000  0.61643000  1
  C  90  1  0.21504500  0.07410400  0.68829200  1
  C  92  1  0.06513200  0.12369100  0.67517900  1
  C  93  1  0.94709650  0.18179450  0.69102900  1
  C  94  1  0.05625200  0.16222000  0.72758000  1
  C  95  1  0.09540750  0.12676250  0.70495300  1
  C  96  1  0.96794250  0.15573850  0.63884500  1
  C  98  1  0.17150800  0.10207700  0.71063800  1
  C  102  1  0.32743800  0.04272900  0.63931500  1
  C  103  1  0.10305100  0.06301500  0.56868100  1
  C  104  1  0.86054250  0.19293150  0.68732000  1
  C  105  1  0.07449300  0.16137900  0.75812600  1
  C  110  1  0.06418400  0.11226300  0.85113100  1
  C  111  1  0.03768100  0.01441800  0.86160400  1
  C  112  1  0.03486850  0.94654750  0.83994200  1
  C  114  1  0.06684600  0.06389700  0.80144000  1
  C  125  1  0.04588700  0.93385300  0.18445300  1
  C  127  1  0.90944200  0.96309200  0.17325400  1
  C  132  1  0.21009050  0.01254750  0.20397500  1
  C  140  1  0.88569550  0.95240650  0.51778300  1
  C  141  1  0.05120450  0.08914450  0.50657300  1
  C  143  1  0.93393500  0.00338000  0.46808200  1
  C  147  1  0.80056550  0.78820550  0.53731300  1
  C  155  1  0.60918700  0.41632400  0.00705600  1
  C  156  1  0.60711150  0.50006650  0.99410900  1
  C  157  1  0.50919050  0.48158650  0.98644700  1
  C  159  1  0.43015950  0.31024450  0.00234700  1
  C  163  1  0.74063750  0.38491950  0.99552800  1
  C  171  1  0.80466500  0.38872600  0.34034300  1
  C  172  1  0.89048400  0.39079400  0.32739700  1
  C  175  1  0.87764250  0.56775250  0.33563900  1
  C  179  1  0.64181150  0.25729250  0.32880700  1
  C  187  1  0.58180700  0.19363200  0.67367700  1
  C  188  1  0.49807650  0.10789650  0.66069700  1
  C  189  1  0.51647200  0.02841000  0.65302500  1
  C  191  1  0.68775000  0.12052500  0.66898500  1
  C  195  1  0.61333100  0.35653200  0.66216600  1
  H  3  1  0.99708950  0.14125150  0.59560500  1
  H  15  1  0.96957950  0.20973150  0.25747600  1
  H  19  1  0.97591550  0.03509450  0.42654300  1
  H  32  1  0.78820350  0.76016750  0.92418000  1
  H  40  1  0.25785750  0.04288650  0.06899900  1
  H  42  1  0.25911750  0.07505950  0.96610100  1
  H  43  1  0.14134100  0.00092300  0.92893700  1
  H  44  1  0.90532000  0.79773100  0.06455100  1
  H  45  1  0.78442250  0.73170850  0.02787200  1
  H  69  1  0.78277050  0.74017150  0.40231300  1
  H  71  1  0.81355550  0.73884750  0.29941500  1
  H  72  1  0.85716150  0.85659050  0.26225100  1
  H  73  1  0.88997800  0.09267300  0.39784400  1
  H  74  1  0.94480100  0.21353400  0.36116300  1
  H  91  1  0.23792300  0.02904700  0.59072700  1
  H  97  1  0.95502750  0.21510750  0.73570200  1
  H  99  1  0.92283750  0.18458750  0.63281300  1
  H  100  1  0.20019450  0.10773950  0.73115000  1
  H  101  1  0.26632700  0.05318000  0.69442900  1
  H  117  1  0.02426450  0.87701750  0.84530800  1
  H  118  1  0.96872000  0.21828900  0.84930300  1
  H  119  1  0.00006300  0.25831500  0.88597300  1
  H  120  1  0.91960100  0.12827700  0.87839100  1
  H  122  1  0.03514600  0.04534500  0.90421600  1
  H  124  1  0.05664950  0.02188650  0.75989900  1
  H  131  1  0.85048450  0.97364550  0.17861900  1
  H  133  1  0.24738100  0.02936600  0.18265200  1
  H  134  1  0.25601600  0.99799000  0.21932200  1
  H  135  1  0.20641700  0.07843000  0.21173800  1
  H  137  1  0.00793100  0.96285200  0.23755600  1
  H  139  1  0.96316450  0.94145350  0.09321700  1
  H  146  1  0.12063150  0.14824550  0.51193000  1
  H  148  1  0.78016650  0.75089250  0.51599500  1
  H  149  1  0.74014450  0.74218150  0.55266500  1
  H  150  1  0.87022100  0.79209000  0.54507600  1
  H  152  1  0.95266450  0.99048350  0.57088000  1
  H  162  1  0.49704900  0.53730700  0.97886100  1
  H  164  1  0.68994600  0.30471100  0.99081000  1
  H  165  1  0.81035500  0.39337100  0.00475500  1
  H  166  1  0.75958550  0.42825550  0.97518700  1
  H  168  1  0.75597950  0.59441550  0.99831500  1
  H  170  1  0.28210350  0.21804050  0.99774900  1
  H  178  1  0.03780650  0.50085350  0.31215700  1
  H  180  1  0.61230350  0.30799150  0.32409100  1
  H  181  1  0.58053500  0.18757300  0.33803000  1
  H  182  1  0.66620500  0.23835000  0.30846800  1
  H  184  1  0.83595650  0.24192250  0.33159800  1
  H  186  1  0.93352300  0.71582600  0.33104100  1
  H  194  1  0.46071400  0.96059900  0.64541500  1
  H  196  1  0.69353450  0.38600050  0.65745300  1
  H  197  1  0.60493000  0.41782100  0.67140000  1
  H  198  1  0.57001000  0.33220100  0.64182200  1
  H  200  1  0.40371100  0.16236200  0.66495400  1
  H  202  1  0.77983800  0.06454400  0.66440100  1
  N  18  1  0.97065500  0.98125700  0.22395300  1
  N  113  1  0.04811450  0.97210350  0.81127300  1
  N  115  1  0.07622800  0.13255200  0.82198800  1
  N  121  1  0.01661100  0.98957800  0.89063200  1
  N  123  1  0.07009400  0.07988500  0.77201600  1
  N  128  1  0.92180350  0.94989450  0.14458500  1
  N  129  1  0.05417950  0.92184750  0.15531000  1
  N  138  1  0.00769750  0.92798450  0.10533800  1
  N  142  1  0.02563200  0.07668100  0.47790400  1
  N  144  1  0.86538400  0.94401900  0.48864000  1
  N  151  1  0.00830850  0.02789650  0.55727400  1
  N  153  1  0.91793600  0.99049200  0.43866200  1
  N  158  1  0.42598750  0.38959650  0.99046900  1
  N  160  1  0.52248600  0.32639000  0.01072600  1
  N  167  1  0.69529650  0.59027350  0.98996700  1
  N  169  1  0.34281600  0.22028900  0.00551300  1
  N  174  1  0.96116700  0.57191900  0.32376500  1
  N  176  1  0.80144500  0.47543000  0.34401700  1
  N  183  1  0.89250250  0.30261150  0.32325400  1
  N  185  1  0.87507200  0.65511500  0.33880800  1
  N  190  1  0.60840200  0.03708300  0.65707100  1
  N  192  1  0.67167450  0.19674950  0.67737100  1
  N  199  1  0.40789700  0.10591900  0.65654600  1
  N  201  1  0.77763700  0.12301200  0.67218200  1
  O  50  1  0.64133750  0.65589950  0.95248900  1
  O  51  1  0.89496350  0.82202650  0.88291900  1
  O  52  1  0.40602100  0.14776500  0.03831500  1
  O  53  1  0.15967800  0.92579500  0.10811000  1
  O  79  1  0.01207800  0.35658300  0.28577100  1
  O  80  1  0.92490300  0.10302400  0.21621200  1
  O  81  1  0.73941350  0.59197650  0.37163600  1
  O  82  1  0.76394900  0.83838400  0.44146400  1
  O  106  1  0.34290750  0.98728750  0.61889900  1
  O  107  1  0.17622700  0.07452800  0.54953300  1
  O  108  1  0.84996300  0.25844300  0.70506000  1
  O  109  1  0.07201450  0.23386250  0.77478900  1
  O  116  1  0.07424350  0.18764650  0.86946700  1
  O  130  1  0.11119900  0.92379800  0.20279600  1
  O  145  1  0.81042350  0.88697750  0.53613100  1
  O  161  1  0.69696000  0.42202600  0.01657500  1
  O  177  1  0.72258850  0.30095150  0.34985900  1
  O  193  1  0.57615100  0.27571700  0.68320400  1
