# generated using pymatgen
data_NiH13C13N6F
_symmetry_space_group_name_H-M   'P 1'
_cell_length_a   15.41635000
_cell_length_b   15.98754504
_cell_length_c   17.11410000
_cell_angle_alpha   89.97474217
_cell_angle_beta   89.97551000
_cell_angle_gamma   102.56825117
_symmetry_Int_Tables_number   1
_chemical_formula_structural   NiH13C13N6F
_chemical_formula_sum   'Ni8 H104 C104 N48 F8'
_cell_volume   4117.02782883
_cell_formula_units_Z   8
loop_
 _symmetry_equiv_pos_site_id
 _symmetry_equiv_pos_as_xyz
  1  'x, y, z'
loop_
 _atom_site_type_symbol
 _atom_site_label
 _atom_site_symmetry_multiplicity
 _atom_site_fract_x
 _atom_site_fract_y
 _atom_site_fract_z
 _atom_site_occupancy
  Ni  Ni0  1  0.50000000  0.50000000  0.13157000  1
  Ni  Ni1  1  0.50000000  0.50000000  0.86843000  1
  Ni  Ni2  1  1.00000000  0.00000000  0.63157000  1
  Ni  Ni3  1  1.00000000  0.00000000  0.36843000  1
  Ni  Ni4  1  0.35121000  0.48890000  0.00000000  1
  Ni  Ni5  1  0.64879000  0.51110000  0.00000000  1
  Ni  Ni6  1  0.85121000  0.98890000  0.50000000  1
  Ni  Ni7  1  0.14879000  0.01110000  0.50000000  1
  H  H8  1  0.57797000  0.39458000  0.74409000  1
  H  H9  1  0.47280000  0.67310000  0.22119000  1
  H  H10  1  0.42244000  0.60618000  0.74423000  1
  H  H11  1  0.52715000  0.32683000  0.22124000  1
  H  H12  1  0.07754000  0.89377000  0.24427000  1
  H  H13  1  0.97435000  0.17453000  0.71968000  1
  H  H14  1  0.92253000  0.10620000  0.24424000  1
  H  H15  1  0.02658000  0.82675000  0.72100000  1
  H  H16  1  0.22706000  0.30632000  0.95432000  1
  H  H17  1  0.80191000  0.62783000  0.08779000  1
  H  H18  1  0.77445000  0.69297000  0.95296000  1
  H  H19  1  0.19809000  0.37236000  0.08788000  1
  H  H20  1  0.72696000  0.80623000  0.45424000  1
  H  H21  1  0.30192000  0.12764000  0.58757000  1
  H  H22  1  0.27289000  0.19382000  0.45427000  1
  H  H23  1  0.69797000  0.87174000  0.58789000  1
  H  H24  1  0.72813000  0.34525000  0.04426000  1
  H  H25  1  0.22717000  0.59362000  0.92275000  1
  H  H26  1  0.27180000  0.65476000  0.04443000  1
  H  H27  1  0.77328000  0.40789000  0.92272000  1
  H  H28  1  0.22704000  0.84420000  0.54388000  1
  H  H29  1  0.72710000  0.09326000  0.42278000  1
  H  H30  1  0.77187000  0.15462000  0.54408000  1
  H  H31  1  0.27285000  0.90659000  0.42278000  1
  H  H32  1  0.76656000  0.20397000  0.08720000  1
  H  H33  1  0.16498000  0.70817000  0.85946000  1
  H  H34  1  0.23429000  0.79694000  0.08705000  1
  H  H35  1  0.85735000  0.31902000  0.85254000  1
  H  H36  1  0.25827000  0.69568000  0.58530000  1
  H  H37  1  0.65830000  0.20047000  0.35817000  1
  H  H38  1  0.71991000  0.28120000  0.59161000  1
  H  H39  1  0.34085000  0.79844000  0.35836000  1
  H  H40  1  0.87267000  0.26890000  0.22014000  1
  H  H41  1  0.05111000  0.63893000  0.73151000  1
  H  H42  1  0.12720000  0.73165000  0.21949000  1
  H  H43  1  0.94478000  0.37674000  0.70751000  1
  H  H44  1  0.37250000  0.76354000  0.71199000  1
  H  H45  1  0.55266000  0.13500000  0.22424000  1
  H  H46  1  0.63247000  0.22256000  0.73513000  1
  H  H47  1  0.44749000  0.86433000  0.22495000  1
  H  H48  1  0.23628000  0.51922000  0.64589000  1
  H  H49  1  0.12246000  0.40629000  0.70001000  1
  H  H50  1  0.07805000  0.48553000  0.75203000  1
  H  H51  1  0.18637000  0.46659000  0.77757000  1
  H  H52  1  0.67983000  0.38212000  0.29987000  1
  H  H53  1  0.80879000  0.49186000  0.28142000  1
  H  H54  1  0.78209000  0.44379000  0.18728000  1
  H  H55  1  0.86907000  0.41546000  0.24639000  1
  H  H56  1  0.73032000  0.46278000  0.63463000  1
  H  H57  1  0.84030000  0.58990000  0.66307000  1
  H  H58  1  0.90727000  0.52570000  0.71045000  1
  H  H59  1  0.80250000  0.53610000  0.75355000  1
  H  H60  1  0.31899000  0.61697000  0.29912000  1
  H  H61  1  0.18963000  0.50790000  0.28032000  1
  H  H62  1  0.21642000  0.55655000  0.18637000  1
  H  H63  1  0.12977000  0.58491000  0.24591000  1
  H  H64  1  0.74730000  0.02527000  0.14186000  1
  H  H65  1  0.63311000  0.90760000  0.18768000  1
  H  H66  1  0.58242000  0.98255000  0.23950000  1
  H  H67  1  0.69009000  0.96568000  0.26977000  1
  H  H68  1  0.18808000  0.88755000  0.79333000  1
  H  H69  1  0.31980000  0.99257000  0.77068000  1
  H  H70  1  0.28997000  0.94163000  0.67825000  1
  H  H71  1  0.37597000  0.91212000  0.73766000  1
  H  H72  1  0.25406000  0.97542000  0.14227000  1
  H  H73  1  0.36839000  0.09246000  0.18893000  1
  H  H74  1  0.41812000  0.01689000  0.24091000  1
  H  H75  1  0.31037000  0.03417000  0.27055000  1
  H  H76  1  0.84353000  0.13519000  0.81048000  1
  H  H77  1  0.72924000  0.01353000  0.79693000  1
  H  H78  1  0.73657000  0.06115000  0.70181000  1
  H  H79  1  0.65196000  0.07822000  0.76974000  1
  H  H80  1  0.39952000  0.16370000  0.68232000  1
  H  H81  1  0.49303000  0.20600000  0.81215000  1
  H  H82  1  0.46781000  0.09730000  0.77674000  1
  H  H83  1  0.40146000  0.12888000  0.85318000  1
  H  H84  1  0.64852000  0.69158000  0.38971000  1
  H  H85  1  0.64854000  0.55876000  0.45097000  1
  H  H86  1  0.75641000  0.62771000  0.46772000  1
  H  H87  1  0.74147000  0.54625000  0.39207000  1
  H  H88  1  0.60421000  0.85012000  0.68722000  1
  H  H89  1  0.49540000  0.84074000  0.78554000  1
  H  H90  1  0.58808000  0.92392000  0.81436000  1
  H  H91  1  0.57098000  0.81853000  0.85792000  1
  H  H92  1  0.35084000  0.30894000  0.39045000  1
  H  H93  1  0.35091000  0.44238000  0.45033000  1
  H  H94  1  0.24268000  0.37406000  0.46706000  1
  H  H95  1  0.25860000  0.45478000  0.39063000  1
  H  H96  1  0.89906000  0.66292000  0.18302000  1
  H  H97  1  0.99473000  0.70248000  0.31028000  1
  H  H98  1  0.96245000  0.59259000  0.27868000  1
  H  H99  1  0.90113000  0.63135000  0.35499000  1
  H  H100  1  0.15271000  0.18831000  0.89573000  1
  H  H101  1  0.15045000  0.04951000  0.94445000  1
  H  H102  1  0.26145000  0.11242000  0.96035000  1
  H  H103  1  0.23808000  0.03882000  0.87840000  1
  H  H104  1  0.10083000  0.33739000  0.18311000  1
  H  H105  1  0.00521000  0.29702000  0.31057000  1
  H  H106  1  0.03669000  0.40693000  0.27878000  1
  H  H107  1  0.09849000  0.36872000  0.35504000  1
  H  H108  1  0.85432000  0.81046000  0.88492000  1
  H  H109  1  0.84357000  0.93381000  0.96019000  1
  H  H110  1  0.74651000  0.84958000  0.97734000  1
  H  H111  1  0.74069000  0.93711000  0.91185000  1
  C  C112  1  0.36958000  0.38147000  0.19962000  1
  C  C113  1  0.61646000  0.65913000  0.82192000  1
  C  C114  1  0.63034000  0.61851000  0.19960000  1
  C  C115  1  0.38403000  0.34079000  0.82218000  1
  C  C116  1  0.86946000  0.88165000  0.69973000  1
  C  C117  1  0.11587000  0.15942000  0.32232000  1
  C  C118  1  0.13056000  0.11892000  0.69949000  1
  C  C119  1  0.88413000  0.84066000  0.32230000  1
  C  C120  1  0.80054000  0.23935000  0.22101000  1
  C  C121  1  0.12351000  0.66687000  0.72846000  1
  C  C122  1  0.19940000  0.76092000  0.22065000  1
  C  C123  1  0.87460000  0.34261000  0.71525000  1
  C  C124  1  0.30013000  0.73641000  0.71669000  1
  C  C125  1  0.62470000  0.16471000  0.22468000  1
  C  C126  1  0.70276000  0.25722000  0.72890000  1
  C  C127  1  0.37538000  0.83488000  0.22508000  1
  C  C128  1  0.28928000  0.16721000  0.75596000  1
  C  C129  1  0.76336000  0.70022000  0.32342000  1
  C  C130  1  0.71129000  0.83398000  0.75713000  1
  C  C131  1  0.23640000  0.30002000  0.32353000  1
  C  C132  1  0.78874000  0.66696000  0.25635000  1
  C  C133  1  0.26393000  0.19975000  0.82339000  1
  C  C134  1  0.21108000  0.33325000  0.25644000  1
  C  C135  1  0.73689000  0.79979000  0.82359000  1
  C  C136  1  0.60692000  0.39445000  0.80152000  1
  C  C137  1  0.43182000  0.65264000  0.17066000  1
  C  C138  1  0.39372000  0.60660000  0.80174000  1
  C  C139  1  0.56816000  0.34733000  0.17069000  1
  C  C140  1  0.10640000  0.89363000  0.30173000  1
  C  C141  1  0.93248000  0.15328000  0.66988000  1
  C  C142  1  0.89363000  0.10634000  0.30170000  1
  C  C143  1  0.06757000  0.84707000  0.67040000  1
  C  C144  1  0.28255000  0.32816000  0.91542000  1
  C  C145  1  0.73823000  0.62742000  0.11430000  1
  C  C146  1  0.71839000  0.67115000  0.91465000  1
  C  C147  1  0.26173000  0.37267000  0.11436000  1
  C  C148  1  0.78257000  0.82817000  0.41547000  1
  C  C149  1  0.23832000  0.12743000  0.61414000  1
  C  C150  1  0.21735000  0.17188000  0.41548000  1
  C  C151  1  0.76170000  0.87257000  0.61444000  1
  C  C152  1  0.67279000  0.35621000  0.07844000  1
  C  C153  1  0.29097000  0.59980000  0.89442000  1
  C  C154  1  0.32721000  0.64380000  0.07848000  1
  C  C155  1  0.70964000  0.40153000  0.89415000  1
  C  C156  1  0.17184000  0.85554000  0.57803000  1
  C  C157  1  0.79085000  0.09948000  0.39440000  1
  C  C158  1  0.82717000  0.14380000  0.57832000  1
  C  C159  1  0.20913000  0.90045000  0.39440000  1
  C  C160  1  0.27796000  0.35905000  0.19298000  1
  C  C161  1  0.69148000  0.71416000  0.85167000  1
  C  C162  1  0.72194000  0.64104000  0.19292000  1
  C  C163  1  0.30954000  0.28506000  0.85237000  1
  C  C164  1  0.77789000  0.85921000  0.69317000  1
  C  C165  1  0.19029000  0.21500000  0.35254000  1
  C  C166  1  0.22222000  0.14130000  0.69271000  1
  C  C167  1  0.80964000  0.78511000  0.35251000  1
  C  C168  1  0.69002000  0.38130000  0.81793000  1
  C  C169  1  0.37113000  0.69403000  0.13742000  1
  C  C170  1  0.31116000  0.62094000  0.81837000  1
  C  C171  1  0.62889000  0.30596000  0.13744000  1
  C  C172  1  0.18898000  0.87949000  0.31840000  1
  C  C173  1  0.87122000  0.19435000  0.63703000  1
  C  C174  1  0.81101000  0.12042000  0.31837000  1
  C  C175  1  0.12755000  0.80508000  0.63684000  1
  C  C176  1  0.74347000  0.20375000  0.14866000  1
  C  C177  1  0.18541000  0.70426000  0.79759000  1
  C  C178  1  0.25699000  0.79673000  0.14858000  1
  C  C179  1  0.82673000  0.31141000  0.79356000  1
  C  C180  1  0.23861000  0.69893000  0.64745000  1
  C  C181  1  0.68220000  0.20020000  0.29699000  1
  C  C182  1  0.74998000  0.28869000  0.65081000  1
  C  C183  1  0.31736000  0.79917000  0.29711000  1
  C  C184  1  0.19617000  0.62159000  0.69872000  1
  C  C185  1  0.72578000  0.27989000  0.25062000  1
  C  C186  1  0.79143000  0.37497000  0.68953000  1
  C  C187  1  0.27373000  0.71986000  0.25035000  1
  C  C188  1  0.70071000  0.12334000  0.19589000  1
  C  C189  1  0.22872000  0.78086000  0.74727000  1
  C  C190  1  0.29979000  0.87677000  0.19620000  1
  C  C191  1  0.78453000  0.22581000  0.75563000  1
  C  C192  1  0.25663000  0.65845000  0.76632000  1
  C  C193  1  0.66904000  0.24598000  0.17949000  1
  C  C194  1  0.74476000  0.34402000  0.76596000  1
  C  C195  1  0.33099000  0.75399000  0.17949000  1
  C  C196  1  0.75682000  0.15834000  0.26657000  1
  C  C197  1  0.16769000  0.74513000  0.67916000  1
  C  C198  1  0.24316000  0.84155000  0.26660000  1
  C  C199  1  0.83178000  0.25548000  0.67869000  1
  C  C200  1  0.13991000  0.47003000  0.72868000  1
  C  C201  1  0.80284000  0.43202000  0.24748000  1
  C  C202  1  0.83796000  0.53080000  0.69785000  1
  C  C203  1  0.19583000  0.56800000  0.24669000  1
  C  C204  1  0.64666000  0.97000000  0.21882000  1
  C  C205  1  0.31102000  0.93125000  0.73864000  1
  C  C206  1  0.35422000  0.02989000  0.21986000  1
  C  C207  1  0.72168000  0.07103000  0.76396000  1
  C  C208  1  0.43831000  0.15042000  0.79844000  1
  C  C209  1  0.71044000  0.59379000  0.42224000  1
  C  C210  1  0.56625000  0.85429000  0.80310000  1
  C  C211  1  0.28911000  0.40734000  0.42154000  1
  C  C212  1  0.93715000  0.64877000  0.29909000  1
  C  C213  1  0.21176000  0.08492000  0.91506000  1
  C  C214  1  0.06247000  0.35102000  0.29922000  1
  C  C215  1  0.78334000  0.89402000  0.93267000  1
  N  N216  1  0.40446000  0.40868000  0.13081000  1
  N  N217  1  0.59554000  0.59132000  0.86919000  1
  N  N218  1  0.59554000  0.59132000  0.13081000  1
  N  N219  1  0.40446000  0.40868000  0.86919000  1
  N  N220  1  0.90446000  0.90868000  0.63081000  1
  N  N221  1  0.09554000  0.09132000  0.36919000  1
  N  N222  1  0.09554000  0.09132000  0.63081000  1
  N  N223  1  0.90446000  0.90868000  0.36919000  1
  N  N224  1  0.57503000  0.42141000  0.86721000  1
  N  N225  1  0.42497000  0.57859000  0.13279000  1
  N  N226  1  0.42497000  0.57859000  0.86721000  1
  N  N227  1  0.57503000  0.42141000  0.13279000  1
  N  N228  1  0.07503000  0.92141000  0.36721000  1
  N  N229  1  0.92497000  0.07859000  0.63279000  1
  N  N230  1  0.92497000  0.07859000  0.36721000  1
  N  N231  1  0.07503000  0.92141000  0.63279000  1
  N  N232  1  0.33960000  0.40384000  0.92191000  1
  N  N233  1  0.66040000  0.59616000  0.07809000  1
  N  N234  1  0.66040000  0.59616000  0.92191000  1
  N  N235  1  0.33960000  0.40384000  0.07809000  1
  N  N236  1  0.83960000  0.90384000  0.42191000  1
  N  N237  1  0.16040000  0.09616000  0.57809000  1
  N  N238  1  0.16040000  0.09616000  0.42191000  1
  N  N239  1  0.83960000  0.90384000  0.57809000  1
  N  N240  1  0.63990000  0.42625000  0.07610000  1
  N  N241  1  0.36010000  0.57375000  0.92390000  1
  N  N242  1  0.36010000  0.57375000  0.07610000  1
  N  N243  1  0.63990000  0.42625000  0.92390000  1
  N  N244  1  0.13990000  0.92625000  0.57610000  1
  N  N245  1  0.86010000  0.07375000  0.42390000  1
  N  N246  1  0.86010000  0.07375000  0.57610000  1
  N  N247  1  0.13990000  0.92625000  0.42390000  1
  N  N248  1  0.18122000  0.53367000  0.67225000  1
  N  N249  1  0.73812000  0.36475000  0.28457000  1
  N  N250  1  0.79218000  0.45719000  0.65385000  1
  N  N251  1  0.26088000  0.63478000  0.28397000  1
  N  N252  1  0.68992000  0.03697000  0.16620000  1
  N  N253  1  0.24488000  0.86732000  0.77817000  1
  N  N254  1  0.31115000  0.96335000  0.16683000  1
  N  N255  1  0.78192000  0.14533000  0.79549000  1
  N  N256  1  0.38168000  0.17480000  0.73865000  1
  N  N257  1  0.68922000  0.65450000  0.36673000  1
  N  N258  1  0.61884000  0.82818000  0.74107000  1
  N  N259  1  0.31037000  0.34589000  0.36687000  1
  N  N260  1  0.88113000  0.67408000  0.23931000  1
  N  N261  1  0.19095000  0.15249000  0.86724000  1
  N  N262  1  0.11869000  0.32609000  0.23938000  1
  N  N263  1  0.80932000  0.84627000  0.86825000  1
  F  F264  1  0.41666000  0.40506000  0.26552000  1
  F  F265  1  0.57719000  0.66459000  0.75210000  1
  F  F266  1  0.58322000  0.59471000  0.26551000  1
  F  F267  1  0.42221000  0.33692000  0.75157000  1
  F  F268  1  0.91620000  0.90539000  0.76580000  1
  F  F269  1  0.07785000  0.16360000  0.25171000  1
  F  F270  1  0.08340000  0.09661000  0.76564000  1
  F  F271  1  0.92220000  0.83657000  0.25167000  1
