# generated using pymatgen
data_Mg2H7C13O8
_symmetry_space_group_name_H-M   'P 1'
_cell_length_a   8.86900000
_cell_length_b   12.08310000
_cell_length_c   19.61293626
_cell_angle_alpha   85.24037287
_cell_angle_beta   76.93214368
_cell_angle_gamma   68.46980000
_symmetry_Int_Tables_number   1
_chemical_formula_structural   Mg2H7C13O8
_chemical_formula_sum   'Mg8 H28 C52 O32'
_cell_volume   1904.53154245
_cell_formula_units_Z   4
loop_
 _symmetry_equiv_pos_site_id
 _symmetry_equiv_pos_as_xyz
  1  'x, y, z'
loop_
 _atom_site_type_symbol
 _atom_site_label
 _atom_site_symmetry_multiplicity
 _atom_site_fract_x
 _atom_site_fract_y
 _atom_site_fract_z
 _atom_site_occupancy
  Mg  Mg1  1  0.47970000  0.47140000  0.91222000  1.0
  Mg  Mg2  1  0.16281000  0.34346000  0.97538000  1.0
  Mg  Mg3  1  0.86332000  0.52860000  0.08778000  1.0
  Mg  Mg4  1  0.48165000  0.65654000  0.02462000  1.0
  Mg  Mg5  1  0.64192000  0.97140000  0.58778000  1.0
  Mg  Mg6  1  0.38819000  0.84346000  0.52462000  1.0
  Mg  Mg7  1  0.20110000  0.02860000  0.41222000  1.0
  Mg  Mg8  1  0.75627000  0.15654000  0.47538000  1.0
  H  H1  1  0.35730000  0.24320000  0.73800000  1.0
  H  H2  1  0.16880000  0.58880000  0.09140000  1.0
  H  H3  1  0.25440000  0.58180000  0.78480000  1.0
  H  H4  1  0.46700000  0.46460000  0.58940000  1.0
  H  H5  1  0.85450000  0.17220000  0.97420000  1.0
  H  H6  1  0.34780000  0.61860000  0.66860000  1.0
  H  H7  1  0.33850000  0.75680000  0.26200000  1.0
  H  H8  1  0.84900000  0.41120000  0.90860000  1.0
  H  H9  1  0.62100000  0.41820000  0.21520000  1.0
  H  H10  1  0.52100000  0.53540000  0.41060000  1.0
  H  H11  1  0.00090000  0.82780000  0.02580000  1.0
  H  H12  1  0.63500000  0.38140000  0.33140000  1.0
  H  H13  1  0.34530000  0.74320000  0.76200000  1.0
  H  H14  1  0.51020000  0.08880000  0.40860000  1.0
  H  H15  1  0.28920000  0.08180000  0.71520000  1.0
  H  H16  1  0.30640000  0.96460000  0.91060000  1.0
  H  H17  1  0.07870000  0.67220000  0.52580000  1.0
  H  H18  1  0.26640000  0.11860000  0.83140000  1.0
  H  H19  1  0.85050000  0.25680000  0.23800000  1.0
  H  H20  1  0.00760000  0.91120000  0.59140000  1.0
  H  H21  1  0.08620000  0.91820000  0.28480000  1.0
  H  H22  1  0.18160000  0.03540000  0.08940000  1.0
  H  H23  1  0.27670000  0.32780000  0.47420000  1.0
  H  H24  1  0.21640000  0.88140000  0.16860000  1.0
  H  H25  1  0.05900000  0.00000000  0.00000000  1.0
  H  H26  1  0.53050000  0.00000000  0.00000000  1.0
  H  H27  1  0.30900000  0.50000000  0.50000000  1.0
  H  H28  1  0.78050000  0.50000000  0.50000000  1.0
  C  C1  1  0.24318000  0.38562000  0.84842000  1.0
  C  C2  1  0.67098000  0.10478000  0.98406000  1.0
  C  C3  1  0.50182000  0.23878000  0.60318000  1.0
  C  C4  1  0.42236000  0.33936000  0.65532000  1.0
  C  C5  1  0.53937000  0.21782000  0.96844000  1.0
  C  C6  1  0.35873000  0.31854000  0.72440000  1.0
  C  C7  1  0.21429000  0.53524000  0.05438000  1.0
  C  C8  1  0.29544000  0.52026000  0.75226000  1.0
  C  C9  1  0.29715000  0.40910000  0.77360000  1.0
  C  C10  1  0.42165000  0.45076000  0.63534000  1.0
  C  C11  1  0.83117000  0.10292000  0.98454000  1.0
  C  C12  1  0.35409000  0.54202000  0.68300000  1.0
  C  C13  1  0.47722000  0.61438000  0.15158000  1.0
  C  C14  1  0.75982000  0.89522000  0.01594000  1.0
  C  C15  1  0.34378000  0.76122000  0.39682000  1.0
  C  C16  1  0.41704000  0.66064000  0.34468000  1.0
  C  C17  1  0.72563000  0.78218000  0.03156000  1.0
  C  C18  1  0.40167000  0.68146000  0.27560000  1.0
  C  C19  1  0.80391000  0.46476000  0.94562000  1.0
  C  C20  1  0.56796000  0.47974000  0.24774000  1.0
  C  C21  1  0.47985000  0.59090000  0.22640000  1.0
  C  C22  1  0.50775000  0.54924000  0.36466000  1.0
  C  C23  1  0.91863000  0.89708000  0.01546000  1.0
  C  C24  1  0.57911000  0.45798000  0.31700000  1.0
  C  C25  1  0.34160000  0.88562000  0.65158000  1.0
  C  C26  1  0.90504000  0.60478000  0.51594000  1.0
  C  C27  1  0.35500000  0.73878000  0.89682000  1.0
  C  C28  1  0.32768000  0.83936000  0.84468000  1.0
  C  C29  1  0.75781000  0.71782000  0.53156000  1.0
  C  C30  1  0.33313000  0.81854000  0.77560000  1.0
  C  C31  1  0.51867000  0.03524000  0.44562000  1.0
  C  C32  1  0.29770000  0.02026000  0.74774000  1.0
  C  C33  1  0.32075000  0.90910000  0.72640000  1.0
  C  C34  1  0.30699000  0.95076000  0.86466000  1.0
  C  C35  1  0.06571000  0.60292000  0.51546000  1.0
  C  C36  1  0.28709000  0.04202000  0.81700000  1.0
  C  C37  1  0.87880000  0.11438000  0.34842000  1.0
  C  C38  1  0.02576000  0.39522000  0.48406000  1.0
  C  C39  1  0.99060000  0.26122000  0.10318000  1.0
  C  C40  1  0.01172000  0.16064000  0.15532000  1.0
  C  C41  1  0.00719000  0.28218000  0.46844000  1.0
  C  C42  1  0.92727000  0.18146000  0.22440000  1.0
  C  C43  1  0.99953000  0.96476000  0.55438000  1.0
  C  C44  1  0.06570000  0.97974000  0.25226000  1.0
  C  C45  1  0.95625000  0.09090000  0.27360000  1.0
  C  C46  1  0.12241000  0.04924000  0.13534000  1.0
  C  C47  1  0.18409000  0.39708000  0.48454000  1.0
  C  C48  1  0.14611000  0.95798000  0.18300000  1.0
  C  C49  1  0.95410000  0.00000000  1.00000000  1.0
  C  C50  1  0.63530000  0.00000000  0.00000000  1.0
  C  C51  1  0.20410000  0.50000000  0.50000000  1.0
  C  C52  1  0.88530000  0.50000000  0.50000000  1.0
  O  O1  1  0.35111000  0.53514000  0.01644000  1.0
  O  O2  1  0.55777000  0.26274000  0.54152000  1.0
  O  O3  1  0.27497000  0.43886000  0.89400000  1.0
  O  O4  1  0.16764000  0.31312000  0.86860000  1.0
  O  O5  1  0.13309000  0.47210000  0.04812000  1.0
  O  O6  1  0.51362000  0.13616000  0.62640000  1.0
  O  O7  1  0.58619000  0.30358000  0.94624000  1.0
  O  O8  1  0.38998000  0.22076000  0.97868000  1.0
  O  O9  1  0.90269000  0.46486000  0.98356000  1.0
  O  O10  1  0.36203000  0.73726000  0.45848000  1.0
  O  O11  1  0.60783000  0.56114000  0.10600000  1.0
  O  O12  1  0.34936000  0.68688000  0.13140000  1.0
  O  O13  1  0.65331000  0.52790000  0.95188000  1.0
  O  O14  1  0.27618000  0.86384000  0.37360000  1.0
  O  O15  1  0.83601000  0.69642000  0.05376000  1.0
  O  O16  1  0.58942000  0.77924000  0.02132000  1.0
  O  O17  1  0.61755000  0.03514000  0.48356000  1.0
  O  O18  1  0.34929000  0.76274000  0.95848000  1.0
  O  O19  1  0.41897000  0.93886000  0.60600000  1.0
  O  O20  1  0.28624000  0.81312000  0.63140000  1.0
  O  O21  1  0.43121000  0.97210000  0.45188000  1.0
  O  O22  1  0.39002000  0.63616000  0.87360000  1.0
  O  O23  1  0.78243000  0.80358000  0.55376000  1.0
  O  O24  1  0.61866000  0.72076000  0.52132000  1.0
  O  O25  1  0.13625000  0.96486000  0.51644000  1.0
  O  O26  1  0.07051000  0.23726000  0.04152000  1.0
  O  O27  1  0.96383000  0.06114000  0.39400000  1.0
  O  O28  1  0.73076000  0.18688000  0.36860000  1.0
  O  O29  1  0.85519000  0.02790000  0.54812000  1.0
  O  O30  1  0.89978000  0.36384000  0.12640000  1.0
  O  O31  1  0.13977000  0.19642000  0.44624000  1.0
  O  O32  1  0.86074000  0.27924000  0.47868000  1.0
