# generated using pymatgen
data_Zn2H36(C5N2)9
_symmetry_space_group_name_H-M   'P 1'
_cell_length_a   20.53745000
_cell_length_b   21.34843000
_cell_length_c   22.31176000
_cell_angle_alpha   110.49331000
_cell_angle_beta   89.97668000
_cell_angle_gamma   89.98255000
_symmetry_Int_Tables_number   1
_chemical_formula_structural   Zn2H36(C5N2)9
_chemical_formula_sum   'Zn8 H144 C180 N72'
_cell_volume   9163.31860404
_cell_formula_units_Z   4
loop_
 _symmetry_equiv_pos_site_id
 _symmetry_equiv_pos_as_xyz
  1  'x, y, z'
loop_
 _atom_site_type_symbol
 _atom_site_label
 _atom_site_symmetry_multiplicity
 _atom_site_fract_x
 _atom_site_fract_y
 _atom_site_fract_z
 _atom_site_occupancy
  Zn  Zn0  1  0.33895000  0.86196000  0.05590000  1
  Zn  Zn1  1  0.13721000  0.39648000  0.26063000  1
  Zn  Zn2  1  0.83868000  0.13773000  0.44398000  1
  Zn  Zn3  1  0.63752000  0.60365000  0.23943000  1
  Zn  Zn4  1  0.66265000  0.13779000  0.94357000  1
  Zn  Zn5  1  0.86274000  0.60344000  0.73923000  1
  Zn  Zn6  1  0.16281000  0.86255000  0.55626000  1
  Zn  Zn7  1  0.36272000  0.39597000  0.76031000  1
  H  H8  1  0.55328000  0.69310000  0.05636000  1
  H  H9  1  0.75248000  0.66031000  0.98360000  1
  H  H10  1  0.60766000  0.74579000  0.89343000  1
  H  H11  1  0.49319000  0.80705000  0.06737000  1
  H  H12  1  0.37558000  0.76551000  0.90320000  1
  H  H13  1  0.49215000  0.69517000  0.86903000  1
  H  H14  1  0.58346000  0.63500000  0.11322000  1
  H  H15  1  0.77289000  0.62544000  0.18324000  1
  H  H16  1  0.78238000  0.66876000  0.08109000  1
  H  H17  1  0.78107000  0.60394000  0.86773000  1
  H  H18  1  0.80480000  0.74769000  0.77881000  1
  H  H19  1  0.70496000  0.78921000  0.86843000  1
  H  H20  1  0.44241000  0.99148000  0.90959000  1
  H  H21  1  0.42970000  0.01121000  0.72177000  1
  H  H22  1  0.26974000  0.92546000  0.79191000  1
  H  H23  1  0.41189000  0.90187000  0.94533000  1
  H  H24  1  0.21217000  0.89877000  0.98904000  1
  H  H25  1  0.22527000  0.94563000  0.88814000  1
  H  H26  1  0.51919000  0.06895000  0.93164000  1
  H  H27  1  0.64689000  0.08520000  0.78981000  1
  H  H28  1  0.53209000  0.02759000  0.73118000  1
  H  H29  1  0.27535000  0.86208000  0.66869000  1
  H  H30  1  0.24440000  0.00957000  0.58626000  1
  H  H31  1  0.32456000  0.06189000  0.69354000  1
  H  H32  1  0.19684000  0.64682000  0.16664000  1
  H  H33  1  0.32931000  0.57245000  0.27809000  1
  H  H34  1  0.40270000  0.69615000  0.17545000  1
  H  H35  1  0.36545000  0.78039000  0.14828000  1
  H  H36  1  0.21803000  0.75031000  0.00951000  1
  H  H37  1  0.20201000  0.65758000  0.06914000  1
  H  H38  1  0.25842000  0.48681000  0.25076000  1
  H  H39  1  0.05632000  0.52668000  0.26116000  1
  H  H40  1  0.12041000  0.62829000  0.23506000  1
  H  H41  1  0.49399000  0.62555000  0.17406000  1
  H  H42  1  0.54710000  0.62215000  0.35581000  1
  H  H43  1  0.41252000  0.63345000  0.35079000  1
  H  H44  1  0.05299000  0.30759000  0.44399000  1
  H  H45  1  0.25237000  0.33961000  0.51642000  1
  H  H46  1  0.10722000  0.25414000  0.60633000  1
  H  H47  1  0.99293000  0.19319000  0.43262000  1
  H  H48  1  0.87555000  0.23503000  0.59718000  1
  H  H49  1  0.99228000  0.30499000  0.63087000  1
  H  H50  1  0.08350000  0.36490000  0.38712000  1
  H  H51  1  0.27247000  0.37426000  0.31619000  1
  H  H52  1  0.28277000  0.33154000  0.41861000  1
  H  H53  1  0.28109000  0.39608000  0.63248000  1
  H  H54  1  0.30530000  0.25135000  0.72017000  1
  H  H55  1  0.20481000  0.21085000  0.63130000  1
  H  H56  1  0.94233000  0.00847000  0.59016000  1
  H  H57  1  0.92991000  0.98865000  0.77788000  1
  H  H58  1  0.76994000  0.07509000  0.70811000  1
  H  H59  1  0.91121000  0.09838000  0.55505000  1
  H  H60  1  0.71149000  0.10099000  0.51116000  1
  H  H61  1  0.72466000  0.05425000  0.61202000  1
  H  H62  1  0.01901000  0.93079000  0.56859000  1
  H  H63  1  0.14682000  0.91434000  0.71013000  1
  H  H64  1  0.03246000  0.97279000  0.76909000  1
  H  H65  1  0.77526000  0.13803000  0.83155000  1
  H  H66  1  0.74421000  0.99026000  0.91360000  1
  H  H67  1  0.82461000  0.93813000  0.80653000  1
  H  H68  1  0.69687000  0.35323000  0.33316000  1
  H  H69  1  0.82967000  0.42833000  0.22244000  1
  H  H70  1  0.90290000  0.30363000  0.32412000  1
  H  H71  1  0.86520000  0.21955000  0.35124000  1
  H  H72  1  0.71805000  0.24929000  0.49030000  1
  H  H73  1  0.70183000  0.34266000  0.43143000  1
  H  H74  1  0.75817000  0.51328000  0.24946000  1
  H  H75  1  0.55625000  0.47296000  0.23855000  1
  H  H76  1  0.62044000  0.37153000  0.26488000  1
  H  H77  1  0.99419000  0.37462000  0.32576000  1
  H  H78  1  0.04703000  0.37713000  0.14354000  1
  H  H79  1  0.91236000  0.36620000  0.14904000  1
  H  H80  1  0.44716000  0.30732000  0.94379000  1
  H  H81  1  0.24776000  0.33967000  0.01622000  1
  H  H82  1  0.39300000  0.25424000  0.10636000  1
  H  H83  1  0.50633000  0.19279000  0.93259000  1
  H  H84  1  0.62445000  0.23458000  0.09648000  1
  H  H85  1  0.50776000  0.30494000  0.13055000  1
  H  H86  1  0.41684000  0.36422000  0.88682000  1
  H  H87  1  0.22790000  0.37399000  0.81581000  1
  H  H88  1  0.21752000  0.33126000  0.91824000  1
  H  H89  1  0.21940000  0.39649000  0.13308000  1
  H  H90  1  0.19495000  0.25190000  0.22085000  1
  H  H91  1  0.29523000  0.21087000  0.13178000  1
  H  H92  1  0.55744000  0.00951000  0.09090000  1
  H  H93  1  0.57027000  0.98911000  0.27823000  1
  H  H94  1  0.73067000  0.07431000  0.20805000  1
  H  H95  1  0.58882000  0.09781000  0.05483000  1
  H  H96  1  0.78835000  0.10035000  0.01076000  1
  H  H97  1  0.77549000  0.05425000  0.11207000  1
  H  H98  1  0.48188000  0.93098000  0.06892000  1
  H  H99  1  0.35377000  0.91461000  0.21049000  1
  H  H100  1  0.46833000  0.97213000  0.26922000  1
  H  H101  1  0.72488000  0.13840000  0.33196000  1
  H  H102  1  0.75651000  0.99032000  0.41364000  1
  H  H103  1  0.67579000  0.93849000  0.30677000  1
  H  H104  1  0.80333000  0.35316000  0.83284000  1
  H  H105  1  0.66988000  0.42813000  0.72234000  1
  H  H106  1  0.59751000  0.30319000  0.82414000  1
  H  H107  1  0.63484000  0.22043000  0.85167000  1
  H  H108  1  0.78220000  0.24954000  0.99050000  1
  H  H109  1  0.79833000  0.34281000  0.93150000  1
  H  H110  1  0.74160000  0.51383000  0.74964000  1
  H  H111  1  0.94356000  0.47366000  0.73898000  1
  H  H112  1  0.87947000  0.37162000  0.76430000  1
  H  H113  1  0.50611000  0.37460000  0.82581000  1
  H  H114  1  0.45294000  0.37722000  0.64374000  1
  H  H115  1  0.58765000  0.36644000  0.64909000  1
  H  H116  1  0.94719000  0.69229000  0.55601000  1
  H  H117  1  0.74776000  0.66026000  0.48361000  1
  H  H118  1  0.89293000  0.74598000  0.39375000  1
  H  H119  1  0.00694000  0.80702000  0.56759000  1
  H  H120  1  0.12444000  0.76543000  0.40319000  1
  H  H121  1  0.00778000  0.69502000  0.36951000  1
  H  H122  1  0.91712000  0.63554000  0.61267000  1
  H  H123  1  0.72856000  0.62588000  0.68433000  1
  H  H124  1  0.71766000  0.66849000  0.58178000  1
  H  H125  1  0.71938000  0.60386000  0.36757000  1
  H  H126  1  0.69488000  0.74840000  0.27965000  1
  H  H127  1  0.79535000  0.78920000  0.36847000  1
  H  H128  1  0.05755000  0.99052000  0.40923000  1
  H  H129  1  0.07034000  0.01066000  0.22172000  1
  H  H130  1  0.23100000  0.92589000  0.29226000  1
  H  H131  1  0.08870000  0.90187000  0.44502000  1
  H  H132  1  0.28844000  0.89898000  0.48906000  1
  H  H133  1  0.27543000  0.94577000  0.38816000  1
  H  H134  1  0.98154000  0.06965000  0.43141000  1
  H  H135  1  0.85382000  0.08521000  0.28934000  1
  H  H136  1  0.96847000  0.02734000  0.23092000  1
  H  H137  1  0.22482000  0.86142000  0.16791000  1
  H  H138  1  0.25587000  0.00941000  0.08610000  1
  H  H139  1  0.17580000  0.06147000  0.19347000  1
  H  H140  1  0.30313000  0.64654000  0.66675000  1
  H  H141  1  0.17006000  0.57296000  0.77857000  1
  H  H142  1  0.09743000  0.69705000  0.67608000  1
  H  H143  1  0.13450000  0.78013000  0.64862000  1
  H  H144  1  0.28165000  0.75013000  0.50947000  1
  H  H145  1  0.29806000  0.65728000  0.56914000  1
  H  H146  1  0.24146000  0.48703000  0.75099000  1
  H  H147  1  0.44361000  0.52595000  0.76059000  1
  H  H148  1  0.37987000  0.62858000  0.73606000  1
  H  H149  1  0.00610000  0.62576000  0.67406000  1
  H  H150  1  0.95250000  0.62232000  0.85582000  1
  H  H151  1  0.08723000  0.63214000  0.85042000  1
  C  C152  1  0.57618000  0.72124000  0.97506000  1
  C  C153  1  0.59109000  0.69746000  0.02415000  1
  C  C154  1  0.65762000  0.67818000  0.02930000  1
  C  C155  1  0.70292000  0.67769000  0.98205000  1
  C  C156  1  0.68529000  0.70005000  0.93271000  1
  C  C157  1  0.62132000  0.72546000  0.92983000  1
  C  C158  1  0.47510000  0.78579000  0.01897000  1
  C  C159  1  0.41725000  0.76382000  0.93235000  1
  C  C160  1  0.47447000  0.72897000  0.91449000  1
  C  C161  1  0.63512000  0.64175000  0.12110000  1
  C  C162  1  0.73463000  0.63347000  0.15338000  1
  C  C163  1  0.74016000  0.65441000  0.10201000  1
  C  C164  1  0.77666000  0.64953000  0.85736000  1
  C  C165  1  0.78573000  0.72478000  0.81141000  1
  C  C166  1  0.73555000  0.74529000  0.85447000  1
  C  C167  1  0.35515000  0.95455000  0.85586000  1
  C  C168  1  0.41632000  0.98448000  0.86525000  1
  C  C169  1  0.44436000  0.00613000  0.81829000  1
  C  C170  1  0.40927000  0.99711000  0.76008000  1
  C  C171  1  0.34744000  0.96916000  0.75366000  1
  C  C172  1  0.31813000  0.94701000  0.79939000  1
  C  C173  1  0.35999000  0.90993000  0.94567000  1
  C  C174  1  0.25551000  0.90648000  0.96483000  1
  C  C175  1  0.26122000  0.92908000  0.91453000  1
  C  C176  1  0.53913000  0.06373000  0.88549000  1
  C  C177  1  0.60300000  0.07353000  0.81064000  1
  C  C178  1  0.54624000  0.04476000  0.78081000  1
  C  C179  1  0.27638000  0.90889000  0.66010000  1
  C  C180  1  0.26262000  0.98669000  0.61925000  1
  C  C181  1  0.30275000  0.01318000  0.67131000  1
  C  C182  1  0.29771000  0.67368000  0.16548000  1
  C  C183  1  0.24555000  0.64321000  0.18412000  1
  C  C184  1  0.25632000  0.60608000  0.22460000  1
  C  C185  1  0.32037000  0.60142000  0.24757000  1
  C  C186  1  0.37092000  0.63510000  0.23045000  1
  C  C187  1  0.36221000  0.67155000  0.18914000  1
  C  C188  1  0.32472000  0.75907000  0.11740000  1
  C  C189  1  0.24625000  0.74322000  0.04752000  1
  C  C190  1  0.23680000  0.69760000  0.07755000  1
  C  C191  1  0.21265000  0.51239000  0.25344000  1
  C  C192  1  0.10783000  0.53343000  0.25528000  1
  C  C193  1  0.13875000  0.58349000  0.24094000  1
  C  C194  1  0.49190000  0.62731000  0.22295000  1
  C  C195  1  0.51616000  0.62381000  0.31715000  1
  C  C196  1  0.44964000  0.62892000  0.31525000  1
  C  C197  1  0.07601000  0.27881000  0.52482000  1
  C  C198  1  0.09095000  0.30268000  0.47578000  1
  C  C199  1  0.15759000  0.32187000  0.47076000  1
  C  C200  1  0.20277000  0.32236000  0.51803000  1
  C  C201  1  0.18509000  0.30006000  0.56741000  1
  C  C202  1  0.12105000  0.27463000  0.57010000  1
  C  C203  1  0.97478000  0.21438000  0.48105000  1
  C  C204  1  0.91713000  0.23648000  0.56783000  1
  C  C205  1  0.97437000  0.27123000  0.58547000  1
  C  C206  1  0.13513000  0.35814000  0.37903000  1
  C  C207  1  0.23443000  0.36645000  0.34638000  1
  C  C208  1  0.24028000  0.34557000  0.39780000  1
  C  C209  1  0.27673000  0.35032000  0.64252000  1
  C  C210  1  0.28602000  0.27468000  0.68800000  1
  C  C211  1  0.23555000  0.25460000  0.64532000  1
  C  C212  1  0.85500000  0.04533000  0.64402000  1
  C  C213  1  0.91629000  0.01552000  0.63452000  1
  C  C214  1  0.94450000  0.99419000  0.68170000  1
  C  C215  1  0.90939000  0.00313000  0.73984000  1
  C  C216  1  0.84750000  0.03100000  0.74639000  1
  C  C217  1  0.81818000  0.05310000  0.70061000  1
  C  C218  1  0.85932000  0.09008000  0.55439000  1
  C  C219  1  0.75484000  0.09335000  0.53530000  1
  C  C220  1  0.76066000  0.07056000  0.58554000  1
  C  C221  1  0.03925000  0.93632000  0.61465000  1
  C  C222  1  0.10302000  0.92628000  0.68939000  1
  C  C223  1  0.04642000  0.95552000  0.71938000  1
  C  C224  1  0.77643000  0.09119000  0.84004000  1
  C  C225  1  0.76262000  0.01328000  0.88079000  1
  C  C226  1  0.80287000  0.98689000  0.82876000  1
  C  C227  1  0.79778000  0.32660000  0.33466000  1
  C  C228  1  0.74567000  0.35704000  0.31590000  1
  C  C229  1  0.75634000  0.39397000  0.27528000  1
  C  C230  1  0.82050000  0.39896000  0.25258000  1
  C  C231  1  0.87095000  0.36506000  0.26958000  1
  C  C232  1  0.86233000  0.32843000  0.31074000  1
  C  C233  1  0.82460000  0.24101000  0.38239000  1
  C  C234  1  0.74619000  0.25668000  0.45234000  1
  C  C235  1  0.73675000  0.30260000  0.42266000  1
  C  C236  1  0.71250000  0.48749000  0.24640000  1
  C  C237  1  0.60774000  0.46637000  0.24451000  1
  C  C238  1  0.63870000  0.41624000  0.25881000  1
  C  C239  1  0.99196000  0.37261000  0.27679000  1
  C  C240  1  0.01612000  0.37571000  0.18237000  1
  C  C241  1  0.94964000  0.37060000  0.18442000  1
  C  C242  1  0.42390000  0.27882000  0.02479000  1
  C  C243  1  0.40919000  0.30273000  0.97573000  1
  C  C244  1  0.34252000  0.32199000  0.97074000  1
  C  C245  1  0.29737000  0.32246000  0.01801000  1
  C  C246  1  0.31492000  0.30015000  0.06745000  1
  C  C247  1  0.37895000  0.27461000  0.07009000  1
  C  C248  1  0.52481000  0.21390000  0.98088000  1
  C  C249  1  0.58280000  0.23608000  0.06734000  1
  C  C250  1  0.52558000  0.27111000  0.08521000  1
  C  C251  1  0.36515000  0.35811000  0.87897000  1
  C  C252  1  0.26586000  0.36632000  0.84613000  1
  C  C253  1  0.25994000  0.34553000  0.89761000  1
  C  C254  1  0.22348000  0.35053000  0.14283000  1
  C  C255  1  0.21423000  0.27504000  0.18849000  1
  C  C256  1  0.26457000  0.25474000  0.14564000  1
  C  C257  1  0.64525000  0.04545000  0.14431000  1
  C  C258  1  0.58377000  0.01610000  0.13504000  1
  C  C259  1  0.55588000  0.99449000  0.18210000  1
  C  C260  1  0.59094000  0.00348000  0.24024000  1
  C  C261  1  0.65282000  0.03134000  0.24682000  1
  C  C262  1  0.68222000  0.05293000  0.20077000  1
  C  C263  1  0.64073000  0.08992000  0.05440000  1
  C  C264  1  0.74508000  0.09307000  0.03514000  1
  C  C265  1  0.73946000  0.07064000  0.08564000  1
  C  C266  1  0.46149000  0.93639000  0.11490000  1
  C  C267  1  0.39761000  0.92620000  0.18961000  1
  C  C268  1  0.45426000  0.95525000  0.21959000  1
  C  C269  1  0.72397000  0.09150000  0.34037000  1
  C  C270  1  0.73795000  0.01339000  0.38092000  1
  C  C271  1  0.69764000  0.98713000  0.32894000  1
  C  C272  1  0.70252000  0.32653000  0.83453000  1
  C  C273  1  0.75451000  0.35697000  0.81561000  1
  C  C274  1  0.74357000  0.39419000  0.77528000  1
  C  C275  1  0.67932000  0.39900000  0.75263000  1
  C  C276  1  0.62910000  0.36478000  0.76950000  1
  C  C277  1  0.63786000  0.32821000  0.81070000  1
  C  C278  1  0.67555000  0.24147000  0.88271000  1
  C  C279  1  0.75400000  0.25697000  0.95260000  1
  C  C280  1  0.76346000  0.30278000  0.92282000  1
  C  C281  1  0.78719000  0.48784000  0.74641000  1
  C  C282  1  0.89210000  0.46683000  0.74469000  1
  C  C283  1  0.86111000  0.41651000  0.75874000  1
  C  C284  1  0.50817000  0.37254000  0.77684000  1
  C  C285  1  0.48392000  0.37573000  0.68247000  1
  C  C286  1  0.55043000  0.37056000  0.68443000  1
  C  C287  1  0.92407000  0.72123000  0.47526000  1
  C  C288  1  0.90926000  0.69714000  0.52415000  1
  C  C289  1  0.84260000  0.67787000  0.52908000  1
  C  C290  1  0.79740000  0.67749000  0.48191000  1
  C  C291  1  0.81507000  0.69998000  0.43264000  1
  C  C292  1  0.87909000  0.72552000  0.43002000  1
  C  C293  1  0.02509000  0.78599000  0.51915000  1
  C  C294  1  0.08291000  0.76384000  0.43248000  1
  C  C295  1  0.02568000  0.72889000  0.41477000  1
  C  C296  1  0.86548000  0.64188000  0.62077000  1
  C  C297  1  0.76630000  0.63360000  0.65381000  1
  C  C298  1  0.76020000  0.65433000  0.60236000  1
  C  C299  1  0.72364000  0.64957000  0.35739000  1
  C  C300  1  0.71424000  0.72510000  0.31183000  1
  C  C301  1  0.76470000  0.74536000  0.35453000  1
  C  C302  1  0.14537000  0.95449000  0.35587000  1
  C  C303  1  0.08389000  0.98394000  0.36509000  1
  C  C304  1  0.05591000  0.00561000  0.31816000  1
  C  C305  1  0.09098000  0.99649000  0.25989000  1
  C  C306  1  0.15295000  0.96873000  0.25349000  1
  C  C307  1  0.18246000  0.94718000  0.29947000  1
  C  C308  1  0.14064000  0.90983000  0.44557000  1
  C  C309  1  0.24516000  0.90650000  0.46474000  1
  C  C310  1  0.23944000  0.92917000  0.41441000  1
  C  C311  1  0.96132000  0.06393000  0.38532000  1
  C  C312  1  0.89759000  0.07367000  0.31037000  1
  C  C313  1  0.95430000  0.04461000  0.28058000  1
  C  C314  1  0.22385000  0.90838000  0.15961000  1
  C  C315  1  0.23767000  0.98639000  0.11897000  1
  C  C316  1  0.19754000  0.01279000  0.17118000  1
  C  C317  1  0.20231000  0.67369000  0.66570000  1
  C  C318  1  0.25439000  0.64309000  0.68434000  1
  C  C319  1  0.24362000  0.60624000  0.72502000  1
  C  C320  1  0.17940000  0.60151000  0.74774000  1
  C  C321  1  0.12892000  0.63517000  0.73047000  1
  C  C322  1  0.13769000  0.67180000  0.68936000  1
  C  C323  1  0.17530000  0.75897000  0.61766000  1
  C  C324  1  0.25365000  0.74302000  0.54766000  1
  C  C325  1  0.26320000  0.69744000  0.57759000  1
  C  C326  1  0.28729000  0.51240000  0.75353000  1
  C  C327  1  0.39211000  0.53302000  0.75508000  1
  C  C328  1  0.36133000  0.58357000  0.74132000  1
  C  C329  1  0.00800000  0.62741000  0.72294000  1
  C  C330  1  0.98362000  0.62370000  0.81713000  1
  C  C331  1  0.05012000  0.62852000  0.81510000  1
  N  N332  1  0.41826000  0.79959000  0.99737000  1
  N  N333  1  0.51094000  0.74290000  0.97012000  1
  N  N334  1  0.66997000  0.62517000  0.16520000  1
  N  N335  1  0.67654000  0.65922000  0.08062000  1
  N  N336  1  0.81136000  0.66573000  0.81328000  1
  N  N337  1  0.73061000  0.69798000  0.88470000  1
  N  N338  1  0.31667000  0.89472000  0.98393000  1
  N  N339  1  0.32787000  0.93256000  0.90307000  1
  N  N340  1  0.59855000  0.08559000  0.87518000  1
  N  N341  1  0.50550000  0.03694000  0.82836000  1
  N  N342  1  0.24666000  0.92164000  0.61242000  1
  N  N343  1  0.31118000  0.96320000  0.69711000  1
  N  N344  1  0.30073000  0.78111000  0.07215000  1
  N  N345  1  0.28666000  0.70825000  0.12277000  1
  N  N346  1  0.15320000  0.48943000  0.26313000  1
  N  N347  1  0.20579000  0.56985000  0.23889000  1
  N  N348  1  0.54230000  0.62252000  0.25960000  1
  N  N349  1  0.43432000  0.63082000  0.25494000  1
  N  N350  1  0.91799000  0.20063000  0.50279000  1
  N  N351  1  0.01074000  0.25722000  0.52978000  1
  N  N352  1  0.16972000  0.37470000  0.33477000  1
  N  N353  1  0.17669000  0.34067000  0.41935000  1
  N  N354  1  0.31168000  0.33373000  0.68620000  1
  N  N355  1  0.23042000  0.30211000  0.61536000  1
  N  N356  1  0.81599000  0.10534000  0.51624000  1
  N  N357  1  0.82739000  0.06710000  0.59680000  1
  N  N358  1  0.09855000  0.91410000  0.62484000  1
  N  N359  1  0.00572000  0.96346000  0.67183000  1
  N  N360  1  0.74665000  0.07836000  0.88765000  1
  N  N361  1  0.81133000  0.03690000  0.80299000  1
  N  N362  1  0.80059000  0.21871000  0.42745000  1
  N  N363  1  0.78657000  0.29202000  0.37730000  1
  N  N364  1  0.65306000  0.51047000  0.23678000  1
  N  N365  1  0.70570000  0.42998000  0.26087000  1
  N  N366  1  0.04229000  0.37733000  0.24000000  1
  N  N367  1  0.93437000  0.36919000  0.24493000  1
  N  N368  1  0.58166000  0.20005000  0.00234000  1
  N  N369  1  0.48908000  0.25690000  0.02965000  1
  N  N370  1  0.33061000  0.37459000  0.83465000  1
  N  N371  1  0.32349000  0.34078000  0.91931000  1
  N  N372  1  0.18861000  0.33413000  0.18667000  1
  N  N373  1  0.26966000  0.30215000  0.11549000  1
  N  N374  1  0.68396000  0.10500000  0.01602000  1
  N  N375  1  0.67274000  0.06736000  0.09710000  1
  N  N376  1  0.40209000  0.91428000  0.12507000  1
  N  N377  1  0.49493000  0.96332000  0.17211000  1
  N  N378  1  0.75386000  0.07849000  0.38783000  1
  N  N379  1  0.68911000  0.03720000  0.30331000  1
  N  N380  1  0.69956000  0.21911000  0.92778000  1
  N  N381  1  0.71374000  0.29220000  0.87740000  1
  N  N382  1  0.84670000  0.51081000  0.73691000  1
  N  N383  1  0.79406000  0.43021000  0.76073000  1
  N  N384  1  0.45782000  0.37730000  0.74014000  1
  N  N385  1  0.56570000  0.36894000  0.74484000  1
  N  N386  1  0.08187000  0.79978000  0.49751000  1
  N  N387  1  0.98924000  0.74312000  0.47041000  1
  N  N388  1  0.83107000  0.62542000  0.66517000  1
  N  N389  1  0.82366000  0.65914000  0.58052000  1
  N  N390  1  0.68864000  0.66601000  0.31364000  1
  N  N391  1  0.76982000  0.69791000  0.38461000  1
  N  N392  1  0.18401000  0.89462000  0.48379000  1
  N  N393  1  0.17273000  0.93255000  0.40302000  1
  N  N394  1  0.90193000  0.08588000  0.37495000  1
  N  N395  1  0.99489000  0.03671000  0.32817000  1
  N  N396  1  0.25358000  0.92126000  0.11200000  1
  N  N397  1  0.18920000  0.96275000  0.19689000  1
  N  N398  1  0.19927000  0.78108000  0.57241000  1
  N  N399  1  0.21345000  0.70818000  0.62297000  1
  N  N400  1  0.34667000  0.48906000  0.76281000  1
  N  N401  1  0.29420000  0.57017000  0.73950000  1
  N  N402  1  0.95759000  0.62264000  0.75961000  1
  N  N403  1  0.06550000  0.63071000  0.75491000  1
