# generated using pymatgen
data_Cu3H21WC27S3BrN7
_symmetry_space_group_name_H-M   'P 1'
_cell_length_a   9.46930000
_cell_length_b   19.36674000
_cell_length_c   22.85449000
_cell_angle_alpha   80.53071000
_cell_angle_beta   78.14832000
_cell_angle_gamma   75.94768000
_symmetry_Int_Tables_number   1
_chemical_formula_structural   Cu3H21WC27S3BrN7
_chemical_formula_sum   'Cu12 H84 W4 C108 S12 Br4 N28'
_cell_volume   3950.05110665
_cell_formula_units_Z   4
loop_
 _symmetry_equiv_pos_site_id
 _symmetry_equiv_pos_as_xyz
  1  'x, y, z'
loop_
 _atom_site_type_symbol
 _atom_site_label
 _atom_site_symmetry_multiplicity
 _atom_site_fract_x
 _atom_site_fract_y
 _atom_site_fract_z
 _atom_site_occupancy
  Cu  Cu0  1  0.83588000  0.77052000  0.53607000  1
  Cu  Cu1  1  0.85023000  0.92106000  0.63460000  1
  Cu  Cu2  1  0.90913000  0.72979000  0.69575000  1
  Cu  Cu3  1  0.35679000  0.27113000  0.03628000  1
  Cu  Cu4  1  0.09564000  0.42274000  0.13439000  1
  Cu  Cu5  1  0.16552000  0.23028000  0.19293000  1
  Cu  Cu6  1  0.64321000  0.72887000  0.96372000  1
  Cu  Cu7  1  0.90436000  0.57725000  0.86561000  1
  Cu  Cu8  1  0.83449000  0.76972000  0.80707000  1
  Cu  Cu9  1  0.16412000  0.22948000  0.46393000  1
  Cu  Cu10  1  0.14978000  0.07894000  0.36540000  1
  Cu  Cu11  1  0.09087000  0.27020000  0.30425000  1
  H  H12  1  0.00632000  0.98307000  0.20343000  1
  H  H13  1  0.92951000  0.87118000  0.25397000  1
  H  H14  1  0.49120000  0.99365000  0.31181000  1
  H  H15  1  0.56856000  0.10491000  0.26432000  1
  H  H16  1  0.05806000  0.08674000  0.23425000  1
  H  H17  1  0.83568000  0.28214000  0.15107000  1
  H  H18  1  0.09101000  0.85450000  0.52074000  1
  H  H19  1  0.15543000  0.93921000  0.66910000  1
  H  H20  1  0.42368000  0.91003000  0.59244000  1
  H  H21  1  0.50407000  0.94665000  0.49596000  1
  H  H22  1  0.30209000  0.78394000  0.46179000  1
  H  H23  1  0.46168000  0.77870000  0.36167000  1
  H  H24  1  0.67351000  0.93621000  0.39914000  1
  H  H25  1  0.89652000  0.53984000  0.06232000  1
  H  H26  1  0.02845000  0.55317000  0.22474000  1
  H  H27  1  0.73939000  0.66753000  0.10438000  1
  H  H28  1  0.84905000  0.61888000  0.29749000  1
  H  H29  1  0.76067000  0.76291000  0.13706000  1
  H  H30  1  0.66737000  0.86312000  0.19771000  1
  H  H31  1  0.76446000  0.72098000  0.35764000  1
  H  H32  1  0.65360000  0.18522000  0.17302000  1
  H  H33  1  0.30686000  0.48271000  0.70270000  1
  H  H34  1  0.44484000  0.37083000  0.75320000  1
  H  H35  1  0.70297000  0.49349000  0.81160000  1
  H  H36  1  0.56202000  0.60468000  0.76421000  1
  H  H37  1  0.12057000  0.58596000  0.73482000  1
  H  H38  1  0.22841000  0.78206000  0.65201000  1
  H  H39  1  0.03374000  0.35479000  0.02054000  1
  H  H40  1  0.73885000  0.43916000  0.16925000  1
  H  H41  1  0.57491000  0.41076000  0.09245000  1
  H  H42  1  0.55357000  0.44687000  0.99561000  1
  H  H43  1  0.95148000  0.28439000  0.96177000  1
  H  H44  1  0.89682000  0.27888000  0.86165000  1
  H  H45  1  0.49107000  0.43617000  0.89871000  1
  H  H46  1  0.00150000  0.03946000  0.56234000  1
  H  H47  1  0.69444000  0.05188000  0.72457000  1
  H  H48  1  0.98753000  0.16741000  0.60451000  1
  H  H49  1  0.73550000  0.11837000  0.79741000  1
  H  H50  1  0.83763000  0.26269000  0.63693000  1
  H  H51  1  0.76909000  0.36300000  0.69750000  1
  H  H52  1  0.65704000  0.22060000  0.85747000  1
  H  H53  1  0.48648000  0.68539000  0.67260000  1
  H  H54  1  0.69314000  0.51728000  0.29730000  1
  H  H55  1  0.55516000  0.62917000  0.24680000  1
  H  H56  1  0.29703000  0.50650000  0.18840000  1
  H  H57  1  0.43799000  0.39531000  0.23579000  1
  H  H58  1  0.87943000  0.41404000  0.26518000  1
  H  H59  1  0.77160000  0.21794000  0.34798000  1
  H  H60  1  0.96627000  0.64521000  0.97946000  1
  H  H61  1  0.26115000  0.56084000  0.83075000  1
  H  H62  1  0.42509000  0.58924000  0.90755000  1
  H  H63  1  0.44644000  0.55313000  0.00439000  1
  H  H64  1  0.04852000  0.71561000  0.03823000  1
  H  H65  1  0.10318000  0.72112000  0.13835000  1
  H  H66  1  0.50894000  0.56383000  0.10129000  1
  H  H67  1  0.99850000  0.96053000  0.43766000  1
  H  H68  1  0.30556000  0.94812000  0.27543000  1
  H  H69  1  0.01247000  0.83258000  0.39549000  1
  H  H70  1  0.26450000  0.88163000  0.20259000  1
  H  H71  1  0.16237000  0.73730000  0.36307000  1
  H  H72  1  0.23091000  0.63699000  0.30250000  1
  H  H73  1  0.34297000  0.77939000  0.14253000  1
  H  H74  1  0.51352000  0.31461000  0.32740000  1
  H  H75  1  0.99368000  0.01693000  0.79657000  1
  H  H76  1  0.07049000  0.12882000  0.74603000  1
  H  H77  1  0.50881000  0.00635000  0.68819000  1
  H  H78  1  0.43144000  0.89508000  0.73568000  1
  H  H79  1  0.94194000  0.91325000  0.76575000  1
  H  H80  1  0.16432000  0.71785000  0.84893000  1
  H  H81  1  0.90899000  0.14550000  0.47926000  1
  H  H82  1  0.84458000  0.06079000  0.33090000  1
  H  H83  1  0.57633000  0.08997000  0.40756000  1
  H  H84  1  0.49593000  0.05335000  0.50404000  1
  H  H85  1  0.69792000  0.21605000  0.53821000  1
  H  H86  1  0.53832000  0.22130000  0.63833000  1
  H  H87  1  0.32649000  0.06378000  0.60086000  1
  H  H88  1  0.10349000  0.46015000  0.93768000  1
  H  H89  1  0.97156000  0.44682000  0.77526000  1
  H  H90  1  0.26061000  0.33246000  0.89562000  1
  H  H91  1  0.15095000  0.38111000  0.70251000  1
  H  H92  1  0.23933000  0.23709000  0.86294000  1
  H  H93  1  0.33263000  0.13688000  0.80229000  1
  H  H94  1  0.23554000  0.27901000  0.64236000  1
  H  H95  1  0.34640000  0.81478000  0.82698000  1
  W  W96  1  0.71243000  0.81839000  0.63840000  1
  W  W97  1  0.33094000  0.31957000  0.13853000  1
  W  W98  1  0.66906000  0.68043000  0.86147000  1
  W  W99  1  0.28757000  0.18161000  0.36160000  1
  C  C100  1  0.70516000  0.92440000  0.28580000  1
  C  C101  1  0.89393000  0.98514000  0.22743000  1
  C  C102  1  0.85069000  0.92235000  0.25546000  1
  C  C103  1  0.60371000  0.99072000  0.28742000  1
  C  C104  1  0.79292000  0.05109000  0.23070000  1
  C  C105  1  0.64735000  0.05381000  0.26037000  1
  C  C106  1  0.97708000  0.12648000  0.21262000  1
  C  C107  1  0.85618000  0.22687000  0.17101000  1
  C  C108  1  0.14358000  0.87287000  0.55127000  1
  C  C109  1  0.18183000  0.91690000  0.62691000  1
  C  C110  1  0.31454000  0.90530000  0.58832000  1
  C  C111  1  0.39011000  0.86722000  0.48480000  1
  C  C112  1  0.49577000  0.90936000  0.46686000  1
  C  C113  1  0.38131000  0.81836000  0.44759000  1
  C  C114  1  0.47254000  0.81482000  0.39140000  1
  C  C115  1  0.59066000  0.90377000  0.41206000  1
  C  C116  1  0.57671000  0.85831000  0.37259000  1
  C  C117  1  0.70924000  0.79922000  0.28186000  1
  C  C118  1  0.90150000  0.56179000  0.10222000  1
  C  C119  1  0.97133000  0.56531000  0.18666000  1
  C  C120  1  0.82217000  0.62482000  0.12275000  1
  C  C121  1  0.81391000  0.68408000  0.21294000  1
  C  C122  1  0.81107000  0.67246000  0.27530000  1
  C  C123  1  0.76220000  0.75313000  0.18521000  1
  C  C124  1  0.70822000  0.80974000  0.21959000  1
  C  C125  1  0.76073000  0.72978000  0.30960000  1
  C  C126  1  0.76410000  0.17958000  0.18197000  1
  C  C127  1  0.58391000  0.42415000  0.78548000  1
  C  C128  1  0.39304000  0.48483000  0.72689000  1
  C  C129  1  0.47093000  0.42204000  0.75492000  1
  C  C130  1  0.61762000  0.49050000  0.78719000  1
  C  C131  1  0.42477000  0.55083000  0.73040000  1
  C  C132  1  0.53800000  0.55359000  0.76018000  1
  C  C133  1  0.18306000  0.62588000  0.71311000  1
  C  C134  1  0.24405000  0.72666000  0.67166000  1
  C  C135  1  0.93282000  0.37340000  0.05109000  1
  C  C136  1  0.77616000  0.41723000  0.12686000  1
  C  C137  1  0.69294000  0.40593000  0.08823000  1
  C  C138  1  0.75775000  0.36765000  0.98466000  1
  C  C139  1  0.62797000  0.40957000  0.96659000  1
  C  C140  1  0.85215000  0.31872000  0.94752000  1
  C  C141  1  0.82040000  0.31498000  0.89133000  1
  C  C142  1  0.59322000  0.40378000  0.91179000  1
  C  C143  1  0.69166000  0.35828000  0.87240000  1
  C  C144  1  0.70850000  0.29898000  0.78167000  1
  C  C145  1  0.93462000  0.06123000  0.60224000  1
  C  C146  1  0.77720000  0.06433000  0.68658000  1
  C  C147  1  0.92967000  0.12443000  0.62278000  1
  C  C148  1  0.78845000  0.18361000  0.71282000  1
  C  C149  1  0.74111000  0.17205000  0.77518000  1
  C  C150  1  0.79787000  0.25281000  0.68506000  1
  C  C151  1  0.76054000  0.30952000  0.71939000  1
  C  C152  1  0.69950000  0.22944000  0.80943000  1
  C  C153  1  0.37291000  0.67949000  0.68191000  1
  C  C154  1  0.41609000  0.57585000  0.21452000  1
  C  C155  1  0.60696000  0.51516000  0.27311000  1
  C  C156  1  0.52907000  0.57796000  0.24508000  1
  C  C157  1  0.38238000  0.50950000  0.21281000  1
  C  C158  1  0.57523000  0.44916000  0.26960000  1
  C  C159  1  0.46201000  0.44641000  0.23982000  1
  C  C160  1  0.81694000  0.37411000  0.28689000  1
  C  C161  1  0.75596000  0.27334000  0.32834000  1
  C  C162  1  0.06719000  0.62660000  0.94891000  1
  C  C163  1  0.22385000  0.58276000  0.87314000  1
  C  C164  1  0.30706000  0.59407000  0.91177000  1
  C  C165  1  0.24226000  0.63235000  0.01534000  1
  C  C166  1  0.37203000  0.59042000  0.03340000  1
  C  C167  1  0.14785000  0.68127000  0.05247000  1
  C  C168  1  0.17961000  0.68501000  0.10867000  1
  C  C169  1  0.40679000  0.59622000  0.08821000  1
  C  C170  1  0.30834000  0.64172000  0.12760000  1
  C  C171  1  0.29150000  0.70102000  0.21833000  1
  C  C172  1  0.06539000  0.93876000  0.39776000  1
  C  C173  1  0.22280000  0.93567000  0.31342000  1
  C  C174  1  0.07033000  0.87556000  0.37722000  1
  C  C175  1  0.21155000  0.81639000  0.28718000  1
  C  C176  1  0.25889000  0.82795000  0.22482000  1
  C  C177  1  0.20214000  0.74718000  0.31494000  1
  C  C178  1  0.23947000  0.69048000  0.28061000  1
  C  C179  1  0.30050000  0.77056000  0.19057000  1
  C  C180  1  0.62710000  0.32051000  0.31809000  1
  C  C181  1  0.29484000  0.07559000  0.71420000  1
  C  C182  1  0.10607000  0.01485000  0.77257000  1
  C  C183  1  0.14931000  0.07765000  0.74454000  1
  C  C184  1  0.39630000  0.00928000  0.71258000  1
  C  C185  1  0.20708000  0.94890000  0.76930000  1
  C  C186  1  0.35266000  0.94619000  0.73963000  1
  C  C187  1  0.02292000  0.87352000  0.78738000  1
  C  C188  1  0.14382000  0.77313000  0.82899000  1
  C  C189  1  0.85642000  0.12712000  0.44873000  1
  C  C190  1  0.81817000  0.08310000  0.37309000  1
  C  C191  1  0.68546000  0.09469000  0.41168000  1
  C  C192  1  0.60989000  0.13277000  0.51520000  1
  C  C193  1  0.50423000  0.09064000  0.53313000  1
  C  C194  1  0.61869000  0.18164000  0.55241000  1
  C  C195  1  0.52746000  0.18518000  0.60860000  1
  C  C196  1  0.40934000  0.09622000  0.58794000  1
  C  C197  1  0.42329000  0.14168000  0.62741000  1
  C  C198  1  0.29076000  0.20077000  0.71814000  1
  C  C199  1  0.09850000  0.43821000  0.89777000  1
  C  C200  1  0.02867000  0.43469000  0.81334000  1
  C  C201  1  0.17783000  0.37517000  0.87725000  1
  C  C202  1  0.18610000  0.31592000  0.78706000  1
  C  C203  1  0.18893000  0.32754000  0.72470000  1
  C  C204  1  0.23780000  0.24687000  0.81479000  1
  C  C205  1  0.29179000  0.19025000  0.78041000  1
  C  C206  1  0.23927000  0.27021000  0.69040000  1
  C  C207  1  0.23590000  0.82041000  0.81803000  1
  S  S208  1  0.75863000  0.88918000  0.55321000  1
  S  S209  1  0.75152000  0.85209000  0.72099000  1
  S  S210  1  0.77032000  0.70318000  0.62623000  1
  S  S211  1  0.29934000  0.39012000  0.05324000  1
  S  S212  1  0.17689000  0.35473000  0.22073000  1
  S  S213  1  0.40227000  0.20428000  0.12605000  1
  S  S214  1  0.70066000  0.60988000  0.94676000  1
  S  S215  1  0.82311000  0.64527000  0.77927000  1
  S  S216  1  0.59773000  0.79571000  0.87395000  1
  S  S217  1  0.24137000  0.11082000  0.44679000  1
  S  S218  1  0.24848000  0.14791000  0.27901000  1
  S  S219  1  0.22968000  0.29682000  0.37377000  1
  Br  Br220  1  0.93305000  0.71751000  0.44857000  1
  Br  Br221  1  0.40483000  0.21833000  0.94835000  1
  Br  Br222  1  0.59518000  0.78167000  0.05165000  1
  Br  Br223  1  0.06695000  0.28249000  0.55143000  1
  N  N224  1  0.07650000  0.89644000  0.60368000  1
  N  N225  1  0.28925000  0.87748000  0.53987000  1
  N  N226  1  0.66331000  0.85959000  0.31426000  1
  N  N227  1  0.99381000  0.52480000  0.14227000  1
  N  N228  1  0.86677000  0.62677000  0.17668000  1
  N  N229  1  0.98846000  0.19331000  0.19058000  1
  N  N230  1  0.84263000  0.11560000  0.20794000  1
  N  N231  1  0.92482000  0.39681000  0.10354000  1
  N  N232  1  0.79376000  0.37817000  0.03968000  1
  N  N233  1  0.66182000  0.35936000  0.81406000  1
  N  N234  1  0.83992000  0.02386000  0.64223000  1
  N  N235  1  0.82949000  0.12614000  0.67666000  1
  N  N236  1  0.12629000  0.69278000  0.69157000  1
  N  N237  1  0.33308000  0.61528000  0.70783000  1
  N  N238  1  0.07518000  0.60319000  0.89646000  1
  N  N239  1  0.20624000  0.62183000  0.96031000  1
  N  N240  1  0.33818000  0.64063000  0.18594000  1
  N  N241  1  0.16008000  0.97614000  0.35777000  1
  N  N242  1  0.17051000  0.87386000  0.32334000  1
  N  N243  1  0.87371000  0.30721000  0.30842000  1
  N  N244  1  0.66692000  0.38472000  0.29217000  1
  N  N245  1  0.92351000  0.10356000  0.39632000  1
  N  N246  1  0.71075000  0.12252000  0.46013000  1
  N  N247  1  0.33669000  0.14041000  0.68574000  1
  N  N248  1  0.00619000  0.47520000  0.85773000  1
  N  N249  1  0.13323000  0.37323000  0.82332000  1
  N  N250  1  0.01154000  0.80669000  0.80942000  1
  N  N251  1  0.15737000  0.88439000  0.79206000  1
