# generated using pymatgen
data_FeH5C5O4
_symmetry_space_group_name_H-M   'P 1'
_cell_length_a   6.78865000
_cell_length_b   15.15929190
_cell_length_c   15.33278000
_cell_angle_alpha   116.38359801
_cell_angle_beta   100.15055000
_cell_angle_gamma   97.80862762
_symmetry_Int_Tables_number   1
_chemical_formula_structural   FeH5C5O4
_chemical_formula_sum   'Fe6 H30 C30 O24'
_cell_volume   1349.76554302
_cell_formula_units_Z   6
loop_
 _symmetry_equiv_pos_site_id
 _symmetry_equiv_pos_as_xyz
  1  'x, y, z'
loop_
 _atom_site_type_symbol
 _atom_site_label
 _atom_site_symmetry_multiplicity
 _atom_site_fract_x
 _atom_site_fract_y
 _atom_site_fract_z
 _atom_site_occupancy
  Fe  Fe0  1  0.60886000  0.59514000  0.32239000  1
  Fe  Fe1  1  0.03708000  0.73578000  0.40739000  1
  Fe  Fe2  1  0.32948000  0.67282000  0.27705000  1
  Fe  Fe3  1  0.39162000  0.40489000  0.67791000  1
  Fe  Fe4  1  0.96166000  0.26362000  0.59115000  1
  Fe  Fe5  1  0.67207000  0.32701000  0.72361000  1
  H  H6  1  0.69362000  0.56552000  0.53667000  1
  H  H7  1  0.87549000  0.47255000  0.26922000  1
  H  H8  1  0.67918000  0.29681000  0.19290000  1
  H  H9  1  0.69561000  0.37473000  0.32446000  1
  H  H10  1  0.47324000  0.35472000  0.22985000  1
  H  H11  1  0.12520000  0.97493000  0.43320000  1
  H  H12  1  0.40866000  0.79275000  0.53258000  1
  H  H13  1  0.38177000  0.89132000  0.70552000  1
  H  H14  1  0.33409000  0.94944000  0.62621000  1
  H  H15  1  0.12307000  0.87969000  0.64285000  1
  H  H16  1  0.15052000  0.45124000  0.01646000  1
  H  H17  1  0.62888000  0.73548000  0.21901000  1
  H  H18  1  0.48808000  0.81451000  0.11801000  1
  H  H19  1  0.39063000  0.67925000  0.06297000  1
  H  H20  1  0.24722000  0.76417000  0.13129000  1
  H  H21  1  0.30528000  0.43303000  0.46118000  1
  H  H22  1  0.12743000  0.52922000  0.73223000  1
  H  H23  1  0.32089000  0.70497000  0.80697000  1
  H  H24  1  0.29542000  0.62772000  0.67428000  1
  H  H25  1  0.52457000  0.64791000  0.76548000  1
  H  H26  1  0.87427000  0.02467000  0.56758000  1
  H  H27  1  0.58802000  0.20525000  0.46635000  1
  H  H28  1  0.61520000  0.10810000  0.29289000  1
  H  H29  1  0.66527000  0.05009000  0.37225000  1
  H  H30  1  0.87471000  0.12055000  0.35577000  1
  H  H31  1  0.84957000  0.54563000  0.98358000  1
  H  H32  1  0.37662000  0.26362000  0.78528000  1
  H  H33  1  0.51683000  0.18645000  0.88596000  1
  H  H34  1  0.62086000  0.32120000  0.94127000  1
  H  H35  1  0.75855000  0.23422000  0.87130000  1
  C  C36  1  0.75756000  0.44177000  0.61074000  1
  C  C37  1  0.88361000  0.46839000  0.55265000  1
  C  C38  1  0.94012000  0.57046000  0.46749000  1
  C  C39  1  0.82874000  0.53716000  0.52044000  1
  C  C40  1  0.64061000  0.36413000  0.24783000  1
  C  C41  1  0.31094000  0.16874000  0.55166000  1
  C  C42  1  0.41232000  0.08412000  0.52772000  1
  C  C43  1  0.37168000  0.89988000  0.43110000  1
  C  C44  1  0.28992000  0.98538000  0.46122000  1
  C  C45  1  0.28197000  0.88391000  0.63680000  1
  C  C46  1  0.14524000  0.38581000  0.82502000  1
  C  C47  1  0.33118000  0.44556000  0.91269000  1
  C  C48  1  0.46709000  0.52456000  0.09727000  1
  C  C49  1  0.30427000  0.47161000  0.00903000  1
  C  C50  1  0.40237000  0.75362000  0.12702000  1
  C  C51  1  0.24155000  0.55687000  0.38775000  1
  C  C52  1  0.11527000  0.53018000  0.44554000  1
  C  C53  1  0.05955000  0.42859000  0.53119000  1
  C  C54  1  0.17016000  0.46129000  0.47761000  1
  C  C55  1  0.35711000  0.63795000  0.75031000  1
  C  C56  1  0.68912000  0.83116000  0.44777000  1
  C  C57  1  0.58768000  0.91580000  0.47172000  1
  C  C58  1  0.62831000  0.10007000  0.56833000  1
  C  C59  1  0.71002000  0.01451000  0.53856000  1
  C  C60  1  0.71562000  0.11579000  0.36163000  1
  C  C61  1  0.85393000  0.61269000  0.17482000  1
  C  C62  1  0.66836000  0.55229000  0.08734000  1
  C  C63  1  0.53244000  0.47347000  0.90284000  1
  C  C64  1  0.69555000  0.52579000  0.99098000  1
  C  C65  1  0.60496000  0.24654000  0.87674000  1
  O  O66  1  0.58907000  0.46799000  0.61870000  1
  O  O67  1  0.83084000  0.39343000  0.65607000  1
  O  O68  1  0.87530000  0.63712000  0.44041000  1
  O  O69  1  0.72619000  0.45306000  0.24111000  1
  O  O70  1  0.11618000  0.15215000  0.53589000  1
  O  O71  1  0.42863000  0.25946000  0.58615000  1
  O  O72  1  0.24401000  0.80743000  0.36558000  1
  O  O73  1  0.27674000  0.78951000  0.55004000  1
  O  O74  1  0.96765000  0.38490000  0.83904000  1
  O  O75  1  0.17972000  0.33244000  0.73701000  1
  O  O76  1  0.42167000  0.54642000  0.18590000  1
  O  O77  1  0.50083000  0.75905000  0.22183000  1
  O  O78  1  0.40907000  0.52989000  0.37906000  1
  O  O79  1  0.16911000  0.60637000  0.34356000  1
  O  O80  1  0.12514000  0.36275000  0.55927000  1
  O  O81  1  0.27737000  0.54892000  0.75815000  1
  O  O82  1  0.88334000  0.84750000  0.46128000  1
  O  O83  1  0.57184000  0.74077000  0.41560000  1
  O  O84  1  0.75588000  0.19257000  0.63367000  1
  O  O85  1  0.71911000  0.20991000  0.44840000  1
  O  O86  1  0.03170000  0.61357000  0.16126000  1
  O  O87  1  0.81902000  0.66719000  0.26260000  1
  O  O88  1  0.57742000  0.45215000  0.81423000  1
  O  O89  1  0.50619000  0.24173000  0.78234000  1
