# generated using pymatgen
data_H32C49(N4O)2
_symmetry_space_group_name_H-M   'P 1'
_cell_length_a   17.96367500
_cell_length_b   17.96365000
_cell_length_c   53.58930000
_cell_angle_alpha   90.00280000
_cell_angle_beta   90.00139999
_cell_angle_gamma   60.00013811
_symmetry_Int_Tables_number   1
_chemical_formula_structural   H32C49(N4O)2
_chemical_formula_sum   'H96 C147 N24 O6'
_cell_volume   14976.11249698
_cell_formula_units_Z   3
loop_
 _symmetry_equiv_pos_site_id
 _symmetry_equiv_pos_as_xyz
  1  'x, y, z'
loop_
 _atom_site_type_symbol
 _atom_site_label
 _atom_site_symmetry_multiplicity
 _atom_site_fract_x
 _atom_site_fract_y
 _atom_site_fract_z
 _atom_site_occupancy
  C  1  1  0.90547500  0.10007000  0.99156600  1
  C  2  1  0.81435900  0.14369500  0.99160400  1
  C  3  1  0.81444900  0.00238300  0.99149900  1
  C  4  1  0.90556700  0.95495700  0.99146400  1
  C  5  1  0.94608200  0.86303250  0.99140800  1
  C  6  1  0.89933100  0.81806900  0.99138000  1
  C  7  1  0.80863400  0.86889600  0.99140600  1
  C  8  1  0.76715800  0.95892250  0.99146700  1
  C  9  1  0.76699800  0.23444600  0.99163000  1
  C  10  1  0.80840700  0.28306200  0.99159600  1
  C  11  1  0.89909800  0.24325200  0.99153600  1
  C  12  1  0.94591500  0.15154350  0.99153300  1
  C  13  1  0.00811200  0.97622500  0.01570000  1
  C  14  1  0.09924200  0.93109200  0.01504100  1
  C  15  1  0.09886600  0.93054950  0.96771700  1
  C  16  1  0.00774000  0.97650900  0.96721400  1
  C  17  1  0.14578000  0.90682600  0.94514700  1
  C  18  1  0.10386000  0.92839300  0.92198200  1
  C  19  1  0.01316400  0.97453100  0.92036700  1
  C  20  1  0.96678000  0.99766800  0.94330000  1
  C  21  1  0.96758500  0.99592950  0.03968800  1
  C  22  1  0.01442800  0.97271800  0.06254100  1
  C  23  1  0.10511400  0.92819400  0.06075400  1
  C  24  1  0.14658700  0.90785850  0.03752700  1
  C  37  1  0.95668100  0.00195750  0.99149200  1
  C  38  1  0.14840300  0.90610250  0.99134200  1
  C  41  1  0.76512900  0.09765450  0.99157900  1
  C  44  1  0.97149700  0.99844550  0.89704900  1
  C  45  1  0.93987300  0.29314550  0.99147700  1
  C  46  1  0.97348400  0.99046600  0.08598800  1
  C  50  1  0.94013500  0.72739250  0.99133900  1
  C  52  1  0.09108400  0.95854700  0.32490100  1
  C  53  1  0.13470500  0.00604200  0.32493900  1
  C  54  1  0.99339200  0.14726100  0.32483600  1
  C  55  1  0.94596500  0.10356750  0.32479900  1
  C  56  1  0.85404000  0.15497600  0.32474300  1
  C  57  1  0.80907600  0.24669050  0.32471500  1
  C  58  1  0.85990200  0.28656100  0.32474300  1
  C  59  1  0.94993000  0.23801450  0.32480400  1
  C  60  1  0.22545800  0.96265350  0.32496500  1
  C  61  1  0.27407600  0.87262800  0.32492900  1
  C  62  1  0.23426800  0.82174450  0.32486900  1
  C  63  1  0.14256000  0.86663300  0.32486600  1
  C  64  1  0.96723500  0.97975050  0.34903300  1
  C  65  1  0.92212600  0.93373350  0.34837000  1
  C  66  1  0.92158700  0.93465450  0.30104600  1
  C  67  1  0.96753200  0.97983700  0.30054600  1
  C  68  1  0.89787800  0.91145200  0.27847600  1
  C  69  1  0.91943700  0.93181650  0.25531100  1
  C  70  1  0.96556000  0.97638650  0.25369900  1
  C  71  1  0.98868000  0.99964650  0.27663200  1
  C  72  1  0.98692600  0.00057900  0.37302100  1
  C  73  1  0.96372800  0.97693250  0.39587400  1
  C  74  1  0.91922500  0.93075100  0.39408300  1
  C  75  1  0.89888900  0.90961850  0.37085400  1
  C  88  1  0.99296800  0.00545300  0.32482500  1
  C  89  1  0.89714600  0.90955700  0.32467200  1
  C  92  1  0.08866200  0.10131000  0.32491400  1
  C  95  1  0.98946500  0.99415000  0.23038100  1
  C  96  1  0.28416200  0.73107550  0.32481000  1
  C  97  1  0.98143700  0.00015350  0.41932300  1
  C  101  1  0.71839800  0.29656400  0.32467200  1
  C  103  1  0.94956500  0.91445750  0.65823200  1
  C  104  1  0.99705900  0.82333950  0.65826800  1
  C  105  1  0.13827900  0.82343250  0.65816700  1
  C  106  1  0.09458500  0.91455250  0.65813200  1
  C  107  1  0.14599200  0.95506850  0.65807800  1
  C  108  1  0.23770600  0.90831750  0.65804600  1
  C  109  1  0.27758000  0.81761800  0.65807200  1
  C  110  1  0.22903200  0.77614150  0.65813400  1
  C  111  1  0.95367200  0.77597600  0.65829400  1
  C  112  1  0.86364400  0.81738500  0.65826000  1
  C  113  1  0.81276400  0.90807500  0.65820100  1
  C  114  1  0.85765200  0.95489550  0.65819900  1
  C  115  1  0.97076500  0.01710150  0.68236800  1
  C  116  1  0.92475300  0.10822600  0.68170700  1
  C  117  1  0.92568500  0.10784600  0.63438300  1
  C  118  1  0.97085600  0.01672050  0.63388100  1
  C  119  1  0.90250100  0.15475950  0.61181500  1
  C  120  1  0.92286800  0.11283750  0.58864800  1
  C  121  1  0.96738900  0.02214300  0.58703400  1
  C  122  1  0.99066000  0.97575950  0.60996500  1
  C  123  1  0.99159200  0.97658050  0.70635600  1
  C  124  1  0.96795000  0.02342500  0.72920900  1
  C  125  1  0.92177200  0.11411200  0.72742200  1
  C  126  1  0.90062800  0.15557850  0.70419300  1
  C  139  1  0.99647200  0.96566350  0.65815800  1
  C  140  1  0.90058500  0.15738400  0.65801000  1
  C  143  1  0.09233200  0.77411050  0.65824400  1
  C  146  1  0.98516100  0.98047400  0.56371400  1
  C  147  1  0.72209300  0.94885300  0.65814300  1
  C  148  1  0.99117800  0.98249250  0.75265800  1
  C  152  1  0.28758200  0.94912000  0.65800700  1
  C  154  1  0.97116500  0.00785150  0.79808100  1
  C  155  1  0.91580000  0.07407350  0.81464900  1
  C  156  1  0.92625700  0.06368150  0.84107900  1
  C  157  1  0.99217800  0.98612700  0.85158100  1
  C  158  1  0.04764400  0.92087700  0.83486300  1
  C  159  1  0.03723800  0.93105150  0.80871900  1
  C  161  1  0.81005200  0.20740350  0.84659600  1
  C  162  1  0.79789100  0.21701300  0.82062200  1
  C  168  1  0.65436000  0.29898300  0.80820800  1
  C  174  1  0.99879200  0.98521500  0.13141100  1
  C  175  1  0.06503800  0.97430000  0.14797800  1
  C  176  1  0.05466400  0.97421900  0.17440700  1
  C  177  1  0.97713600  0.98580300  0.18491300  1
  C  178  1  0.91189700  0.99553950  0.16819700  1
  C  179  1  0.92204600  0.99582050  0.14205100  1
  C  181  1  0.19840000  0.94667950  0.17991500  1
  C  182  1  0.20797800  0.94929350  0.15394200  1
  C  188  1  0.28987000  0.01083400  0.14144500  1
  C  194  1  0.97609300  0.98014100  0.46474800  1
  C  195  1  0.96523800  0.92477500  0.48131300  1
  C  196  1  0.96517200  0.93523000  0.50774400  1
  C  197  1  0.97679500  0.00115250  0.51824700  1
  C  198  1  0.98657500  0.05662450  0.50153100  1
  C  199  1  0.98681000  0.04621550  0.47538600  1
  C  201  1  0.93766100  0.81901850  0.51325600  1
  C  202  1  0.94021800  0.80685600  0.48728200  1
  C  208  1  0.00178000  0.66332150  0.47486800  1
  C  214  1  0.90681500  0.60755850  0.99130300  1
  C  215  1  0.98485000  0.52764500  0.99136700  1
  C  216  1  0.98484700  0.44794250  0.99139300  1
  C  217  1  0.90672400  0.44621050  0.99135000  1
  C  218  1  0.82956800  0.52626650  0.99127900  1
  C  219  1  0.82961300  0.60475450  0.99125600  1
  C  221  1  0.13842000  0.37217200  0.99158500  1
  C  222  1  0.13933300  0.45041650  0.99152300  1
  C  228  1  0.29509000  0.38805900  0.99063300  1
  C  234  1  0.59856700  0.44971950  0.32464000  1
  C  235  1  0.51865500  0.45160100  0.32469400  1
  C  236  1  0.43895800  0.53130400  0.32472000  1
  C  237  1  0.43722300  0.61116050  0.32468700  1
  C  238  1  0.51727900  0.60825900  0.32462500  1
  C  239  1  0.59576900  0.52972350  0.32460300  1
  C  241  1  0.36317900  0.45350900  0.32488200  1
  C  242  1  0.44142200  0.37435050  0.32482700  1
  C  248  1  0.37905000  0.28095600  0.32400000  1
  C  254  1  0.44073800  0.91579800  0.65796900  1
  C  255  1  0.44261700  0.99382900  0.65803100  1
  C  256  1  0.52232300  0.99382500  0.65805700  1
  C  257  1  0.60217900  0.91570350  0.65801600  1
  C  258  1  0.59927800  0.83854750  0.65794700  1
  C  259  1  0.52074200  0.83859250  0.65792600  1
  C  261  1  0.44452500  0.14739900  0.65824000  1
  C  262  1  0.36536600  0.14831450  0.65818000  1
  C  268  1  0.27197100  0.30407400  0.65731100  1
  H  25  1  0.14268800  0.90893400  0.07643200  1
  H  26  1  0.21240000  0.87508500  0.03715900  1
  H  27  1  0.21159900  0.87379250  0.94541000  1
  H  28  1  0.14105000  0.91036550  0.90622900  1
  H  29  1  0.90103500  0.03131350  0.94266300  1
  H  30  1  0.90185700  0.02804550  0.04044300  1
  H  31  1  0.01181200  0.82794400  0.99139100  1
  H  32  1  0.77097000  0.84102200  0.99138900  1
  H  33  1  0.70133700  0.99290050  0.99149300  1
  H  34  1  0.01164200  0.12094750  0.99148200  1
  H  35  1  0.70117700  0.26623750  0.99165400  1
  H  36  1  0.77070600  0.34859950  0.99160400  1
  H  39  1  0.18969900  0.93477000  0.99122700  1
  H  40  1  0.18960900  0.83612850  0.99140000  1
  H  42  1  0.72376900  0.11841700  0.97506000  1
  H  43  1  0.72396800  0.11811600  0.00813900  1
  H  47  1  0.91073500  0.01182500  0.08667500  1
  H  48  1  0.90816900  0.03697550  0.89672300  1
  H  49  1  0.00359700  0.26339250  0.99148600  1
  H  51  1  0.00386100  0.69341300  0.99133100  1
  H  76  1  0.89997900  0.91241700  0.40975900  1
  H  77  1  0.86615000  0.87654400  0.37048500  1
  H  78  1  0.86484600  0.87866450  0.27873700  1
  H  79  1  0.90141500  0.91264900  0.23955800  1
  H  80  1  0.02232800  0.03174650  0.27599600  1
  H  81  1  0.01902800  0.03420550  0.37378000  1
  H  82  1  0.81895500  0.12433400  0.32472600  1
  H  83  1  0.83202900  0.35210150  0.32472600  1
  H  84  1  0.98390800  0.26985450  0.32483000  1
  H  85  1  0.11196600  0.83150200  0.32481500  1
  H  86  1  0.25724500  0.99668350  0.32498900  1
  H  87  1  0.33961300  0.84479200  0.32493700  1
  H  90  1  0.92582700  0.83959000  0.32455200  1
  H  91  1  0.82717200  0.93831150  0.32472800  1
  H  93  1  0.10942400  0.12190850  0.30839600  1
  H  94  1  0.10912200  0.12201600  0.34147500  1
  H  98  1  0.00271300  0.04160750  0.42001200  1
  H  99  1  0.02797400  0.01897450  0.23005600  1
  H  100  1  0.25441300  0.69710400  0.32481700  1
  H  102  1  0.68442400  0.26681700  0.32466200  1
  H  127  1  0.90344600  0.15169000  0.74309800  1
  H  128  1  0.86757700  0.22139200  0.70382500  1
  H  129  1  0.86971700  0.22057700  0.61207800  1
  H  130  1  0.90368800  0.15002550  0.57289600  1
  H  131  1  0.02275600  0.91001150  0.60932900  1
  H  132  1  0.02522400  0.91085050  0.70711200  1
  H  133  1  0.11535000  0.02079600  0.65806100  1
  H  134  1  0.34312000  0.77995400  0.65805500  1
  H  135  1  0.26087400  0.71032200  0.65815800  1
  H  136  1  0.82251800  0.02062100  0.65814800  1
  H  137  1  0.98770400  0.71015600  0.65831800  1
  H  138  1  0.83580900  0.77968350  0.65826800  1
  H  141  1  0.83062200  0.19867750  0.65789100  1
  H  142  1  0.92934500  0.19859900  0.65807000  1
  H  144  1  0.11292700  0.73275200  0.64172400  1
  H  145  1  0.11303300  0.73294950  0.67480500  1
  H  149  1  0.03262200  0.91976050  0.75334300  1
  H  150  1  0.00999600  0.91714150  0.56338700  1
  H  151  1  0.68812200  0.01257250  0.65815200  1
  H  153  1  0.25783600  0.01284300  0.65799900  1
  H  164  1  0.77217400  0.25626750  0.85849300  1
  H  165  1  0.08011800  0.88259350  0.79745600  1
  H  166  1  0.09768000  0.86496250  0.84170000  1
  H  169  1  0.61043200  0.36024000  0.79940200  1
  H  170  1  0.62847400  0.29770950  0.82656700  1
  H  171  1  0.65717800  0.24756000  0.79661100  1
  H  184  1  0.24727200  0.93568300  0.19180900  1
  H  185  1  0.87362400  0.00131100  0.13078800  1
  H  186  1  0.85601800  0.00134050  0.17503600  1
  H  189  1  0.35115700  0.99346550  0.13265500  1
  H  190  1  0.28845000  0.03824450  0.15977500  1
  H  191  1  0.23848400  0.05925550  0.12979900  1
  H  204  1  0.92667600  0.78114150  0.52515200  1
  H  205  1  0.99239000  0.08909450  0.46412500  1
  H  206  1  0.99244800  0.10666200  0.50837100  1
  H  209  1  0.98445800  0.61939250  0.46606000  1
  H  210  1  0.02893600  0.63743850  0.49322800  1
  H  211  1  0.05039600  0.66613650  0.46327400  1
  H  224  1  0.19377800  0.31408900  0.99171400  1
  H  225  1  0.77166400  0.66079550  0.99122100  1
  H  226  1  0.77158200  0.52825050  0.99125600  1
  H  229  1  0.34090200  0.41105200  0.99063500  1
  H  230  1  0.30426800  0.35129850  0.97354700  1
  H  231  1  0.30803600  0.34665650  0.00688100  1
  H  244  1  0.30509500  0.45623400  0.32499300  1
  H  245  1  0.65181000  0.53163200  0.32457500  1
  H  246  1  0.51926500  0.66426100  0.32461000  1
  H  249  1  0.40203800  0.21215700  0.32399400  1
  H  250  1  0.34207200  0.30859550  0.30695200  1
  H  251  1  0.33785400  0.30936550  0.34029200  1
  H  264  1  0.44725100  0.20275750  0.65836500  1
  H  265  1  0.52265000  0.78064450  0.65789300  1
  H  266  1  0.65527900  0.78056000  0.65792800  1
  H  269  1  0.20317000  0.34988300  0.65731100  1
  H  270  1  0.29957000  0.31329500  0.64023400  1
  H  271  1  0.30041800  0.31697150  0.67357100  1
  N  160  1  0.87313600  0.13155700  0.85573000  1
  N  163  1  0.85202600  0.15063800  0.80575600  1
  N  172  1  0.96213900  0.02363550  0.77342300  1
  N  173  1  0.01180200  0.97325050  0.87600400  1
  N  180  1  0.12256200  0.95943500  0.18905300  1
  N  183  1  0.14159600  0.96152650  0.13908100  1
  N  192  1  0.01462100  0.97837200  0.10675500  1
  N  193  1  0.96427500  0.97903650  0.20933500  1
  N  200  1  0.95042000  0.88210500  0.52239200  1
  N  203  1  0.95245600  0.86099500  0.47241700  1
  N  212  1  0.96933800  0.97111250  0.44008800  1
  N  213  1  0.97003400  0.02078050  0.54267000  1
  N  220  1  0.06203600  0.37405550  0.99150800  1
  N  223  1  0.06213400  0.52418650  0.99144900  1
  N  232  1  0.89784600  0.68655050  0.99132400  1
  N  233  1  0.89760200  0.37627450  0.99141100  1
  N  240  1  0.36506500  0.52800700  0.32481700  1
  N  243  1  0.51519600  0.37777900  0.32476100  1
  N  252  1  0.67755800  0.37969450  0.32466000  1
  N  253  1  0.36728800  0.69022050  0.32474800  1
  N  260  1  0.51902500  0.07101300  0.65816700  1
  N  263  1  0.36879600  0.07111100  0.65810700  1
  N  272  1  0.37071400  0.90683100  0.65799200  1
  N  273  1  0.68123700  0.90657750  0.65807800  1
  O  167  1  0.73715500  0.29261900  0.81021800  1
  O  187  1  0.28359600  0.93437150  0.14353700  1
  O  207  1  0.92535000  0.74612000  0.47687500  1
  O  227  1  0.20988300  0.46121950  0.99174900  1
  O  247  1  0.45222700  0.29299500  0.32501900  1
  O  267  1  0.28401400  0.21886300  0.65839800  1
