# generated using pymatgen
data_H9C13N4O
_symmetry_space_group_name_H-M   'P 1'
_cell_length_a   9.98233333
_cell_length_b   31.66090000
_cell_length_c   31.66090000
_cell_angle_alpha   120.00000000
_cell_angle_beta   90.00000000
_cell_angle_gamma   90.00000000
_symmetry_Int_Tables_number   1
_chemical_formula_structural   H9C13N4O
_chemical_formula_sum   'H54 C78 N24 O6'
_cell_volume   8665.81097561
_cell_formula_units_Z   6
loop_
 _symmetry_equiv_pos_site_id
 _symmetry_equiv_pos_as_xyz
  1  'x, y, z'
loop_
 _atom_site_type_symbol
 _atom_site_label
 _atom_site_symmetry_multiplicity
 _atom_site_fract_x
 _atom_site_fract_y
 _atom_site_fract_z
 _atom_site_occupancy
  C  1  1  0.95230600  0.97252700  0.48438800  1
  C  4  1  0.95234200  0.02483200  0.51473800  1
  C  5  1  0.94191200  0.04806800  0.56649100  1
  C  6  1  0.95811200  0.09864000  0.59697100  1
  C  7  1  0.98296000  0.12813400  0.57645200  1
  C  8  1  0.98510800  0.10808900  0.52536300  1
  C  9  1  0.96876200  0.05708000  0.49566100  1
  C  13  1  0.96872900  0.94027700  0.50346400  1
  C  14  1  0.98502400  0.88926600  0.47375900  1
  C  15  1  0.98294500  0.86922300  0.42267200  1
  C  16  1  0.95809100  0.89871700  0.40215400  1
  C  17  1  0.94192700  0.94929100  0.43263200  1
  C  25  1  0.95224000  0.48769900  0.97340000  1
  C  26  1  0.94188700  0.51622700  0.95016800  1
  C  27  1  0.95804200  0.49614000  0.89959500  1
  C  28  1  0.98256000  0.44610800  0.87008600  1
  C  29  1  0.98492800  0.41506600  0.89012800  1
  C  30  1  0.96876000  0.43637800  0.94114200  1
  C  34  1  0.95220100  0.50964100  0.02570400  1
  C  35  1  0.96863000  0.56096400  0.05796700  1
  C  36  1  0.98470300  0.58227700  0.10898600  1
  C  37  1  0.98235400  0.55123200  0.12902200  1
  C  38  1  0.95782600  0.50120000  0.09950800  1
  C  39  1  0.94177400  0.48111200  0.04893100  1
  C  47  1  0.95256000  0.48349700  0.51053000  1
  C  48  1  0.94215900  0.43174300  0.48200900  1
  C  49  1  0.95825700  0.40125600  0.50209900  1
  C  50  1  0.98299600  0.42177200  0.55211700  1
  C  51  1  0.98524400  0.47285600  0.58316000  1
  C  52  1  0.96909200  0.50256100  0.56185000  1
  C  56  1  0.95253000  0.51385500  0.48858300  1
  C  57  1  0.96903000  0.49478600  0.43725900  1
  C  58  1  0.98512000  0.52448800  0.41594200  1
  C  59  1  0.98273400  0.57557200  0.44698200  1
  C  60  1  0.95818100  0.59609400  0.49701200  1
  C  61  1  0.94210400  0.56561200  0.51710400  1
  C  69  1  0.96027000  0.80972500  0.27181800  1
  C  71  1  0.04581000  0.73482700  0.26244000  1
  C  72  1  0.01418800  0.70999000  0.21231100  1
  C  74  1  0.93128400  0.78545200  0.22103100  1
  C  76  1  0.86375500  0.80912000  0.19648800  1
  C  81  1  0.93490500  0.85927500  0.30498600  1
  C  83  1  0.02988700  0.65915800  0.18450600  1
  C  85  1  0.96028100  0.45985400  0.18849100  1
  C  87  1  0.04576500  0.52540000  0.26338100  1
  C  88  1  0.01433500  0.50009000  0.28821800  1
  C  90  1  0.93148900  0.43332500  0.21276600  1
  C  92  1  0.86411000  0.38508500  0.18910000  1
  C  97  1  0.93486100  0.44345800  0.13894300  1
  C  99  1  0.03011200  0.52312100  0.33904700  1
  C  101  1  0.96053400  0.72643500  0.53836800  1
  C  103  1  0.04616000  0.73582200  0.47286600  1
  C  104  1  0.01454400  0.78595300  0.49816000  1
  C  106  1  0.93154900  0.77722300  0.56488500  1
  C  108  1  0.86397500  0.80176100  0.61308800  1
  C  113  1  0.93516100  0.69326700  0.55475300  1
  C  115  1  0.03031300  0.81376400  0.47514100  1
  C  117  1  0.96034600  0.18762700  0.72730800  1
  C  119  1  0.04601500  0.26250800  0.73668800  1
  C  120  1  0.01438300  0.28734800  0.78681700  1
  C  122  1  0.93135300  0.21190300  0.77809500  1
  C  124  1  0.86374900  0.18824400  0.80263200  1
  C  129  1  0.93493500  0.13807900  0.69413600  1
  C  131  1  0.03015100  0.33817900  0.81462000  1
  C  133  1  0.96055000  0.53749200  0.81061400  1
  C  135  1  0.04608200  0.47195800  0.73572200  1
  C  136  1  0.01455400  0.49725800  0.71088300  1
  C  138  1  0.93165500  0.56401100  0.78633700  1
  C  140  1  0.86418400  0.61223300  0.81000000  1
  C  145  1  0.93516100  0.55388600  0.86016500  1
  C  147  1  0.03031200  0.47423000  0.66005400  1
  C  149  1  0.96045600  0.27092100  0.46075900  1
  C  151  1  0.04617100  0.26153400  0.52625200  1
  C  152  1  0.01455800  0.21140200  0.50096000  1
  C  154  1  0.93147900  0.22012900  0.43424300  1
  C  156  1  0.86387600  0.19558800  0.38604500  1
  C  161  1  0.93503000  0.30408600  0.44437700  1
  C  163  1  0.03037200  0.18359100  0.52397600  1
  H  10  1  0.92046400  0.02874100  0.58346700  1
  H  11  1  0.97854300  0.04373600  0.45912500  1
  H  12  1  0.98933700  0.16493500  0.59932100  1
  H  18  1  0.97850200  0.95361800  0.53999700  1
  H  19  1  0.98922700  0.83242000  0.39979400  1
  H  20  1  0.92045500  0.96861600  0.41565800  1
  H  31  1  0.92055000  0.55253500  0.96950300  1
  H  32  1  0.97829600  0.41317600  0.95448000  1
  H  33  1  0.98930500  0.43219900  0.83329500  1
  H  40  1  0.97823700  0.58417300  0.04464000  1
  H  41  1  0.98897100  0.56513000  0.16581600  1
  H  42  1  0.92040400  0.44480600  0.02959500  1
  H  53  1  0.92065500  0.41477100  0.44571000  1
  H  54  1  0.97859900  0.53910400  0.58505300  1
  H  55  1  0.98939200  0.39888500  0.56602900  1
  H  62  1  0.97859200  0.45824500  0.41406300  1
  H  63  1  0.98934100  0.59846100  0.43307900  1
  H  64  1  0.92075900  0.58258700  0.55341300  1
  H  75  1  0.08583200  0.71725700  0.27919700  1
  H  78  1  0.85543500  0.78398200  0.15719200  1
  H  79  1  0.92421600  0.83999500  0.20144900  1
  H  80  1  0.67546200  0.79843100  0.20828300  1
  H  82  1  0.90076500  0.88210400  0.29333500  1
  H  84  1  0.06377700  0.64181900  0.20234400  1
  H  91  1  0.08569100  0.55974300  0.28094700  1
  H  94  1  0.85592000  0.37092300  0.21423900  1
  H  95  1  0.92460200  0.35919600  0.15822200  1
  H  96  1  0.67574700  0.40749200  0.19980000  1
  H  98  1  0.90090100  0.40895300  0.11611200  1
  H  100  1  0.06395100  0.55830300  0.35637700  1
  H  107  1  0.08621600  0.71906900  0.43854500  1
  H  110  1  0.85565000  0.84105800  0.62725000  1
  H  111  1  0.92440700  0.79680000  0.63900700  1
  H  112  1  0.67570300  0.78996100  0.59058100  1
  H  114  1  0.90106100  0.70492000  0.58923700  1
  H  116  1  0.06426700  0.79593200  0.43997500  1
  H  123  1  0.08608900  0.28007200  0.71993300  1
  H  126  1  0.85543000  0.21338200  0.84192800  1
  H  127  1  0.92416000  0.15735800  0.79767000  1
  H  128  1  0.67549100  0.19896500  0.79083300  1
  H  130  1  0.90075400  0.11525000  0.70578300  1
  H  132  1  0.06406300  0.35551200  0.79678000  1
  H  139  1  0.08607000  0.43762800  0.71815800  1
  H  142  1  0.85592100  0.62639100  0.78486000  1
  H  143  1  0.92464800  0.63813800  0.84087900  1
  H  144  1  0.67586200  0.58977600  0.79930100  1
  H  146  1  0.90110500  0.58837800  0.88299400  1
  H  148  1  0.06421200  0.43905500  0.64272200  1
  H  155  1  0.08625100  0.27828500  0.56056700  1
  H  158  1  0.85557100  0.15629200  0.37188700  1
  H  159  1  0.92427700  0.20055200  0.36012100  1
  H  160  1  0.67561800  0.20738300  0.40857000  1
  H  162  1  0.90092500  0.29242600  0.40989200  1
  H  164  1  0.06434700  0.20142100  0.55914000  1
  N  21  1  0.94754300  0.87754600  0.35336000  1
  N  22  1  0.99715100  0.86154600  0.49546500  1
  N  23  1  0.99721500  0.13580800  0.50365700  1
  N  24  1  0.94757300  0.11981300  0.64576300  1
  N  43  1  0.94738400  0.47355600  0.12065900  1
  N  44  1  0.99685900  0.63170100  0.13671000  1
  N  45  1  0.99707500  0.36564100  0.86241100  1
  N  46  1  0.94763800  0.52377700  0.87843700  1
  N  65  1  0.94771300  0.64489000  0.52464000  1
  N  66  1  0.99719500  0.50278300  0.36651500  1
  N  67  1  0.99731100  0.49456300  0.63258800  1
  N  68  1  0.94768300  0.35246200  0.47447000  1
  N  70  1  0.01660300  0.78279700  0.28972000  1
  N  73  1  0.95810100  0.73669200  0.19402900  1
  N  86  1  0.01649700  0.50470400  0.21541600  1
  N  89  1  0.95835700  0.45509200  0.26152100  1
  N  102  1  0.01690300  0.70853600  0.49354600  1
  N  105  1  0.95840200  0.80422600  0.54313300  1
  N  118  1  0.01674700  0.21454300  0.70940500  1
  N  121  1  0.95822300  0.26065700  0.80509400  1
  N  134  1  0.01683300  0.49265300  0.78369200  1
  N  137  1  0.95850200  0.54224600  0.73757900  1
  N  150  1  0.01686800  0.28881900  0.50557500  1
  N  153  1  0.95838000  0.19312500  0.45599100  1
  O  77  1  0.73294200  0.82670900  0.21610100  1
  O  93  1  0.73324200  0.38705700  0.17152000  1
  O  109  1  0.73315900  0.78214300  0.61104600  1
  O  125  1  0.73292400  0.17068000  0.78301500  1
  O  141  1  0.73334000  0.61022700  0.82758000  1
  O  157  1  0.73304400  0.21520100  0.38809900  1
