# generated using pymatgen
data_ZnH4C10N(O2F)2
_symmetry_space_group_name_H-M   'P 1'
_cell_length_a   7.94156000
_cell_length_b   8.55345000
_cell_length_c   10.53653000
_cell_angle_alpha   88.42208000
_cell_angle_beta   84.50916000
_cell_angle_gamma   86.52475000
_symmetry_Int_Tables_number   1
_chemical_formula_structural   ZnH4C10N(O2F)2
_chemical_formula_sum   'Zn2 H8 C20 N2 O8 F4'
_cell_volume   710.95823723
_cell_formula_units_Z   2
loop_
 _symmetry_equiv_pos_site_id
 _symmetry_equiv_pos_as_xyz
  1  'x, y, z'
loop_
 _atom_site_type_symbol
 _atom_site_label
 _atom_site_symmetry_multiplicity
 _atom_site_fract_x
 _atom_site_fract_y
 _atom_site_fract_z
 _atom_site_occupancy
  Zn  Zn0  1  0.69306000  0.51799000  0.48556000  1
  Zn  Zn1  1  0.30694000  0.48201000  0.51444000  1
  H  H2  1  0.97001000  0.44690000  0.16776000  1
  H  H3  1  0.02999000  0.55311000  0.83224000  1
  H  H4  1  0.99790000  0.71854000  0.99775000  1
  H  H5  1  0.00210000  0.28147000  0.00225000  1
  H  H6  1  0.30212000  0.00840000  0.51496000  1
  H  H7  1  0.69788000  0.99160000  0.48504000  1
  H  H8  1  0.99253000  0.36673000  0.58233000  1
  H  H9  1  0.00747000  0.63327000  0.41767000  1
  C  C10  1  0.45495000  0.79395000  0.50335000  1
  C  C11  1  0.06109000  0.39234000  0.98147000  1
  C  C12  1  0.96082000  0.50257000  0.91659000  1
  C  C13  1  0.03918000  0.49745000  0.08341000  1
  C  C14  1  0.81860000  0.44461000  0.87088000  1
  C  C15  1  0.18140000  0.55541000  0.12913000  1
  C  C16  1  0.65701000  0.48254000  0.93017000  1
  C  C17  1  0.34299000  0.51747000  0.06983000  1
  C  C18  1  0.64062000  0.56098000  0.04540000  1
  C  C19  1  0.35938000  0.43903000  0.95460000  1
  C  C20  1  0.51103000  0.44522000  0.87648000  1
  C  C21  1  0.54506000  0.20605000  0.49665000  1
  C  C22  1  0.48897000  0.55479000  0.12352000  1
  C  C23  1  0.43158000  0.95780000  0.50514000  1
  C  C24  1  0.56842000  0.04220000  0.49486000  1
  C  C25  1  0.49587000  0.52351000  0.26056000  1
  C  C26  1  0.50412000  0.47649000  0.73944000  1
  C  C27  1  0.77662000  0.64284000  0.07800000  1
  C  C28  1  0.22338000  0.35717000  0.92200000  1
  C  C29  1  0.93891000  0.60767000  0.01853000  1
  N  N30  1  0.04967000  0.45795000  0.53375000  1
  N  N31  1  0.95033000  0.54205000  0.46625000  1
  O  O32  1  0.61075000  0.73857000  0.49172000  1
  O  O33  1  0.38925000  0.26143000  0.50828000  1
  O  O34  1  0.32161000  0.71163000  0.51335000  1
  O  O35  1  0.67839000  0.28837000  0.48665000  1
  O  O36  1  0.64457000  0.51348000  0.30596000  1
  O  O37  1  0.35543000  0.48652000  0.69404000  1
  O  O38  1  0.35543000  0.48654000  0.32759000  1
  O  O39  1  0.64457000  0.51346000  0.67241000  1
  F  F40  1  0.75385000  0.75565000  0.16748000  1
  F  F41  1  0.24615000  0.24435000  0.83252000  1
  F  F42  1  0.84155000  0.32668000  0.78595000  1
  F  F43  1  0.15845000  0.67333000  0.21405000  1
