# generated using pymatgen
data_Zn7H84(C33O5)4
_symmetry_space_group_name_H-M   'P 1'
_cell_length_a   18.10939500
_cell_length_b   19.40173000
_cell_length_c   25.26037479
_cell_angle_alpha   87.81659647
_cell_angle_beta   82.34604514
_cell_angle_gamma   69.38320000
_symmetry_Int_Tables_number   1
_chemical_formula_structural   Zn7H84(C33O5)4
_chemical_formula_sum   'Zn14 H168 C264 O40'
_cell_volume   8232.53467967
_cell_formula_units_Z   2
loop_
 _symmetry_equiv_pos_site_id
 _symmetry_equiv_pos_as_xyz
  1  'x, y, z'
loop_
 _atom_site_type_symbol
 _atom_site_label
 _atom_site_symmetry_multiplicity
 _atom_site_fract_x
 _atom_site_fract_y
 _atom_site_fract_z
 _atom_site_occupancy
  C  C0  1  0.73152000  0.62730000  0.01046000  1
  C  C1  1  0.20325000  0.19227000  0.49217000  1
  C  C2  1  0.35298000  0.75400000  0.98136000  1
  C  C3  1  0.00465000  0.76427000  0.92893000  1
  C  C4  1  0.64933000  0.20195000  0.45561000  1
  C  C5  1  0.83299000  0.27227000  0.45473000  1
  C  C6  1  0.72839000  0.27593000  0.27763000  1
  C  C7  1  0.45918000  0.35988000  0.40874000  1
  C  C8  1  0.91812000  0.23670000  0.46182000  1
  C  C9  1  0.97833000  0.25139000  0.42657000  1
  C  C10  1  0.05836000  0.21564000  0.43356000  1
  C  C11  1  0.07921000  0.17113000  0.47819000  1
  C  C12  1  0.93929000  0.18945000  0.50521000  1
  C  C13  1  0.95823000  0.31061000  0.38671000  1
  C  C14  1  0.95002000  0.29478000  0.33452000  1
  C  C15  1  0.95256000  0.38204000  0.39998000  1
  C  C16  1  0.40899000  0.31709000  0.43179000  1
  C  C17  1  0.34289000  0.31685000  0.40773000  1
  C  C18  1  0.30586000  0.26594000  0.42430000  1
  C  C19  1  0.32752000  0.22085500  0.46854000  1
  C  C20  1  0.38839000  0.22615000  0.49607000  1
  C  C21  1  0.42986000  0.27292000  0.47676000  1
  C  C22  1  0.30453000  0.37594500  0.37117000  1
  C  C23  1  0.24234000  0.43930000  0.39192000  1
  C  C24  1  0.43846000  0.71660000  0.98666000  1
  C  C25  1  0.47434000  0.74042000  0.02524000  1
  C  C26  1  0.54815000  0.69379000  0.03899000  1
  C  C27  1  0.59300000  0.63056000  0.00830000  1
  C  C28  1  0.56185000  0.61295000  0.96425000  1
  C  C29  1  0.48328000  0.65360000  0.95561000  1
  C  C30  1  0.44455000  0.81849000  0.04259000  1
  C  C31  1  0.44615000  0.87343000  0.00497000  1
  C  C32  1  0.43525000  0.94448000  0.02201000  1
  C  C33  1  0.42249000  0.96119000  0.07653000  1
  C  C34  1  0.41862000  0.90744000  0.11412000  1
  C  C35  1  0.42906000  0.83634000  0.09730000  1
  C  C36  1  0.95686000  0.71758000  0.94728000  1
  C  C37  1  0.89471000  0.71599000  0.91931000  1
  C  C38  1  0.85412000  0.66774500  0.93524000  1
  C  C39  1  0.86912000  0.62574000  0.98160000  1
  C  C40  1  0.93168000  0.62654000  0.00938000  1
  C  C41  1  0.97449000  0.67297000  0.99233000  1
  C  C42  1  0.86576000  0.76998000  0.87718000  1
  C  C43  1  0.82049000  0.84349000  0.89101000  1
  C  C44  1  0.60169000  0.10887000  0.38275000  1
  C  C45  1  0.22693000  0.58259000  0.95145000  1
  C  C46  1  0.16333000  0.59053000  0.92249000  1
  C  C47  1  0.22983000  0.63431000  0.84637000  1
  C  C48  1  0.29124000  0.63040000  0.87584000  1
  C  C49  1  0.28993000  0.60461000  0.92827000  1
  C  C50  1  0.60757000  0.14753000  0.33531000  1
  C  C51  1  0.54308000  0.17326000  0.30590000  1
  C  C52  1  0.47429000  0.15689000  0.32221000  1
  C  C53  1  0.47002000  0.11462000  0.36772000  1
  C  C54  1  0.53334000  0.09088000  0.39816000  1
  C  C55  1  0.16508000  0.61610000  0.87008000  1
  C  C56  1  0.81811000  0.44429000  0.54133000  1
  C  C57  1  0.81193000  0.47329000  0.59221000  1
  C  C58  1  0.23591000  0.95735000  0.05887000  1
  C  C59  1  0.22966000  0.91642000  0.10500000  1
  C  C60  1  0.21385000  0.94973000  0.15535000  1
  C  C61  1  0.20314000  0.02426000  0.15976000  1
  C  C62  1  0.65342000  0.91578000  0.07994000  1
  C  C63  1  0.65537000  0.85806500  0.04763000  1
  C  C64  1  0.64661000  0.86994000  0.99352000  1
  C  C65  1  0.81366000  0.58754000  0.00318000  1
  C  C66  1  0.67701000  0.59031000  0.01705000  1
  C  C67  1  0.28666000  0.16764500  0.48480000  1
  C  C68  1  0.16360000  0.14258000  0.48818000  1
  C  C69  1  0.84217000  0.02427000  0.11781000  1
  C  C70  1  0.75178000  0.16900000  0.21992000  1
  C  C71  1  0.78638000  0.06808000  0.15452000  1
  C  C72  1  0.01904000  0.15872000  0.51464000  1
  C  C73  1  0.61363000  0.55781000  0.92391000  1
  C  C74  1  0.66977000  0.57517000  0.88721000  1
  C  C75  1  0.80425000  0.49101000  0.49737000  1
  C  C76  1  0.87924000  0.74706000  0.82360000  1
  C  C77  1  0.79229000  0.54906000  0.59923000  1
  C  C78  1  0.20655000  0.06607000  0.11381000  1
  C  C79  1  0.32331000  0.65701000  0.62027000  1
  C  C80  1  0.72169000  0.52183000  0.85089000  1
  C  C81  1  0.25094000  0.79056000  0.79096000  1
  C  C82  1  0.28705000  0.72593000  0.70471000  1
  C  C83  1  0.71761000  0.45119000  0.85089000  1
  C  C84  1  0.64263000  0.98553000  0.05821000  1
  C  C85  1  0.80724000  0.10026000  0.19366000  1
  C  C86  1  0.77977000  0.59588000  0.55527000  1
  C  C87  1  0.23594000  0.63544000  0.05820000  1
  C  C88  1  0.67768000  0.12060000  0.45620000  1
  C  C89  1  0.67029000  0.07992333  0.41321000  1
  C  C90  1  0.24780000  0.55770000  0.04848000  1
  C  C91  1  0.23775000  0.53387000  0.99843000  1
  C  C92  1  0.31658000  0.32992000  0.01184000  1
  C  C93  1  0.26574000  0.29450000  0.99962000  1
  C  C94  1  0.29651000  0.22877000  0.97011000  1
  C  C95  1  0.37736000  0.20052000  0.95100000  1
  C  C96  1  0.42926000  0.23078000  0.96858000  1
  C  C97  1  0.39890000  0.29606000  0.99866000  1
  C  C98  1  0.82697000  0.89487000  0.43229000  1
  C  C99  1  0.90926000  0.87988000  0.42232000  1
  C  C100  1  0.96058000  0.80947000  0.40470000  1
  C  C101  1  0.92912000  0.75558000  0.39442000  1
  C  C102  1  0.84760000  0.76946000  0.40686000  1
  C  C103  1  0.79695000  0.83851000  0.42707000  1
  C  C104  1  0.78672000  0.47326000  0.01684000  1
  C  C105  1  0.84102000  0.51044000  0.00668000  1
  C  C106  1  0.70466000  0.51362000  0.02394000  1
  C  C107  1  0.29063000  0.04117000  0.48211000  1
  C  C108  1  0.33000000  0.09176000  0.48244000  1
  C  C109  1  0.20742000  0.06669000  0.48420000  1
  C  C110  1  0.03801000  0.11855000  0.56469000  1
  C  C111  1  0.04797000  0.15496000  0.60870000  1
  C  C112  1  0.06088000  0.11832000  0.65720000  1
  C  C113  1  0.06382000  0.04542000  0.66194000  1
  C  C114  1  0.05583000  0.00845000  0.61781000  1
  C  C115  1  0.04235000  0.04499000  0.56933000  1
  C  C116  1  0.33756000  0.96262000  0.47066000  1
  C  C117  1  0.35510000  0.91102000  0.51220000  1
  C  C118  1  0.40277000  0.83757000  0.50011000  1
  C  C119  1  0.42730000  0.81304000  0.44684000  1
  C  C120  1  0.41145000  0.86563000  0.40515000  1
  C  C121  1  0.36752000  0.93990000  0.41768000  1
  C  C122  1  0.44064000  0.84452000  0.34852000  1
  C  C123  1  0.38668000  0.84696000  0.31278000  1
  C  C124  1  0.41389000  0.83047000  0.25871000  1
  C  C125  1  0.49512000  0.80930000  0.24039000  1
  C  C126  1  0.54906000  0.80650000  0.27584000  1
  C  C127  1  0.52181000  0.82579000  0.32959000  1
  C  C128  1  0.31962000  0.93170000  0.56810000  1
  C  C129  1  0.26621000  0.89951000  0.59379000  1
  C  C130  1  0.24077000  0.91093000  0.64849000  1
  C  C131  1  0.26655000  0.95613000  0.67749000  1
  C  C132  1  0.31860000  0.98934000  0.65196000  1
  C  C133  1  0.34576000  0.97672000  0.59746000  1
  C  C134  1  0.40777000  0.18469000  0.54583000  1
  C  C135  1  0.35090000  0.19916000  0.59144000  1
  C  C136  1  0.37006000  0.16110000  0.63872000  1
  C  C137  1  0.44602000  0.10884000  0.64078000  1
  C  C138  1  0.50292000  0.09443500  0.59554000  1
  C  C139  1  0.48410000  0.13244000  0.54822000  1
  C  C140  1  0.66208000  0.43362000  0.88752000  1
  C  C141  1  0.60970000  0.48690000  0.92376000  1
  C  C142  1  0.81511000  0.39255000  0.00879000  1
  C  C143  1  0.81872000  0.34428000  0.05236000  1
  C  C144  1  0.84631000  0.26779000  0.04327000  1
  C  C145  1  0.86822000  0.23898000  0.99086000  1
  C  C146  1  0.86057000  0.28859000  0.94717000  1
  C  C147  1  0.83769000  0.36417000  0.95681000  1
  C  C148  1  0.87078000  0.26314000  0.89142000  1
  C  C149  1  0.81084000  0.24446000  0.87244000  1
  C  C150  1  0.82000000  0.22159000  0.81937000  1
  C  C151  1  0.88877000  0.21757000  0.78509000  1
  C  C152  1  0.94827000  0.23689000  0.80373000  1
  C  C153  1  0.93922000  0.26004000  0.85672000  1
  C  C154  1  0.79408000  0.37342000  0.10748000  1
  C  C155  1  0.71904000  0.37862000  0.13394000  1
  C  C156  1  0.69262000  0.41269000  0.18416000  1
  C  C157  1  0.74120000  0.44100000  0.20826000  1
  C  C158  1  0.81646000  0.43480000  0.18240000  1
  C  C159  1  0.84309000  0.40095000  0.13215000  1
  C  C160  1  0.95468000  0.57759000  0.05518000  1
  C  C161  1  0.90984000  0.59580000  0.10568000  1
  C  C162  1  0.93497000  0.55216000  0.14975000  1
  C  C163  1  0.00431000  0.48981000  0.14347000  1
  C  C164  1  0.04893000  0.47124000  0.09314000  1
  C  C165  1  0.02441000  0.51507000  0.04905000  1
  C  C166  1  0.81654000  0.70910000  0.40548000  1
  C  C167  1  0.76631000  0.70841000  0.36755000  1
  C  C168  1  0.71821000  0.66501000  0.37649000  1
  C  C169  1  0.72056000  0.62222000  0.42280000  1
  C  C170  1  0.82688000  0.65880000  0.44740000  1
  C  C171  1  0.76683000  0.75015000  0.31739000  1
  C  C172  1  0.81434000  0.71476000  0.27088000  1
  C  C173  1  0.81789000  0.75487000  0.22399000  1
  C  C174  1  0.77414000  0.83032000  0.22338000  1
  C  C175  1  0.72668000  0.86580000  0.26962000  1
  C  C176  1  0.72262000  0.82584000  0.31650000  1
  C  C177  1  0.21328000  0.72302000  0.39774000  1
  C  C178  1  0.17779000  0.73841000  0.34997000  1
  C  C179  1  0.09512000  0.77400000  0.35274000  1
  C  C180  1  0.04737000  0.78927000  0.40251000  1
  C  C181  1  0.08360000  0.77496000  0.44996000  1
  C  C182  1  0.16648000  0.74808000  0.44658000  1
  C  C183  1  0.03663000  0.77637000  0.50287000  1
  C  C184  1  0.04215000  0.81999000  0.54425000  1
  C  C185  1  0.22564000  0.71360000  0.29740000  1
  C  C186  1  0.23810000  0.76525000  0.26017000  1
  C  C187  1  0.28696000  0.74128500  0.21178000  1
  C  C188  1  0.32474000  0.66600000  0.20094000  1
  C  C189  1  0.31018000  0.61449000  0.23701000  1
  C  C190  1  0.26025000  0.63815000  0.28495000  1
  C  C191  1  0.72105000  0.00669000  0.40507000  1
  C  C192  1  0.77148000  0.97096000  0.44298000  1
  C  C193  1  0.76713000  0.00783000  0.49103000  1
  C  C194  1  0.72227000  0.08311000  0.49651000  1
  C  C195  1  0.80177000  0.96721000  0.53777000  1
  C  C196  1  0.77220000  0.91430000  0.56232000  1
  C  C197  1  0.79057000  0.88819000  0.61303000  1
  C  C198  1  0.83729000  0.91559000  0.63981000  1
  C  C199  1  0.86846000  0.96682000  0.61508000  1
  C  C200  1  0.85248000  0.99127500  0.56366000  1
  C  C201  1  0.25005000  0.18051000  0.97159000  1
  C  C202  1  0.18534000  0.19646000  0.94202000  1
  C  C203  1  0.14158000  0.14934000  0.94544000  1
  C  C204  1  0.15650000  0.09164000  0.98232000  1
  C  C205  1  0.26779000  0.12027000  0.00589000  1
  C  C206  1  0.15782000  0.26638000  0.91256000  1
  C  C207  1  0.08884000  0.32398000  0.93348000  1
  C  C208  1  0.18328000  0.34724500  0.84242000  1
  C  C209  1  0.20431000  0.27801000  0.86641000  1
  C  C210  1  0.67268000  0.09050000  0.94388000  1
  C  C211  1  0.61692000  0.07260000  0.98168000  1
  C  C212  1  0.54028000  0.12382000  0.99348000  1
  C  C213  1  0.51442000  0.18750000  0.96302000  1
  C  C214  1  0.56683000  0.20171000  0.92133000  1
  C  C215  1  0.64572000  0.15336000  0.91206000  1
  C  C216  1  0.53805000  0.26491000  0.88551000  1
  C  C217  1  0.52289000  0.33673000  0.90357000  1
  C  C218  1  0.48478000  0.39720000  0.87288000  1
  C  C219  1  0.46366000  0.38620000  0.82350000  1
  C  C220  1  0.48038000  0.31470000  0.80476000  1
  C  C221  1  0.51734000  0.25410000  0.83570000  1
  C  C222  1  0.28328000  0.40756000  0.02820000  1
  C  C223  1  0.29337000  0.43043000  0.07821000  1
  C  C224  1  0.27339000  0.50573000  0.08861000  1
  C  C225  1  0.25026000  0.45970000  0.99050000  1
  C  C226  1  0.32919000  0.37563000  0.11837000  1
  C  C227  1  0.29133000  0.32685500  0.13965000  1
  C  C228  1  0.33052000  0.26832000  0.17148000  1
  C  C229  1  0.40694000  0.25886000  0.18284000  1
  C  C230  1  0.44364000  0.30886000  0.16344000  1
  C  C231  1  0.40500000  0.36714000  0.13122000  1
  C  C232  1  0.06789000  0.39302500  0.90921000  1
  C  C233  1  0.11538000  0.40480000  0.86398000  1
  C  C234  1  0.75943000  0.05115000  0.94303000  1
  C  C235  1  0.90227000  0.15749000  0.98217000  1
  C  C236  1  0.29406000  0.66958000  0.39888000  1
  C  C237  1  0.45835000  0.73216500  0.43613000  1
  C  C238  1  0.01640000  0.80744000  0.59720000  1
  C  C239  1  0.77863000  0.61581000  0.45683000  1
  C  C240  1  0.78673000  0.56691000  0.50393000  1
  C  C241  1  0.00102000  0.72292000  0.51496000  1
  C  C242  1  0.97114000  0.71368000  0.56762000  1
  C  C243  1  0.98026000  0.75483000  0.60882000  1
  C  C244  1  0.21815000  0.07909000  0.01449000  1
  C  C245  1  0.22195000  0.03301000  0.06303000  1
  C  C246  1  0.63422000  0.99764000  0.00382000  1
  C  C247  1  0.63540000  0.93972000  0.97166000  1
  C  C248  1  0.09951000  0.05401000  0.99401000  1
  C  C249  1  0.37443000  0.62357000  0.57761000  1
  C  C250  1  0.65474000  0.59556000  0.44036000  1
  C  C251  1  0.30742000  0.75975000  0.74286000  1
  C  C252  1  0.34519000  0.68987000  0.65849000  1
  C  C253  1  0.78059000  0.21385000  0.24307000  1
  C  C254  1  0.93335000  0.35073000  0.29653000  1
  C  C255  1  0.92578000  0.42228000  0.31032000  1
  C  C256  1  0.93539000  0.43789500  0.36199000  1
  C  C257  1  0.19497000  0.48849000  0.35765000  1
  C  C258  1  0.21055000  0.47556000  0.30252000  1
  C  C259  1  0.27440000  0.41417000  0.28151000  1
  C  C260  1  0.32065000  0.36377000  0.31571000  1
  C  C261  1  0.78872000  0.89364000  0.85158000  1
  C  C262  1  0.80189000  0.87059000  0.79831000  1
  C  C263  1  0.84748000  0.79746000  0.78426000  1
  H  H264  1  0.71021000  0.68663000  0.00593000  1
  H  H265  1  0.16951000  0.25085000  0.49535000  1
  H  H266  1  0.99863000  0.88629000  0.05061000  1
  H  H267  1  0.50198000  0.47362000  0.51506000  1
  H  H268  1  0.10441000  0.22589000  0.40579000  1
  H  H269  1  0.96153000  0.39413000  0.43965000  1
  H  H270  1  0.95601000  0.23945000  0.32357000  1
  H  H271  1  0.25813000  0.26309000  0.40367000  1
  H  H272  1  0.47801000  0.27523000  0.49707000  1
  H  H273  1  0.22905000  0.44897000  0.43467000  1
  H  H274  1  0.57395000  0.71035000  0.07045000  1
  H  H275  1  0.45801000  0.63741000  0.92373000  1
  H  H276  1  0.43811000  0.98623000  0.99295000  1
  H  H277  1  0.41487000  0.01601000  0.08965000  1
  H  H278  1  0.40741000  0.92090500  0.15627000  1
  H  H279  1  0.42723000  0.79465000  0.12669000  1
  H  H280  1  0.45927000  0.86019000  0.96269000  1
  H  H281  1  0.80712000  0.66623500  0.91328000  1
  H  H282  1  0.02262000  0.67324000  0.01362000  1
  H  H283  1  0.91386000  0.69030000  0.81258000  1
  H  H284  1  0.80927000  0.86133000  0.93231000  1
  H  H285  1  0.66201000  0.15735000  0.32129000  1
  H  H286  1  0.11589000  0.57129000  0.93907000  1
  H  H287  1  0.34126000  0.64480500  0.85742000  1
  H  H288  1  0.54678000  0.20506000  0.27016000  1
  H  H289  1  0.42469000  0.17607000  0.29923000  1
  H  H290  1  0.41795000  0.09970000  0.37907000  1
  H  H291  1  0.53031000  0.05685000  0.43277000  1
  H  H292  1  0.11743000  0.61943000  0.84725000  1
  H  H293  1  0.23344000  0.64953500  0.80476000  1
  H  H294  1  0.83428000  0.38558000  0.53594000  1
  H  H295  1  0.82244000  0.43702000  0.62620000  1
  H  H296  1  0.23771000  0.85879000  0.10183000  1
  H  H297  1  0.19122000  0.04990000  0.19880000  1
  H  H298  1  0.21003000  0.91777000  0.19097000  1
  H  H299  1  0.65978000  0.90657000  0.12188000  1
  H  H300  1  0.66315000  0.80427000  0.06461000  1
  H  H301  1  0.64769000  0.82531000  0.96863000  1
  H  H302  1  0.26184000  0.65978000  0.62298000  1
  H  H303  1  0.22745000  0.72361000  0.70817000  1
  H  H304  1  0.72390000  0.08320000  0.14950000  1
  H  H305  1  0.68807000  0.18281000  0.22059000  1
  H  H306  1  0.89349000  0.17819000  0.53257000  1
  H  H307  1  0.67385000  0.62954000  0.88744000  1
  H  H308  1  0.76542000  0.53508000  0.82298000  1
  H  H309  1  0.80697000  0.46839000  0.45835000  1
  H  H310  1  0.25046000  0.93074000  0.02004000  1
  H  H311  1  0.78726000  0.57145500  0.63868000  1
  H  H312  1  0.52876000  0.12173000  0.51365000  1
  H  H313  1  0.00131000  0.23403000  0.77711000  1
  H  H314  1  0.43412000  0.43304000  0.79982000  1
  H  H315  1  0.34011000  0.59737000  0.94967000  1
  H  H316  1  0.09964000  0.45856000  0.84568000  1
  H  H317  1  0.20254000  0.31782000  0.01334000  1
  H  H318  1  0.40110000  0.14964000  0.92792000  1
  H  H319  1  0.43894000  0.32088000  0.01112000  1
  H  H320  1  0.93320000  0.92248000  0.42850000  1
  H  H321  1  0.96869000  0.70135000  0.38037000  1
  H  H322  1  0.73405000  0.84865000  0.43823000  1
  H  H323  1  0.90402000  0.47912000  0.99826000  1
  H  H324  1  0.66265000  0.48487000  0.03039000  1
  H  H325  1  0.39438000  0.07218000  0.47762000  1
  H  H326  1  0.17750000  0.02806000  0.47990000  1
  H  H327  1  0.04493000  0.21171000  0.60541000  1
  H  H328  1  0.06818000  0.14653000  0.69119000  1
  H  H329  1  0.03507000  0.01635000  0.53551000  1
  H  H330  1  0.05994000  0.95152000  0.62122000  1
  H  H331  1  0.07323000  0.01729000  0.69963000  1
  H  H332  1  0.41705000  0.79842000  0.53234000  1
  H  H333  1  0.35588000  0.98012000  0.38594000  1
  H  H334  1  0.20050000  0.88522000  0.66832000  1
  H  H335  1  0.24623000  0.96537000  0.71977000  1
  H  H336  1  0.33895000  0.02379000  0.67463000  1
  H  H337  1  0.38823000  0.00061000  0.57837000  1
  H  H338  1  0.24585000  0.86443000  0.57159000  1
  H  H339  1  0.32376000  0.86232000  0.32682000  1
  H  H340  1  0.37200000  0.83509500  0.23090000  1
  H  H341  1  0.56379000  0.82369000  0.35689000  1
  H  H342  1  0.61194000  0.78906000  0.26168000  1
  H  H343  1  0.51626000  0.79532000  0.19870000  1
  H  H344  1  0.29209000  0.23993000  0.59025000  1
  H  H345  1  0.32604000  0.17206000  0.67376000  1
  H  H346  1  0.56172000  0.05403500  0.59720000  1
  H  H347  1  0.46068000  0.07936000  0.67740000  1
  H  H348  1  0.56742000  0.47268000  0.95246000  1
  H  H349  1  0.66024000  0.37852000  0.88818000  1
  H  H350  1  0.75837000  0.40973000  0.82309000  1
  H  H351  1  0.85128000  0.23084000  0.07700000  1
  H  H352  1  0.83539000  0.40143000  0.92345000  1
  H  H353  1  0.63445000  0.41731000  0.20435000  1
  H  H354  1  0.72057000  0.46779000  0.24695000  1
  H  H355  1  0.85393000  0.45652000  0.20118000  1
  H  H356  1  0.90095000  0.39749000  0.11193000  1
  H  H357  1  0.68073000  0.35765000  0.11513000  1
  H  H358  1  0.75740000  0.24768000  0.89880000  1
  H  H359  1  0.77377000  0.20711000  0.80479000  1
  H  H360  1  0.98545000  0.27505000  0.87089000  1
  H  H361  1  0.89589000  0.19965000  0.74407000  1
  H  H362  1  0.85600000  0.64392000  0.11078000  1
  H  H363  1  0.90068000  0.56660000  0.18876000  1
  H  H364  1  0.05944000  0.50056000  0.01022000  1
  H  H365  1  0.10270000  0.42310000  0.08834000  1
  H  H366  1  0.02335000  0.45585000  0.17759000  1
  H  H367  1  0.67615000  0.66757000  0.34899000  1
  H  H368  1  0.85504000  0.72762000  0.18828000  1
  H  H369  1  0.68494000  0.85357000  0.35192000  1
  H  H370  1  0.84907000  0.65649000  0.27125000  1
  H  H371  1  0.06741000  0.78503000  0.31631000  1
  H  H372  1  0.29666000  0.78100000  0.18306000  1
  H  H373  1  0.36576000  0.64760000  0.16480000  1
  H  H374  1  0.33856000  0.55618000  0.22822000  1
  H  H375  1  0.25177000  0.59803000  0.31361000  1
  H  H376  1  0.21109000  0.82363000  0.26909000  1
  H  H377  1  0.07026000  0.86080000  0.53564000  1
  H  H378  1  0.71940000  0.97670000  0.37012000  1
  H  H379  1  0.72244000  0.11252000  0.53212000  1
  H  H380  1  0.73235000  0.89581000  0.54311000  1
  H  H381  1  0.76759000  0.84759000  0.63193000  1
  H  H382  1  0.87608000  0.03173000  0.54505000  1
  H  H383  1  0.90470000  0.98780000  0.63588000  1
  H  H384  1  0.85133000  0.89549000  0.67907000  1
  H  H385  1  0.09197000  0.16103000  0.92257000  1
  H  H386  1  0.21997000  0.35649000  0.80741000  1
  H  H387  1  0.25777000  0.23403000  0.85005000  1
  H  H388  1  0.05259000  0.31567000  0.96915000  1
  H  H389  1  0.68603000  0.16469000  0.88017000  1
  H  H390  1  0.53903000  0.34565000  0.94183000  1
  H  H391  1  0.47117000  0.45257000  0.88753000  1
  H  H392  1  0.52810000  0.19892000  0.82162000  1
  H  H393  1  0.46378000  0.30628000  0.76658000  1
  H  H394  1  0.28034000  0.52362000  0.12722000  1
  H  H395  1  0.24240000  0.44142000  0.95222000  1
  H  H396  1  0.30192000  0.22992000  0.18696000  1
  H  H397  1  0.50254000  0.30178000  0.17270000  1
  H  H398  1  0.43485000  0.40431000  0.11493000  1
  H  H399  1  0.23261000  0.33319000  0.13031000  1
  H  H400  1  0.77714000  0.86130000  0.18710000  1
  H  H401  1  0.69272000  0.92418000  0.26908000  1
  H  H402  1  0.01531000  0.43758000  0.92572000  1
  H  H403  1  0.91318000  0.46548000  0.28088000  1
  H  H404  1  0.77617000  0.90927000  0.76803000  1
  H  H405  1  0.36833000  0.31503000  0.29925000  1
  H  H406  1  0.02405000  0.83878000  0.62923000  1
  H  H407  1  0.19428000  0.73810000  0.48300000  1
  H  H408  1  0.86903000  0.65653000  0.47477000  1
  H  H409  1  0.76511000  0.65449000  0.56099000  1
  H  H410  1  0.00018000  0.68614000  0.48408000  1
  H  H411  1  0.94324000  0.67286000  0.57668000  1
  H  H412  1  0.95906000  0.74618000  0.64976000  1
  H  H413  1  0.31633000  0.10973000  0.02961000  1
  H  H414  1  0.19590000  0.12432000  0.11758000  1
  H  H415  1  0.49834000  0.11123000  0.02364000  1
  H  H416  1  0.62687000  0.94895000  0.92999000  1
  H  H417  1  0.64048000  0.03018000  0.08358000  1
  H  H418  1  0.43790000  0.21258000  0.20640000  1
  H  H419  1  0.11977000  0.93293000  0.86925000  1
  H  H420  1  0.63669000  0.46251000  0.32901000  1
  H  H421  1  0.40546000  0.69052000  0.65562000  1
  H  H422  1  0.36704000  0.76186000  0.73958000  1
  H  H423  1  0.86827000  0.07977000  0.20293000  1
  H  H424  1  0.84451000  0.20149000  0.23927000  1
  H  H425  1  0.92664000  0.33852000  0.25638000  1
  H  H426  1  0.92979000  0.49324000  0.37257000  1
  H  H427  1  0.14631000  0.53677000  0.37381000  1
  H  H428  1  0.17410000  0.51390000  0.27600000  1
  H  H429  1  0.28756000  0.40540000  0.23880000  1
  H  H430  1  0.75312000  0.95014000  0.86236000  1
  H  H431  1  0.85762000  0.77969500  0.74298000  1
  O  O432  1  0.01940000  0.77542000  0.87768000  1
  O  O433  1  0.17920000  0.68782000  0.03786000  1
  O  O434  1  0.15852000  0.86482000  0.98286000  1
  O  O435  1  0.03749000  0.78966000  0.96357000  1
  O  O436  1  0.33009000  0.76469000  0.93307000  1
  O  O437  1  0.30074000  0.76632000  0.02476000  1
  O  O438  1  0.98935000  0.92801000  0.02547000  1
  O  O439  1  0.65067000  0.29163000  0.28365000  1
  O  O440  1  0.76062000  0.31396000  0.30290000  1
  O  O441  1  0.46920000  0.36906000  0.35694000  1
  O  O442  1  0.64275000  0.23823000  0.49987000  1
  O  O443  1  0.65019000  0.23621000  0.40983000  1
  O  O444  1  0.65992000  0.40648000  0.44834000  1
  O  O445  1  0.50456000  0.37678000  0.43884000  1
  O  O446  1  0.81149000  0.27529000  0.40643000  1
  O  O447  1  0.77909000  0.29045000  0.49733000  1
  O  O448  1  0.50454000  0.50972000  0.48674000  1
  O  O449  1  0.82058000  0.99598000  0.07810000  1
  O  O450  1  0.17574000  0.79696000  0.79176000  1
  O  O451  1  0.34757000  0.59773000  0.53927000  1
  O  O452  1  0.28496000  0.65228000  0.08464000  1
  O  O453  1  0.80998000  0.07680000  0.91358000  1
  O  O454  1  0.93800000  0.13084000  0.93492000  1
  O  O455  1  0.88712000  0.11256000  0.01936000  1
  O  O456  1  0.35346000  0.67532000  0.36468000  1
  O  O457  1  0.49198000  0.70582000  0.38848000  1
  O  O458  1  0.43582000  0.68884000  0.47080000  1
  O  O459  1  0.27598000  0.81434000  0.83112000  1
  O  O460  1  0.12114000  0.88800000  0.88968000  1
  O  O461  1  0.08032000  0.02254000  0.95522000  1
  O  O462  1  0.78501000  0.99217000  0.97239000  1
  O  O463  1  0.95590000  0.94560000  0.93106000  1
  O  O464  1  0.91731000  0.01463000  0.11933000  1
  O  O465  1  0.06169000  0.05883000  0.04217000  1
  O  O466  1  0.62513000  0.42548000  0.35346000  1
  O  O467  1  0.63157000  0.55939000  0.40649000  1
  O  O468  1  0.30446000  0.61452000  0.43274000  1
  O  O469  1  0.47259000  0.53018500  0.39165000  1
  O  O470  1  0.45073000  0.61385000  0.57549000  1
  O  O471  1  0.61411000  0.61561000  0.48765000  1
  Zn  Zn472  1  0.18318000  0.78702000  0.02704000  1
  Zn  Zn473  1  0.22566000  0.83026000  0.90996000  1
  Zn  Zn474  1  0.05645000  0.90633000  0.95763000  1
  Zn  Zn475  1  0.09305000  0.82245000  0.85283000  1
  Zn  Zn476  1  0.66155000  0.33151000  0.49399000  1
  Zn  Zn477  1  0.71984000  0.35360000  0.37844000  1
  Zn  Zn478  1  0.56573000  0.46815000  0.42039000  1
  Zn  Zn479  1  0.56782000  0.37494000  0.32406000  1
  Zn  Zn480  1  0.93016000  0.04037500  0.91166000  1
  Zn  Zn481  1  0.47088000  0.62022000  0.36706000  1
  Zn  Zn482  1  0.88433000  0.96105000  0.00263000  1
  Zn  Zn483  1  0.98613000  0.01523000  0.05507000  1
  Zn  Zn484  1  0.40248000  0.56230000  0.46304000  1
  Zn  Zn485  1  0.52443000  0.59007000  0.50985000  1
