# generated using pymatgen
data_CoH16C30(NO2)3
_symmetry_space_group_name_H-M   'P 1'
_cell_length_a   10.12059000
_cell_length_b   16.26091000
_cell_length_c   24.71941000
_cell_angle_alpha   106.34624000
_cell_angle_beta   93.12042000
_cell_angle_gamma   104.24007000
_symmetry_Int_Tables_number   1
_chemical_formula_structural   CoH16C30(NO2)3
_chemical_formula_sum   'Co4 H64 C120 N12 O24'
_cell_volume   3750.09704703
_cell_formula_units_Z   4
loop_
 _symmetry_equiv_pos_site_id
 _symmetry_equiv_pos_as_xyz
  1  'x, y, z'
loop_
 _atom_site_type_symbol
 _atom_site_label
 _atom_site_symmetry_multiplicity
 _atom_site_fract_x
 _atom_site_fract_y
 _atom_site_fract_z
 _atom_site_occupancy
  Co  Co0  1  0.59710000  0.15643000  0.03806000  1
  Co  Co1  1  0.03609000  0.65257000  0.54104000  1
  Co  Co2  1  0.40290000  0.84357000  0.96194000  1
  Co  Co3  1  0.96391000  0.34743000  0.45896000  1
  H  H4  1  0.25403000  0.99357000  0.09756000  1
  H  H5  1  0.83080000  0.00113000  0.09734000  1
  H  H6  1  0.11324000  0.17661000  0.02866000  1
  H  H7  1  0.91032000  0.98762000  0.19544000  1
  H  H8  1  0.86553000  0.86934000  0.24241000  1
  H  H9  1  0.04717000  0.71007000  0.11387000  1
  H  H10  1  0.09359000  0.82983000  0.06707000  1
  H  H11  1  0.65509000  0.49274000  0.10167000  1
  H  H12  1  0.54747000  0.33265000  0.04341000  1
  H  H13  1  0.78699000  0.24240000  0.14224000  1
  H  H14  1  0.89346000  0.39710000  0.20815000  1
  H  H15  1  0.06727000  0.53643000  0.32982000  1
  H  H16  1  0.09297000  0.54274000  0.43196000  1
  H  H17  1  0.92046000  0.75488000  0.47733000  1
  H  H18  1  0.89660000  0.76139000  0.37823000  1
  H  H19  1  0.24494000  0.87807000  0.33135000  1
  H  H20  1  0.54105000  0.67182000  0.53208000  1
  H  H21  1  0.26403000  0.48328000  0.59400000  1
  H  H22  1  0.69353000  0.49032000  0.59799000  1
  H  H23  1  0.56317000  0.32902000  0.56703000  1
  H  H24  1  0.53614000  0.21005000  0.61373000  1
  H  H25  1  0.32850000  0.35139000  0.74043000  1
  H  H26  1  0.34753000  0.46737000  0.69196000  1
  H  H27  1  0.67814000  0.26039000  0.86339000  1
  H  H28  1  0.73311000  0.25823000  0.96210000  1
  H  H29  1  0.40886000  0.03328000  0.93974000  1
  H  H30  1  0.34127000  0.02609000  0.83995000  1
  H  H31  1  0.38868000  0.88780000  0.69820000  1
  H  H32  1  0.26343000  0.73523000  0.63465000  1
  H  H33  1  0.97342000  0.83081000  0.56573000  1
  H  H34  1  0.09586000  0.98928000  0.62169000  1
  H  H35  1  0.68732000  0.40718000  0.80960000  1
  H  H36  1  0.74597000  0.00644000  0.90244000  1
  H  H37  1  0.16920000  0.99887000  0.90266000  1
  H  H38  1  0.88676000  0.82339000  0.97134000  1
  H  H39  1  0.08969000  0.01238000  0.80456000  1
  H  H40  1  0.13447000  0.13066000  0.75759000  1
  H  H41  1  0.95283000  0.28993000  0.88613000  1
  H  H42  1  0.90641000  0.17017000  0.93293000  1
  H  H43  1  0.34491000  0.50726000  0.89833000  1
  H  H44  1  0.45254000  0.66735000  0.95659000  1
  H  H45  1  0.21301000  0.75760000  0.85776000  1
  H  H46  1  0.10655000  0.60290000  0.79185000  1
  H  H47  1  0.93273000  0.46358000  0.67018000  1
  H  H48  1  0.90704000  0.45727000  0.56803000  1
  H  H49  1  0.07954000  0.24512000  0.52267000  1
  H  H50  1  0.10340000  0.23861000  0.62177000  1
  H  H51  1  0.75506000  0.12193000  0.66865000  1
  H  H52  1  0.45895000  0.32818000  0.46792000  1
  H  H53  1  0.73597000  0.51673000  0.40599000  1
  H  H54  1  0.30647000  0.50968000  0.40201000  1
  H  H55  1  0.43683000  0.67098000  0.43297000  1
  H  H56  1  0.46386000  0.78995000  0.38627000  1
  H  H57  1  0.67150000  0.64862000  0.25957000  1
  H  H58  1  0.65247000  0.53263000  0.30804000  1
  H  H59  1  0.32186000  0.73961000  0.13661000  1
  H  H60  1  0.26689000  0.74177000  0.03790000  1
  H  H61  1  0.59114000  0.96673000  0.06026000  1
  H  H62  1  0.65874000  0.97391000  0.16005000  1
  H  H63  1  0.61132000  0.11220000  0.30180000  1
  H  H64  1  0.73657000  0.26477000  0.36535000  1
  H  H65  1  0.02658000  0.16920000  0.43427000  1
  H  H66  1  0.90414000  0.01073000  0.37831000  1
  H  H67  1  0.31268000  0.59283000  0.19040000  1
  C  C68  1  0.33944000  0.12581000  0.05056000  1
  C  C69  1  0.19802000  0.08905000  0.06264000  1
  C  C70  1  0.17060000  0.02059000  0.08787000  1
  C  C71  1  0.03872000  0.98915000  0.10164000  1
  C  C72  1  0.93452000  0.02600000  0.08848000  1
  C  C73  1  0.96016000  0.09249000  0.06163000  1
  C  C74  1  0.09242000  0.12448000  0.04906000  1
  C  C75  1  0.84674000  0.12876000  0.04615000  1
  C  C76  1  0.00885000  0.91780000  0.12905000  1
  C  C77  1  0.95636000  0.78247000  0.18196000  1
  C  C78  1  0.94125000  0.92702000  0.17773000  1
  C  C79  1  0.91631000  0.86074000  0.20440000  1
  C  C80  1  0.01909000  0.77162000  0.13198000  1
  C  C81  1  0.04675000  0.83880000  0.10623000  1
  C  C82  1  0.93266000  0.70980000  0.20837000  1
  C  C83  1  0.86799000  0.62300000  0.17634000  1
  C  C84  1  0.85061000  0.54925000  0.19513000  1
  C  C85  1  0.95509000  0.64477000  0.28490000  1
  C  C86  1  0.97911000  0.72091000  0.26588000  1
  C  C87  1  0.78529000  0.45734000  0.15903000  1
  C  C88  1  0.68717000  0.43896000  0.11176000  1
  C  C89  1  0.62822000  0.35104000  0.07898000  1
  C  C90  1  0.76001000  0.29984000  0.13544000  1
  C  C91  1  0.81958000  0.38544000  0.17132000  1
  C  C92  1  0.98385000  0.65046000  0.34554000  1
  C  C93  1  0.03755000  0.58774000  0.36153000  1
  C  C94  1  0.05148000  0.59054000  0.41835000  1
  C  C95  1  0.95789000  0.71076000  0.44385000  1
  C  C96  1  0.94398000  0.71338000  0.38826000  1
  C  C97  1  0.06076000  0.81075000  0.30381000  1
  C  C98  1  0.77390000  0.62724000  0.55499000  1
  C  C99  1  0.63229000  0.58588000  0.56473000  1
  C  C100  1  0.52298000  0.61771000  0.55079000  1
  C  C101  1  0.39033000  0.57986000  0.56088000  1
  C  C102  1  0.36773000  0.51152000  0.58626000  1
  C  C103  1  0.47656000  0.47840000  0.59968000  1
  C  C104  1  0.60805000  0.51529000  0.58796000  1
  C  C105  1  0.27482000  0.61379000  0.54455000  1
  C  C106  1  0.45711000  0.40643000  0.62645000  1
  C  C107  1  0.51082000  0.33351000  0.60477000  1
  C  C108  1  0.49563000  0.26676000  0.63085000  1
  C  C109  1  0.43118000  0.27311000  0.68022000  1
  C  C110  1  0.37888000  0.34619000  0.70233000  1
  C  C111  1  0.38978000  0.41135000  0.67501000  1
  C  C112  1  0.41736000  0.20122000  0.70706000  1
  C  C113  1  0.46930000  0.21509000  0.76436000  1
  C  C114  1  0.45188000  0.14003000  0.78442000  1
  C  C115  1  0.33085000  0.04266000  0.69715000  1
  C  C116  1  0.34875000  0.11462000  0.67652000  1
  C  C117  1  0.49933000  0.14484000  0.84344000  1
  C  C118  1  0.61267000  0.21016000  0.87856000  1
  C  C119  1  0.64512000  0.20949000  0.93381000  1
  C  C120  1  0.46501000  0.08303000  0.92156000  1
  C  C121  1  0.42748000  0.07933000  0.86601000  1
  C  C122  1  0.25506000  0.95108000  0.66334000  1
  C  C123  1  0.29901000  0.87794000  0.66832000  1
  C  C124  1  0.22941000  0.79316000  0.63340000  1
  C  C125  1  0.06948000  0.84749000  0.59348000  1
  C  C126  1  0.13677000  0.93471000  0.62523000  1
  C  C127  1  0.53336000  0.30897000  0.80119000  1
  C  C128  1  0.66056000  0.87419000  0.94944000  1
  C  C129  1  0.80198000  0.91095000  0.93735000  1
  C  C130  1  0.82940000  0.97941000  0.91213000  1
  C  C131  1  0.96128000  0.01085000  0.89836000  1
  C  C132  1  0.06549000  0.97400000  0.91152000  1
  C  C133  1  0.03984000  0.90752000  0.93837000  1
  C  C134  1  0.90758000  0.87553000  0.95094000  1
  C  C135  1  0.15326000  0.87124000  0.95385000  1
  C  C136  1  0.99116000  0.08220000  0.87095000  1
  C  C137  1  0.04365000  0.21754000  0.81804000  1
  C  C138  1  0.05875000  0.07298000  0.82227000  1
  C  C139  1  0.08370000  0.13927000  0.79560000  1
  C  C140  1  0.98091000  0.22838000  0.86801000  1
  C  C141  1  0.95325000  0.16121000  0.89377000  1
  C  C142  1  0.06734000  0.29020000  0.79163000  1
  C  C143  1  0.13201000  0.37700000  0.82366000  1
  C  C144  1  0.14939000  0.45075000  0.80487000  1
  C  C145  1  0.04491000  0.35523000  0.71510000  1
  C  C146  1  0.02089000  0.27910000  0.73412000  1
  C  C147  1  0.21471000  0.54266000  0.84097000  1
  C  C148  1  0.31283000  0.56105000  0.88824000  1
  C  C149  1  0.37178000  0.64896000  0.92102000  1
  C  C150  1  0.23999000  0.70017000  0.86456000  1
  C  C151  1  0.18042000  0.61456000  0.82868000  1
  C  C152  1  0.01616000  0.34954000  0.65446000  1
  C  C153  1  0.96245000  0.41227000  0.63847000  1
  C  C154  1  0.94852000  0.40946000  0.58165000  1
  C  C155  1  0.04211000  0.28924000  0.55615000  1
  C  C156  1  0.05602000  0.28662000  0.61174000  1
  C  C157  1  0.93925000  0.18925000  0.69619000  1
  C  C158  1  0.22610000  0.37277000  0.44501000  1
  C  C159  1  0.36771000  0.41413000  0.43527000  1
  C  C160  1  0.47702000  0.38229000  0.44921000  1
  C  C161  1  0.60967000  0.42014000  0.43912000  1
  C  C162  1  0.63227000  0.48848000  0.41374000  1
  C  C163  1  0.52344000  0.52160000  0.40031000  1
  C  C164  1  0.39195000  0.48472000  0.41203000  1
  C  C165  1  0.72518000  0.38621000  0.45545000  1
  C  C166  1  0.54290000  0.59357000  0.37355000  1
  C  C167  1  0.48918000  0.66649000  0.39523000  1
  C  C168  1  0.50437000  0.73324000  0.36915000  1
  C  C169  1  0.56882000  0.72690000  0.31978000  1
  C  C170  1  0.62112000  0.65381000  0.29767000  1
  C  C171  1  0.61022000  0.58866000  0.32499000  1
  C  C172  1  0.58264000  0.79879000  0.29294000  1
  C  C173  1  0.53070000  0.78492000  0.23564000  1
  C  C174  1  0.54812000  0.85998000  0.21558000  1
  C  C175  1  0.66915000  0.95734000  0.30285000  1
  C  C176  1  0.65125000  0.88539000  0.32348000  1
  C  C177  1  0.50067000  0.85516000  0.15656000  1
  C  C178  1  0.38733000  0.78984000  0.12144000  1
  C  C179  1  0.35488000  0.79051000  0.06619000  1
  C  C180  1  0.53499000  0.91697000  0.07844000  1
  C  C181  1  0.57252000  0.92067000  0.13399000  1
  C  C182  1  0.74494000  0.04892000  0.33666000  1
  C  C183  1  0.70099000  0.12207000  0.33168000  1
  C  C184  1  0.77060000  0.20684000  0.36660000  1
  C  C185  1  0.93052000  0.15252000  0.40652000  1
  C  C186  1  0.86323000  0.06530000  0.37477000  1
  C  C187  1  0.46665000  0.69103000  0.19881000  1
  N  N188  1  0.89681000  0.56188000  0.25018000  1
  N  N189  1  0.66567000  0.28217000  0.08973000  1
  N  N190  1  0.38654000  0.05696000  0.75103000  1
  N  N191  1  0.57136000  0.14821000  0.95574000  1
  N  N192  1  0.11661000  0.77727000  0.59580000  1
  N  N193  1  0.01170000  0.65115000  0.45931000  1
  N  N194  1  0.10319000  0.43812000  0.74981000  1
  N  N195  1  0.33433000  0.71783000  0.91027000  1
  N  N196  1  0.61346000  0.94304000  0.24897000  1
  N  N197  1  0.42864000  0.85179000  0.04426000  1
  N  N198  1  0.88339000  0.22274000  0.40420000  1
  N  N199  1  0.98830000  0.34885000  0.54069000  1
  O  O200  1  0.43295000  0.08728000  0.06046000  1
  O  O201  1  0.36723000  0.19149000  0.03170000  1
  O  O202  1  0.72715000  0.09627000  0.06053000  1
  O  O203  1  0.86647000  0.18789000  0.02172000  1
  O  O204  1  0.15610000  0.58332000  0.56026000  1
  O  O205  1  0.29305000  0.67098000  0.51851000  1
  O  O206  1  0.80031000  0.69627000  0.53961000  1
  O  O207  1  0.86755000  0.58800000  0.56327000  1
  O  O208  1  0.19806000  0.81762000  0.30693000  1
  O  O209  1  0.01329000  0.87096000  0.32856000  1
  O  O210  1  0.65827000  0.34435000  0.78662000  1
  O  O211  1  0.47997000  0.35011000  0.83879000  1
  O  O212  1  0.56705000  0.91273000  0.93954000  1
  O  O213  1  0.63277000  0.80851000  0.96829000  1
  O  O214  1  0.27285000  0.90373000  0.93947000  1
  O  O215  1  0.13353000  0.81211000  0.97828000  1
  O  O216  1  0.84390000  0.41668000  0.43974000  1
  O  O217  1  0.70695000  0.32902000  0.48149000  1
  O  O218  1  0.19969000  0.30374000  0.46039000  1
  O  O219  1  0.13245000  0.41201000  0.43673000  1
  O  O220  1  0.80194000  0.18238000  0.69307000  1
  O  O221  1  0.98671000  0.12904000  0.67144000  1
  O  O222  1  0.34173000  0.65566000  0.21338000  1
  O  O223  1  0.52003000  0.64989000  0.16121000  1
