# generated using pymatgen
data_H12C19N4
_symmetry_space_group_name_H-M   'P 1'
_cell_length_a   9.95663333
_cell_length_b   29.32390000
_cell_length_c   29.32400000
_cell_angle_alpha   120.00033842
_cell_angle_beta   90.00000000
_cell_angle_gamma   90.00000000
_symmetry_Int_Tables_number   1
_chemical_formula_structural   H12C19N4
_chemical_formula_sum   'H36 C57 N12'
_cell_volume   7414.58085126
_cell_formula_units_Z   3
loop_
 _symmetry_equiv_pos_site_id
 _symmetry_equiv_pos_as_xyz
  1  'x, y, z'
loop_
 _atom_site_type_symbol
 _atom_site_label
 _atom_site_symmetry_multiplicity
 _atom_site_fract_x
 _atom_site_fract_y
 _atom_site_fract_z
 _atom_site_occupancy
  C  1  1  0.85603300  0.96937500  0.48523000  1
  C  10  1  0.98054400  0.94207000  0.47158100  1
  C  11  1  0.72530500  0.94114100  0.47110900  1
  C  16  1  0.00139900  0.63619300  0.35944900  1
  C  18  1  0.00138800  0.63619300  0.27783500  1
  C  20  1  0.00140300  0.71780700  0.35944900  1
  C  22  1  0.99988033  0.60806200  0.22157300  1
  C  23  1  0.99821400  0.55220900  0.19256800  1
  C  24  1  0.99391800  0.52442500  0.13716100  1
  C  25  1  0.99121000  0.55177600  0.10900500  1
  C  26  1  0.99391100  0.60728800  0.13716200  1
  C  27  1  0.99822400  0.63490900  0.19256700  1
  C  28  1  0.99989533  0.60806200  0.38758000  1
  C  29  1  0.99825300  0.55221000  0.36073400  1
  C  30  1  0.99396400  0.52442600  0.38835400  1
  C  31  1  0.99124400  0.55177900  0.44386600  1
  C  32  1  0.99394100  0.60728900  0.47121700  1
  C  33  1  0.99823200  0.63491000  0.44343400  1
  C  34  1  0.99988833  0.77406900  0.38758000  1
  C  35  1  0.99823300  0.80307600  0.44343500  1
  C  36  1  0.99397800  0.85848300  0.47121900  1
  C  37  1  0.99126800  0.88664200  0.44386700  1
  C  38  1  0.99395700  0.85848300  0.38835700  1
  C  39  1  0.99824500  0.80307700  0.36073500  1
  C  52  1  0.99973000  0.35726700  0.63837200  1
  C  54  1  0.99972900  0.35726900  0.71998300  1
  C  56  1  0.99972100  0.27566000  0.63837400  1
  C  58  1  0.99865100  0.38539800  0.77624200  1
  C  59  1  0.99748500  0.44125600  0.80525200  1
  C  60  1  0.99438900  0.46904700  0.86067100  1
  C  61  1  0.99278700  0.44169400  0.88883200  1
  C  62  1  0.99442200  0.38618000  0.86067300  1
  C  63  1  0.99749000  0.35855100  0.80525200  1
  C  64  1  0.99864000  0.38539800  0.61024300  1
  C  65  1  0.99745500  0.44125400  0.63709100  1
  C  66  1  0.99437600  0.46904600  0.60946300  1
  C  67  1  0.99274600  0.44169200  0.55394900  1
  C  68  1  0.99436900  0.38617800  0.52659500  1
  C  69  1  0.99747200  0.35855000  0.55438700  1
  C  70  1  0.99864000  0.21940000  0.61024400  1
  C  71  1  0.99745100  0.19039100  0.55438700  1
  C  72  1  0.99435900  0.13496900  0.52659300  1
  C  73  1  0.99273400  0.10681000  0.55394800  1
  C  74  1  0.99441900  0.13496800  0.60946100  1
  C  75  1  0.99748100  0.19039000  0.63709100  1
  C  88  1  0.98447000  0.46937700  0.94420100  1
  C  89  1  0.85992900  0.48257100  0.97058300  1
  C  90  1  0.85602300  0.51040800  0.02625900  1
  C  91  1  0.98052200  0.52406200  0.05357300  1
  C  95  1  0.72528100  0.52452000  0.05448400  1
  C  99  1  0.98445000  0.46937700  0.52626500  1
  C  100  1  0.85991500  0.48257100  0.51307100  1
  C  101  1  0.85602800  0.51041000  0.48523200  1
  C  102  1  0.98053300  0.52406300  0.47157700  1
  C  106  1  0.72529400  0.52452600  0.47111900  1
  C  110  1  0.98444500  0.05144000  0.52626400  1
  C  111  1  0.85991100  0.02504800  0.51306400  1
  H  3  1  0.63980100  0.96807000  0.48457100  1
  H  40  1  0.99098700  0.48412400  0.36762200  1
  H  41  1  0.99882700  0.53082800  0.32047800  1
  H  42  1  0.99100800  0.62802100  0.51151900  1
  H  43  1  0.99884700  0.67516500  0.46481500  1
  H  44  1  0.99885800  0.78420200  0.46481600  1
  H  45  1  0.99102700  0.87805200  0.51152000  1
  H  46  1  0.99881600  0.78420300  0.32048000  1
  H  47  1  0.99098300  0.87805200  0.36762700  1
  H  48  1  0.99882200  0.67516400  0.21144100  1
  H  49  1  0.99098300  0.62802000  0.11759100  1
  H  50  1  0.99100800  0.48412300  0.11759100  1
  H  51  1  0.99884600  0.53082700  0.21144100  1
  H  76  1  0.99218800  0.50935600  0.63019500  1
  H  77  1  0.99781700  0.46263400  0.67734700  1
  H  78  1  0.99216300  0.36544600  0.48628500  1
  H  79  1  0.99779100  0.31829300  0.53300600  1
  H  80  1  0.99779300  0.20926800  0.53300800  1
  H  81  1  0.99214800  0.11539400  0.48628600  1
  H  82  1  0.99780700  0.20926800  0.67734700  1
  H  83  1  0.99216800  0.11539200  0.63019600  1
  H  84  1  0.99781700  0.31829500  0.78637400  1
  H  85  1  0.99220700  0.36544700  0.88024700  1
  H  86  1  0.99217700  0.50935800  0.88025000  1
  H  87  1  0.99778800  0.46263500  0.78637500  1
  H  93  1  0.77268200  0.47189500  0.94922800  1
  H  96  1  0.63979000  0.51105600  0.02754900  1
  H  97  1  0.71777500  0.56720800  0.07927900  1
  H  98  1  0.71777000  0.50662900  0.07927800  1
  H  104  1  0.77266000  0.47189500  0.52374600  1
  H  107  1  0.63979500  0.51106100  0.48458400  1
  H  108  1  0.71779400  0.50663500  0.42843200  1
  H  109  1  0.71779400  0.56721300  0.48901000  1
  H  112  1  0.77265500  0.04639900  0.52373500  1
  H  114  1  0.71780500  0.91634600  0.48900300  1
  H  115  1  0.71781400  0.91634500  0.42842400  1
  N  2  1  0.09613800  0.97054900  0.48582600  1
  N  17  1  0.00123700  0.61069200  0.30589200  1
  N  19  1  0.00123600  0.68975100  0.30589300  1
  N  21  1  0.00124600  0.68975100  0.38495100  1
  N  53  1  0.99961900  0.38277200  0.69193000  1
  N  55  1  0.99961500  0.30371100  0.69192800  1
  N  57  1  0.99961400  0.30371300  0.61287100  1
  N  92  1  0.09612900  0.50982500  0.02510500  1
  N  94  1  0.09827700  0.48407000  0.97359000  1
  N  103  1  0.09613000  0.50982300  0.48581500  1
  N  105  1  0.09826400  0.48406900  0.51157300  1
  N  113  1  0.09826300  0.02205900  0.51157900  1
