# generated using pymatgen
data_Zn2H36C41(N2O3)4
_symmetry_space_group_name_H-M   'P 1'
_cell_length_a   9.26097000
_cell_length_b   13.63126000
_cell_length_c   20.53061000
_cell_angle_alpha   86.39667000
_cell_angle_beta   79.15206000
_cell_angle_gamma   70.28180000
_symmetry_Int_Tables_number   1
_chemical_formula_structural   Zn2H36C41(N2O3)4
_chemical_formula_sum   'Zn4 H72 C82 N16 O24'
_cell_volume   2396.18626254
_cell_formula_units_Z   2
loop_
 _symmetry_equiv_pos_site_id
 _symmetry_equiv_pos_as_xyz
  1  'x, y, z'
loop_
 _atom_site_type_symbol
 _atom_site_label
 _atom_site_symmetry_multiplicity
 _atom_site_fract_x
 _atom_site_fract_y
 _atom_site_fract_z
 _atom_site_occupancy
  Zn  Zn1  1  0.35223000  0.75618000  0.51104000  1.0
  Zn  Zn2  1  0.89272000  0.75641000  0.98903000  1.0
  Zn  Zn3  1  0.64778000  0.24382000  0.48896000  1.0
  Zn  Zn4  1  0.10729000  0.24359000  0.01098000  1.0
  H  H1  1  0.97239000  0.30312000  0.82836000  1.0
  H  H2  1  0.99099000  0.38692000  0.75878000  1.0
  H  H3  1  0.22550000  0.49745000  0.54776000  1.0
  H  H4  1  0.61913000  0.66196000  0.31089000  1.0
  H  H5  1  0.02894000  0.40987000  0.87888000  1.0
  H  H6  1  0.61106000  0.74787000  0.92135000  1.0
  H  H7  1  0.57024000  0.61619000  0.85427000  1.0
  H  H8  1  0.84986000  0.00980000  0.62929000  1.0
  H  H9  1  0.02285000  0.85692000  0.55827000  1.0
  H  H10  1  0.25884000  0.09668000  0.62955000  1.0
  H  H11  1  0.41139000  0.94358000  0.55812000  1.0
  H  H12  1  0.04115000  0.26249000  0.66218000  1.0
  H  H13  1  0.09540000  0.17304000  0.72857000  1.0
  H  H14  1  0.04944000  0.54964000  0.94363000  1.0
  H  H15  1  0.84908000  0.74658000  0.44846000  1.0
  H  H16  1  0.71516000  0.68757000  0.43787000  1.0
  H  H17  1  0.43043000  0.01206000  0.36696000  1.0
  H  H18  1  0.48787000  0.07633000  0.29748000  1.0
  H  H19  1  0.72655000  0.30226000  0.67078000  1.0
  H  H20  1  0.62294000  0.38562000  0.74047000  1.0
  H  H21  1  0.27875000  0.49785000  0.95068000  1.0
  H  H22  1  0.72086000  0.66164000  0.18946000  1.0
  H  H23  1  0.55995000  0.40989000  0.62160000  1.0
  H  H24  1  0.64135000  0.74811000  0.57910000  1.0
  H  H25  1  0.81395000  0.61652000  0.64576000  1.0
  H  H26  1  0.14058000  0.01095000  0.87039000  1.0
  H  H27  1  0.12078000  0.85807000  0.94148000  1.0
  H  H28  1  0.64527000  0.09653000  0.87063000  1.0
  H  H29  1  0.64632000  0.94307000  0.94189000  1.0
  H  H30  1  0.69626000  0.26270000  0.83757000  1.0
  H  H31  1  0.73258000  0.17238000  0.77135000  1.0
  H  H32  1  0.39990000  0.54965000  0.55726000  1.0
  H  H33  1  0.40723000  0.74711000  0.04989000  1.0
  H  H34  1  0.59788000  0.68775000  0.06245000  1.0
  H  H35  1  0.55725000  0.01158000  0.13250000  1.0
  H  H36  1  0.43618000  0.07580000  0.20194000  1.0
  H  H37  1  0.02761000  0.69688000  0.17164000  1.0
  H  H38  1  0.00901000  0.61307000  0.24122000  1.0
  H  H39  1  0.77450000  0.50254000  0.45224000  1.0
  H  H40  1  0.38087000  0.33804000  0.68911000  1.0
  H  H41  1  0.97106000  0.59013000  0.12112000  1.0
  H  H42  1  0.38894000  0.25213000  0.07865000  1.0
  H  H43  1  0.42976000  0.38381000  0.14573000  1.0
  H  H44  1  0.15015000  0.99020000  0.37071000  1.0
  H  H45  1  0.97715000  0.14308000  0.44173000  1.0
  H  H46  1  0.74117000  0.90332000  0.37045000  1.0
  H  H47  1  0.58862000  0.05642000  0.44188000  1.0
  H  H48  1  0.95885000  0.73750000  0.33782000  1.0
  H  H49  1  0.90460000  0.82696000  0.27143000  1.0
  H  H50  1  0.95056000  0.45035000  0.05637000  1.0
  H  H51  1  0.15092000  0.25342000  0.55154000  1.0
  H  H52  1  0.28485000  0.31243000  0.56213000  1.0
  H  H53  1  0.56957000  0.98794000  0.63304000  1.0
  H  H54  1  0.51214000  0.92367000  0.70252000  1.0
  H  H55  1  0.27345000  0.69773000  0.32922000  1.0
  H  H56  1  0.37706000  0.61438000  0.25953000  1.0
  H  H57  1  0.72126000  0.50214000  0.04933000  1.0
  H  H58  1  0.27914000  0.33836000  0.81054000  1.0
  H  H59  1  0.44005000  0.59011000  0.37840000  1.0
  H  H60  1  0.35865000  0.25189000  0.42090000  1.0
  H  H61  1  0.18605000  0.38347000  0.35424000  1.0
  H  H62  1  0.85942000  0.98905000  0.12962000  1.0
  H  H63  1  0.87922000  0.14193000  0.05852000  1.0
  H  H64  1  0.35473000  0.90347000  0.12937000  1.0
  H  H65  1  0.35368000  0.05693000  0.05811000  1.0
  H  H66  1  0.30375000  0.73730000  0.16243000  1.0
  H  H67  1  0.26742000  0.82761000  0.22865000  1.0
  H  H68  1  0.60010000  0.45035000  0.44274000  1.0
  H  H69  1  0.59278000  0.25289000  0.95011000  1.0
  H  H70  1  0.40212000  0.31225000  0.93755000  1.0
  H  H71  1  0.44275000  0.98842000  0.86750000  1.0
  H  H72  1  0.56382000  0.92420000  0.79806000  1.0
  C  C1  1  0.79865000  0.50353000  0.85851000  1.0
  C  C2  1  0.91224000  0.35163000  0.79041000  1.0
  C  C3  1  0.12593000  0.49795000  0.52699000  1.0
  C  C4  1  0.09874000  0.68159000  0.49451000  1.0
  C  C5  1  0.60505000  0.73462000  0.28373000  1.0
  C  C6  1  0.93477000  0.48426000  0.88470000  1.0
  C  C7  1  0.70184000  0.67290000  0.90962000  1.0
  C  C8  1  0.47681000  0.82745000  0.39251000  1.0
  C  C9  1  0.04103000  0.06422000  0.63633000  1.0
  C  C10  1  0.04477000  0.58974000  0.49669000  1.0
  C  C11  1  0.91386000  0.59279000  0.46885000  1.0
  C  C12  1  0.53099000  0.82931000  0.31930000  1.0
  C  C13  1  0.67913000  0.59996000  0.87222000  1.0
  C  C14  1  0.97429000  0.99592000  0.61526000  1.0
  C  C15  1  0.06925000  0.91092000  0.57691000  1.0
  C  C16  1  0.20143000  0.04544000  0.61600000  1.0
  C  C17  1  0.28784000  0.95873000  0.57674000  1.0
  C  C18  1  0.00002000  0.21571000  0.70225000  1.0
  C  C19  1  0.94622000  0.56138000  0.92219000  1.0
  C  C20  1  0.51281000  0.92473000  0.28500000  1.0
  C  C21  1  0.69784000  0.50353000  0.64161000  1.0
  C  C22  1  0.73718000  0.35098000  0.70900000  1.0
  C  C23  1  0.37711000  0.49815000  0.97209000  1.0
  C  C24  1  0.22359000  0.68293000  0.00309000  1.0
  C  C25  1  0.66174000  0.73446000  0.21647000  1.0
  C  C26  1  0.58037000  0.48425000  0.61574000  1.0
  C  C27  1  0.62547000  0.67300000  0.59077000  1.0
  C  C28  1  0.69758000  0.82657000  0.10763000  1.0
  C  C29  1  0.89521000  0.06476000  0.86357000  1.0
  C  C30  1  0.36723000  0.59027000  0.00208000  1.0
  C  C31  1  0.49403000  0.59308000  0.03086000  1.0
  C  C32  1  0.64082000  0.82896000  0.18076000  1.0
  C  C33  1  0.72112000  0.60012000  0.62795000  1.0
  C  C34  1  0.03016000  0.99681000  0.88446000  1.0
  C  C35  1  0.02049000  0.91166000  0.92278000  1.0
  C  C36  1  0.75390000  0.04544000  0.88394000  1.0
  C  C37  1  0.75445000  0.95861000  0.92317000  1.0
  C  C38  1  0.78457000  0.21587000  0.79761000  1.0
  C  C39  1  0.49181000  0.56136000  0.57848000  1.0
  C  C40  1  0.56278000  0.92454000  0.21475000  1.0
  C  C41  1  0.20135000  0.49647000  0.14149000  1.0
  C  C42  1  0.08776000  0.64837000  0.20959000  1.0
  C  C43  1  0.87408000  0.50205000  0.47301000  1.0
  C  C44  1  0.90126000  0.31841000  0.50549000  1.0
  C  C45  1  0.39495000  0.26538000  0.71627000  1.0
  C  C46  1  0.06523000  0.51573000  0.11530000  1.0
  C  C47  1  0.29816000  0.32710000  0.09038000  1.0
  C  C48  1  0.52320000  0.17254000  0.60749000  1.0
  C  C49  1  0.95898000  0.93578000  0.36367000  1.0
  C  C50  1  0.95524000  0.41026000  0.50331000  1.0
  C  C51  1  0.08614000  0.40721000  0.53115000  1.0
  C  C52  1  0.46901000  0.17069000  0.68071000  1.0
  C  C53  1  0.32087000  0.40004000  0.12778000  1.0
  C  C54  1  0.02571000  0.00407000  0.38474000  1.0
  C  C55  1  0.93075000  0.08907000  0.42310000  1.0
  C  C56  1  0.79857000  0.95456000  0.38400000  1.0
  C  C57  1  0.71216000  0.04127000  0.42327000  1.0
  C  C58  1  0.99999000  0.78429000  0.29775000  1.0
  C  C59  1  0.05379000  0.43862000  0.07781000  1.0
  C  C60  1  0.48719000  0.07527000  0.71501000  1.0
  C  C61  1  0.30216000  0.49647000  0.35839000  1.0
  C  C62  1  0.26282000  0.64901000  0.29100000  1.0
  C  C63  1  0.62289000  0.50184000  0.02791000  1.0
  C  C64  1  0.77641000  0.31707000  0.99691000  1.0
  C  C65  1  0.33826000  0.26553000  0.78354000  1.0
  C  C66  1  0.41963000  0.51575000  0.38426000  1.0
  C  C67  1  0.37453000  0.32699000  0.40923000  1.0
  C  C68  1  0.30243000  0.17343000  0.89237000  1.0
  C  C69  1  0.10480000  0.93524000  0.13643000  1.0
  C  C70  1  0.63278000  0.40972000  0.99792000  1.0
  C  C71  1  0.50598000  0.40692000  0.96914000  1.0
  C  C72  1  0.35918000  0.17104000  0.81925000  1.0
  C  C73  1  0.27888000  0.39988000  0.37205000  1.0
  C  C74  1  0.96984000  0.00319000  0.11555000  1.0
  C  C75  1  0.97951000  0.08834000  0.07722000  1.0
  C  C76  1  0.24611000  0.95456000  0.11606000  1.0
  C  C77  1  0.24555000  0.04139000  0.07683000  1.0
  C  C78  1  0.21543000  0.78413000  0.20239000  1.0
  C  C79  1  0.50819000  0.43864000  0.42152000  1.0
  C  C80  1  0.43722000  0.07545000  0.78525000  1.0
  C  C81  1  0.85790000  0.28467000  0.74982000  1.0
  C  C82  1  0.14210000  0.71533000  0.25019000  1.0
  N  N1  1  0.83403000  0.65560000  0.93446000  1.0
  N  N2  1  0.22515000  0.89095000  0.55813000  1.0
  N  N3  1  0.82813000  0.68087000  0.43761000  1.0
  N  N4  1  0.44007000  0.02106000  0.31636000  1.0
  N  N5  1  0.51029000  0.65558000  0.56613000  1.0
  N  N6  1  0.88485000  0.89122000  0.94168000  1.0
  N  N7  1  0.49158000  0.68140000  0.06223000  1.0
  N  N8  1  0.53905000  0.02063000  0.18308000  1.0
  N  N9  1  0.16597000  0.34439000  0.06554000  1.0
  N  N10  1  0.77485000  0.10905000  0.44187000  1.0
  N  N11  1  0.17188000  0.31913000  0.56239000  1.0
  N  N12  1  0.55993000  0.97893000  0.68364000  1.0
  N  N13  1  0.48972000  0.34441000  0.43388000  1.0
  N  N14  1  0.11515000  0.10878000  0.05832000  1.0
  N  N15  1  0.50842000  0.31860000  0.93777000  1.0
  N  N16  1  0.46095000  0.97937000  0.81692000  1.0
  O  O1  1  0.22112000  0.66666667  0.52153000  1.0
  O  O2  1  0.02882000  0.76649000  0.46881000  1.0
  O  O3  1  0.77436000  0.43443000  0.82103000  1.0
  O  O4  1  0.46591000  0.73913000  0.41771000  1.0
  O  O5  1  0.94254000  0.14321000  0.67536000  1.0
  O  O6  1  0.44503000  0.90684000  0.42795000  1.0
  O  O7  1  0.11360000  0.66733000  0.97821000  1.0
  O  O8  1  0.21329000  0.76901000  0.02600000  1.0
  O  O9  1  0.79166000  0.43438000  0.67871000  1.0
  O  O10  1  0.79891000  0.73866000  0.08304000  1.0
  O  O11  1  0.91435000  0.14415000  0.82473000  1.0
  O  O12  1  0.64884000  0.90492000  0.07170000  1.0
  O  O13  1  0.77888000  0.33326000  0.47847000  1.0
  O  O14  1  0.97118000  0.23351000  0.53119000  1.0
  O  O15  1  0.22564000  0.56556000  0.17897000  1.0
  O  O16  1  0.53409000  0.26087000  0.58229000  1.0
  O  O17  1  0.05746000  0.85679000  0.32464000  1.0
  O  O18  1  0.55498000  0.09315000  0.57205000  1.0
  O  O19  1  0.88641000  0.33267000  0.02180000  1.0
  O  O20  1  0.78671000  0.23098000  0.97400000  1.0
  O  O21  1  0.20835000  0.56562000  0.32129000  1.0
  O  O22  1  0.20110000  0.26133000  0.91696000  1.0
  O  O23  1  0.08565000  0.85585000  0.17527000  1.0
  O  O24  1  0.35116000  0.09508000  0.92830000  1.0
