# generated using pymatgen
data_CuH10C14(N3O2)2
_symmetry_space_group_name_H-M   'P 1'
_cell_length_a   10.84732312
_cell_length_b   12.34821175
_cell_length_c   12.60814154
_cell_angle_alpha   61.85499029
_cell_angle_beta   74.96232510
_cell_angle_gamma   77.27289146
_symmetry_Int_Tables_number   1
_chemical_formula_structural   CuH10C14(N3O2)2
_chemical_formula_sum   'Cu3 H30 C42 N18 O12'
_cell_volume   1428.57520252
_cell_formula_units_Z   3
loop_
 _symmetry_equiv_pos_site_id
 _symmetry_equiv_pos_as_xyz
  1  'x, y, z'
loop_
 _atom_site_type_symbol
 _atom_site_label
 _atom_site_symmetry_multiplicity
 _atom_site_fract_x
 _atom_site_fract_y
 _atom_site_fract_z
 _atom_site_occupancy
  Cu  Cu1  1  0.36451469  0.08223748  0.39999605  1.0
  Cu  Cu2  1  0.63541844  0.91784139  0.60007896  1.0
  Cu  Cu3  1  0.99999663  0.49999695  0.49999888  1.0
  H  H1  1  0.89523096  0.21033371  0.72566504  1.0
  H  H2  1  0.03727872  0.26040533  0.71933743  1.0
  H  H3  1  0.21201738  0.24697057  0.54813783  1.0
  H  H4  1  0.12564596  0.92450624  0.56077835  1.0
  H  H5  1  0.67905609  0.04358504  0.97733706  1.0
  H  H6  1  0.74736560  0.15687565  0.83834841  1.0
  H  H7  1  0.71209138  0.12263610  0.67072641  1.0
  H  H8  1  0.77247576  0.73337650  0.83187020  1.0
  H  H9  1  0.71648658  0.86395118  0.10799731  1.0
  H  H10  1  0.79026859  0.80231600  0.23639592  1.0
  H  H11  1  0.51765300  0.88268325  0.29808648  1.0
  H  H12  1  0.62074550  0.22709180  0.22090121  1.0
  H  H13  1  0.74752676  0.26758111  0.46769965  1.0
  H  H14  1  0.64510017  0.66150627  0.33586111  1.0
  H  H15  1  0.38571969  0.43915522  0.34762163  1.0
  H  H16  1  0.10476941  0.78966810  0.27433720  1.0
  H  H17  1  0.96271987  0.73959330  0.28066455  1.0
  H  H18  1  0.78797638  0.75301492  0.45186618  1.0
  H  H19  1  0.87434743  0.07551754  0.43922930  1.0
  H  H20  1  0.32094321  0.95641355  0.02266521  1.0
  H  H21  1  0.25263568  0.84312234  0.16165261  1.0
  H  H22  1  0.28790922  0.87738016  0.32925629  1.0
  H  H23  1  0.22752904  0.26659985  0.16812905  1.0
  H  H24  1  0.28351602  0.13604742  0.89200653  1.0
  H  H25  1  0.20973394  0.19768037  0.76360089  1.0
  H  H26  1  0.48236551  0.11733659  0.70190363  1.0
  H  H27  1  0.37925669  0.77287424  0.77910077  1.0
  H  H28  1  0.25246814  0.73242550  0.53229873  1.0
  H  H29  1  0.35490189  0.33849530  0.66413848  1.0
  H  H30  1  0.61428227  0.56083693  0.65238151  1.0
  C  C1  1  0.99653432  0.08577235  0.87681587  1.0
  C  C2  1  0.88685112  0.02851844  0.95257479  1.0
  C  C3  1  0.89070333  0.94309658  0.07505695  1.0
  C  C4  1  0.99329355  0.17765272  0.74449705  1.0
  C  C5  1  0.16891449  0.16511407  0.57247984  1.0
  C  C6  1  0.12112572  0.00181495  0.58048658  1.0
  C  C7  1  0.76366641  0.05932960  0.90433620  1.0
  C  C8  1  0.73469978  0.02605542  0.73068219  1.0
  C  C9  1  0.76440561  0.82850403  0.81670875  1.0
  C  C10  1  0.76972525  0.88775030  0.15571007  1.0
  C  C11  1  0.56846461  0.96158925  0.27004079  1.0
  C  C12  1  0.62353917  0.13658388  0.22597692  1.0
  C  C13  1  0.56465129  0.34038320  0.40864327  1.0
  C  C14  1  0.68117311  0.35022543  0.42965836  1.0
  C  C15  1  0.71006554  0.46577994  0.40450365  1.0
  C  C16  1  0.62378584  0.57127224  0.35531330  1.0
  C  C17  1  0.50791125  0.56267244  0.33298532  1.0
  C  C18  1  0.47800326  0.44651929  0.36130201  1.0
  C  C19  1  0.53395654  0.21467313  0.43988089  1.0
  C  C20  1  0.82635537  0.47769618  0.43517713  1.0
  C  C21  1  0.41545725  0.67910261  0.28334685  1.0
  C  C22  1  0.00346522  0.91422839  0.12318198  1.0
  C  C23  1  0.11315479  0.97147631  0.04741965  1.0
  C  C24  1  0.10930831  0.05688976  0.92493523  1.0
  C  C25  1  0.00671003  0.82234540  0.25548796  1.0
  C  C26  1  0.83107038  0.83486058  0.42753114  1.0
  C  C27  1  0.87884730  0.99823141  0.41953400  1.0
  C  C28  1  0.23633832  0.94067903  0.09567101  1.0
  C  C29  1  0.26528312  0.97397767  0.26931937  1.0
  C  C30  1  0.23558223  0.17143656  0.18331042  1.0
  C  C31  1  0.23024718  0.11226950  0.84430625  1.0
  C  C32  1  0.43155445  0.03844900  0.72994251  1.0
  C  C33  1  0.37648474  0.86335439  0.77401557  1.0
  C  C34  1  0.43535708  0.65958129  0.59139208  1.0
  C  C35  1  0.31882985  0.64979104  0.57033349  1.0
  C  C36  1  0.28994141  0.53422518  0.59549349  1.0
  C  C37  1  0.37622088  0.42873044  0.64468777  1.0
  C  C38  1  0.49209403  0.43732507  0.66701524  1.0
  C  C39  1  0.52201068  0.55346387  0.63870515  1.0
  C  C40  1  0.46600439  0.78541478  0.56008171  1.0
  C  C41  1  0.17364089  0.52230318  0.56482095  1.0
  C  C42  1  0.58453703  0.32088867  0.71665541  1.0
  N  N1  1  0.20705599  0.08739776  0.52088119  1.0
  N  N2  1  0.06545059  0.12596197  0.65980974  1.0
  N  N3  1  0.03329417  0.02221611  0.66605928  1.0
  N  N4  1  0.73500069  0.92796034  0.71185102  1.0
  N  N5  1  0.76110513  0.98570494  0.84219174  1.0
  N  N6  1  0.78111116  0.85997067  0.89853983  1.0
  N  N7  1  0.52735742  0.06223590  0.29001370  1.0
  N  N8  1  0.68485802  0.97613707  0.19842118  1.0
  N  N9  1  0.72173102  0.08717286  0.16913677  1.0
  N  N10  1  0.79295677  0.91263350  0.47910707  1.0
  N  N11  1  0.93451480  0.87401050  0.34021439  1.0
  N  N12  1  0.96665326  0.97776743  0.33398668  1.0
  N  N13  1  0.26505808  0.07198897  0.28820088  1.0
  N  N14  1  0.23887375  0.01432794  0.15778082  1.0
  N  N15  1  0.21888726  0.14004622  0.10141297  1.0
  N  N16  1  0.47263802  0.93776122  0.70996670  1.0
  N  N17  1  0.31519363  0.02389120  0.80154748  1.0
  N  N18  1  0.27834300  0.91283203  0.83081806  1.0
  O  O1  1  0.42455026  0.21210148  0.41941286  1.0
  O  O2  1  0.61626572  0.12338214  0.48181476  1.0
  O  O3  1  0.91586034  0.38856725  0.47080130  1.0
  O  O4  1  0.84253583  0.58222319  0.42817597  1.0
  O  O5  1  0.46213130  0.78095143  0.23924786  1.0
  O  O6  1  0.30014405  0.66639546  0.29113323  1.0
  O  O7  1  0.57546037  0.78772552  0.58059975  1.0
  O  O8  1  0.38372875  0.87667741  0.51814965  1.0
  O  O9  1  0.08414277  0.61143983  0.52919841  1.0
  O  O10  1  0.15746763  0.41778384  0.57182612  1.0
  O  O11  1  0.53786414  0.21904595  0.76074764  1.0
  O  O12  1  0.69985435  0.33360639  0.70886695  1.0
