# generated using pymatgen
data_MgH8(C9O4)2
_symmetry_space_group_name_H-M   'P 1'
_cell_length_a   9.28090000
_cell_length_b   10.51621000
_cell_length_c   13.27116173
_cell_angle_alpha   66.71069086
_cell_angle_beta   83.62894893
_cell_angle_gamma   74.12399000
_symmetry_Int_Tables_number   1
_chemical_formula_structural   MgH8(C9O4)2
_chemical_formula_sum   'Mg2 H16 C36 O16'
_cell_volume   1144.33930469
_cell_formula_units_Z   2
loop_
 _symmetry_equiv_pos_site_id
 _symmetry_equiv_pos_as_xyz
  1  'x, y, z'
loop_
 _atom_site_type_symbol
 _atom_site_label
 _atom_site_symmetry_multiplicity
 _atom_site_fract_x
 _atom_site_fract_y
 _atom_site_fract_z
 _atom_site_occupancy
  Mg  Mg0  1  0.75112000  0.67818000  0.64284000  1
  Mg  Mg1  1  0.24887000  0.32181000  0.35717000  1
  H  H2  1  0.81180000  0.55824000  0.46484000  1
  H  H3  1  0.91799000  0.78531000  0.21153000  1
  H  H4  1  0.07375000  0.85869000  0.47249000  1
  H  H5  1  0.14075000  0.12385000  0.13711000  1
  H  H6  1  0.68873000  0.97737000  0.46475000  1
  H  H7  1  0.58332000  0.00284000  0.21214000  1
  H  H8  1  0.42692000  0.66868000  0.47309000  1
  H  H9  1  0.36213000  0.73745000  0.13784000  1
  H  H10  1  0.18820000  0.44178000  0.53514000  1
  H  H11  1  0.08202000  0.21471000  0.78848000  1
  H  H12  1  0.92625000  0.14131000  0.52751000  1
  H  H13  1  0.85923000  0.87613000  0.86291000  1
  H  H14  1  0.31127000  0.02264000  0.53524000  1
  H  H15  1  0.41667000  0.99714000  0.78787000  1
  H  H16  1  0.57308000  0.33132000  0.52691000  1
  H  H17  1  0.63787000  0.26256000  0.86218000  1
  C  C18  1  0.92326000  0.70058000  0.43447000  1
  C  C19  1  0.98914000  0.81083000  0.35042000  1
  C  C20  1  0.97363000  0.84476000  0.23855000  1
  C  C21  1  0.02791000  0.95817000  0.16035000  1
  C  C22  1  0.11612000  0.99893000  0.30875000  1
  C  C23  1  0.06115000  0.88665000  0.38542000  1
  C  C24  1  0.09822000  0.03615000  0.19650000  1
  C  C25  1  0.19278000  0.07458000  0.35286000  1
  C  C26  1  0.00987000  0.99011000  0.04755000  1
  C  C27  1  0.57918000  0.86424000  0.43441000  1
  C  C28  1  0.51289000  0.83785000  0.35079000  1
  C  C29  1  0.52802000  0.91614000  0.23892000  1
  C  C30  1  0.47375000  0.88103000  0.16073000  1
  C  C31  1  0.38593000  0.69118000  0.30942000  1
  C  C32  1  0.44066000  0.72705000  0.38601000  1
  C  C33  1  0.40408000  0.76628000  0.19712000  1
  C  C34  1  0.30873000  0.57148000  0.35330000  1
  C  C35  1  0.49067000  0.96243000  0.04773000  1
  C  C36  1  0.07673000  0.29942000  0.56553000  1
  C  C37  1  0.01086000  0.18918000  0.64956000  1
  C  C38  1  0.02637000  0.15526000  0.76144000  1
  C  C39  1  0.97209000  0.04183000  0.83965000  1
  C  C40  1  0.88388000  0.00107000  0.69124000  1
  C  C41  1  0.93885000  0.11336000  0.61457000  1
  C  C42  1  0.90176000  0.96384000  0.80350000  1
  C  C43  1  0.80722000  0.92544000  0.64714000  1
  C  C44  1  0.99013000  0.00988000  0.95246000  1
  C  C45  1  0.42082000  0.13577000  0.56560000  1
  C  C46  1  0.48712000  0.16217000  0.64919000  1
  C  C47  1  0.47197000  0.08386000  0.76106000  1
  C  C48  1  0.52625000  0.11898000  0.83926000  1
  C  C49  1  0.61406000  0.30883000  0.69056000  1
  C  C50  1  0.55934000  0.27296000  0.61397000  1
  C  C51  1  0.59593000  0.23373000  0.80288000  1
  C  C52  1  0.69126000  0.42850000  0.64671000  1
  C  C53  1  0.50932000  0.03757000  0.95228000  1
  O  O54  1  0.86474000  0.62573000  0.39913000  1
  O  O55  1  0.92013000  0.68523000  0.53365000  1
  O  O56  1  0.22877000  0.01158000  0.45327000  1
  O  O57  1  0.21413000  0.19700000  0.28799000  1
  O  O58  1  0.63567000  0.97573000  0.39919000  1
  O  O59  1  0.58470000  0.77935000  0.53323000  1
  O  O60  1  0.27211000  0.53391000  0.45379000  1
  O  O61  1  0.28678000  0.51464000  0.28804000  1
  O  O62  1  0.13524000  0.37426000  0.60087000  1
  O  O63  1  0.07987000  0.31479000  0.46634000  1
  O  O64  1  0.77121000  0.98840000  0.54674000  1
  O  O65  1  0.78587000  0.80300000  0.71200000  1
  O  O66  1  0.36435000  0.02429000  0.60081000  1
  O  O67  1  0.41528000  0.22064000  0.46677000  1
  O  O68  1  0.72789000  0.46610000  0.54622000  1
  O  O69  1  0.71322000  0.48536000  0.71194000  1
