# generated using pymatgen
data_H10C16N5
_symmetry_space_group_name_H-M   'P 1'
_cell_length_a   15.56295000
_cell_length_b   26.95573351
_cell_length_c   93.37780000
_cell_angle_alpha   90.00000000
_cell_angle_beta   90.00000000
_cell_angle_gamma   89.99989372
_symmetry_Int_Tables_number   1
_chemical_formula_structural   H10C16N5
_chemical_formula_sum   'H240 C384 N120'
_cell_volume   39172.98931253
_cell_formula_units_Z   24
loop_
 _symmetry_equiv_pos_site_id
 _symmetry_equiv_pos_as_xyz
  1  'x, y, z'
loop_
 _atom_site_type_symbol
 _atom_site_label
 _atom_site_symmetry_multiplicity
 _atom_site_fract_x
 _atom_site_fract_y
 _atom_site_fract_z
 _atom_site_occupancy
  C  2  1  0.05515400  0.01316600  0.08332400  1
  C  3  1  0.14493200  0.01705200  0.08614700  1
  C  4  1  0.59421300  0.51170200  0.05722400  1
  C  5  1  0.53329200  0.51054800  0.06852500  1
  C  7  1  0.54734400  0.47632500  0.78711400  1
  C  10  1  0.02319600  0.01387200  0.42803200  1
  C  11  1  0.02868200  0.04018100  0.45380700  1
  C  12  1  0.08045000  0.08200900  0.45030100  1
  C  13  1  0.07869000  0.05478100  0.42530600  1
  C  17  1  0.53373700  0.49962600  0.58340700  1
  C  18  1  0.59672800  0.43253100  0.56125300  1
  C  19  1  0.61742100  0.42418800  0.57588200  1
  C  20  1  0.58646000  0.45768700  0.58637500  1
  C  22  1  0.00226500  0.03163500  0.59459100  1
  C  23  1  0.96369300  0.07864100  0.59177600  1
  C  24  1  0.93458500  0.11104800  0.60267900  1
  C  25  1  0.94161700  0.09700500  0.61731400  1
  C  34  1  0.55515400  0.49742300  0.92809800  1
  C  35  1  0.64491600  0.49321200  0.92525800  1
  C  36  1  0.68375800  0.49495200  0.95078400  1
  C  37  1  0.09403800  0.99919700  0.95427900  1
  C  38  1  0.03246800  0.00074700  0.94309300  1
  C  41  1  0.00864100  0.02004200  0.24933800  1
  C  42  1  0.03955400  0.03930200  0.22358100  1
  C  43  1  0.07865200  0.08521000  0.22740600  1
  C  44  1  0.07955100  0.09979400  0.24203900  1
  C  45  1  0.04405600  0.06751200  0.25244400  1
  C  51  1  0.01633700  0.00790100  0.68735700  1
  C  52  1  0.08061700  0.03477000  0.67977200  1
  C  53  1  0.07997000  0.03419200  0.66439800  1
  C  57  1  0.51947700  0.50602200  0.30921500  1
  C  59  1  0.75582600  0.32488000  0.59239700  1
  C  60  1  0.80560000  0.30966300  0.60447500  1
  C  61  1  0.85555900  0.26498400  0.60345100  1
  C  62  1  0.91456900  0.25413900  0.61462900  1
  C  63  1  0.81091800  0.33813000  0.61727600  1
  C  66  1  0.70479000  0.36819800  0.59161800  1
  C  68  1  0.01662000  0.00919900  0.15687700  1
  C  70  1  0.93186000  0.08731000  0.15707800  1
  C  72  1  0.03268300  0.00827900  0.14223000  1
  C  76  1  0.02902800  0.00571700  0.86867800  1
  C  78  1  0.09035200  0.00621600  0.49761200  1
  C  79  1  0.09082400  0.01185400  0.51290000  1
  C  80  1  0.16971500  0.00489500  0.49014900  1
  C  83  1  0.55515900  0.51312600  0.08340000  1
  C  84  1  0.64496000  0.51700300  0.08620300  1
  C  85  1  0.09433700  0.01171800  0.05717000  1
  C  86  1  0.03334100  0.01058700  0.06845500  1
  C  89  1  0.53097100  0.51147900  0.42803900  1
  C  90  1  0.53782100  0.53798200  0.45380200  1
  C  91  1  0.58903900  0.57991700  0.45017800  1
  C  92  1  0.58612300  0.55247600  0.42520100  1
  C  96  1  0.03382700  0.99963500  0.58326400  1
  C  97  1  0.09671800  0.93259100  0.56109300  1
  C  98  1  0.11753000  0.92421800  0.57571800  1
  C  99  1  0.08661600  0.95771400  0.58621500  1
  C  101  1  0.50215100  0.53165300  0.59472900  1
  C  102  1  0.46357400  0.57864500  0.59189700  1
  C  103  1  0.43444600  0.61110500  0.60278500  1
  C  104  1  0.44147100  0.59712700  0.61742600  1
  C  113  1  0.05326600  0.99751600  0.92817000  1
  C  114  1  0.14292100  0.99320200  0.92525400  1
  C  115  1  0.18248500  0.99514600  0.95075600  1
  C  116  1  0.59519200  0.49893200  0.95424700  1
  C  117  1  0.53392800  0.50051700  0.94300800  1
  C  120  1  0.50928800  0.51945900  0.25010200  1
  C  121  1  0.53902500  0.53852300  0.22419900  1
  C  122  1  0.57822300  0.58448000  0.22792600  1
  C  123  1  0.58035200  0.59907100  0.24255000  1
  C  124  1  0.54572500  0.56684000  0.25305600  1
  C  130  1  0.51645300  0.50808500  0.68753800  1
  C  131  1  0.58066000  0.53492500  0.67992600  1
  C  132  1  0.57978300  0.53437200  0.66455100  1
  C  135  1  0.25582000  0.82492600  0.59229500  1
  C  136  1  0.30542400  0.80980100  0.60440400  1
  C  137  1  0.35533300  0.76508700  0.60343500  1
  C  138  1  0.41418700  0.75432100  0.61464300  1
  C  139  1  0.31062200  0.83838100  0.61718600  1
  C  142  1  0.20485900  0.86826400  0.59146600  1
  C  144  1  0.51637300  0.50885200  0.15716500  1
  C  146  1  0.43201100  0.58705500  0.15733700  1
  C  148  1  0.53255700  0.50789200  0.14249500  1
  C  150  1  0.52091700  0.50203800  0.85380200  1
  C  153  1  0.53394700  0.50463100  0.86860600  1
  C  155  1  0.59333100  0.50522800  0.49785800  1
  C  156  1  0.59275700  0.51136800  0.51313100  1
  C  157  1  0.67320000  0.50367700  0.49055000  1
  C  160  1  0.51710900  0.50717600  0.56849800  1
  C  161  1  0.54757100  0.47516400  0.55751500  1
  C  162  1  0.97995600  0.05071400  0.62074900  1
  C  163  1  0.00819100  0.01936700  0.60949300  1
  C  169  1  0.51436300  0.50717600  0.65729800  1
  C  170  1  0.01914600  0.00777900  0.36860500  1
  C  172  1  0.84854200  0.23498600  0.59089000  1
  C  175  1  0.88149100  0.18661500  0.58866500  1
  C  177  1  0.01103600  0.01278300  0.52041700  1
  C  178  1  0.00150100  0.01807800  0.53524500  1
  C  179  1  0.01707500  0.00719300  0.56836200  1
  C  180  1  0.04748400  0.97521300  0.55736700  1
  C  181  1  0.47978800  0.55084700  0.62088300  1
  C  182  1  0.50805500  0.51945100  0.60963700  1
  C  188  1  0.01472900  0.00692400  0.65712400  1
  C  189  1  0.51668900  0.50873700  0.36907800  1
  C  191  1  0.34842200  0.73496000  0.59089900  1
  C  194  1  0.38135500  0.68655800  0.58872400  1
  C  196  1  0.51248900  0.51228000  0.52050500  1
  C  197  1  0.50204300  0.51782300  0.53531000  1
  C  199  1  0.20800600  0.01843800  0.07523100  1
  C  200  1  0.18312600  0.01486300  0.06060300  1
  C  204  1  0.10691200  0.08892800  0.43585700  1
  C  207  1  0.70818600  0.49150900  0.93614100  1
  C  215  1  0.14568200  0.05995500  0.65693900  1
  C  216  1  0.14572100  0.06174900  0.68700300  1
  C  219  1  0.91942300  0.28327700  0.62703900  1
  C  220  1  0.86619200  0.32473800  0.62849100  1
  C  224  1  0.17098100  0.01681600  0.52000600  1
  C  225  1  0.24872800  0.01543300  0.51238200  1
  C  226  1  0.24811100  0.00934700  0.49747500  1
  C  228  1  0.70797400  0.51842400  0.07527400  1
  C  229  1  0.68301800  0.51486200  0.06064900  1
  C  233  1  0.61448900  0.58682800  0.43568400  1
  C  236  1  0.20643800  0.99151400  0.93609700  1
  C  244  1  0.64547500  0.56007000  0.65707000  1
  C  245  1  0.64594200  0.56183600  0.68713300  1
  C  248  1  0.41892900  0.78357700  0.62703000  1
  C  249  1  0.36573000  0.82507100  0.62843200  1
  C  253  1  0.67240300  0.51682100  0.52036600  1
  C  254  1  0.75065300  0.51534100  0.51288900  1
  C  255  1  0.75107100  0.50858900  0.49800500  1
  C  257  1  0.51297000  0.50684900  0.77610900  1
  C  263  1  0.20963000  0.08629900  0.66434000  1
  C  264  1  0.20948300  0.08733900  0.67935000  1
  C  268  1  0.19937900  0.14329900  0.42048200  1
  C  270  1  0.93276500  0.42984500  0.94803000  1
  C  273  1  0.34614200  0.97985000  0.92204000  1
  C  275  1  0.11218400  0.23848100  0.28376700  1
  C  278  1  0.11964600  0.17105900  0.25794100  1
  C  286  1  0.70961200  0.58633900  0.66444800  1
  C  287  1  0.70967000  0.58737000  0.67945800  1
  C  291  1  0.70465200  0.64207800  0.42014200  1
  C  293  1  0.42990900  0.92931200  0.94805500  1
  C  296  1  0.84799600  0.48032000  0.92209700  1
  C  298  1  0.61338100  0.73926700  0.28386100  1
  C  301  1  0.62069700  0.67096600  0.25823800  1
  C  305  1  0.01159800  0.00376400  0.99075600  1
  C  306  1  0.00559900  0.00994400  0.97593800  1
  C  307  1  0.51216900  0.50362500  0.99072700  1
  C  308  1  0.50640500  0.50975000  0.97589500  1
  C  313  1  0.94112400  0.98318500  0.31070900  1
  C  314  1  0.01017100  0.00261000  0.49033500  1
  C  316  1  0.50948100  0.50540600  0.44280900  1
  C  317  1  0.51366400  0.50130700  0.49044100  1
  C  318  1  0.51172400  0.50196300  0.02096700  1
  C  319  1  0.01152200  0.00196800  0.02097600  1
  C  320  1  0.00063800  0.00778500  0.44275300  1
  C  323  1  0.01417500  0.00285800  0.85394000  1
  C  324  1  0.03517400  0.97275000  0.78708400  1
  C  327  1  0.51164100  0.50462000  0.10949900  1
  C  328  1  0.01155300  0.00445000  0.10937500  1
  C  330  1  0.99149800  0.01239000  0.09463400  1
  C  332  1  0.44874000  0.50261600  0.12051500  1
  C  333  1  0.86013700  0.00732100  0.11682200  1
  C  334  1  0.83689000  0.01668200  0.10234300  1
  C  335  1  0.90244600  0.01961400  0.09183200  1
  C  343  1  0.51133200  0.49301200  0.76134300  1
  C  344  1  0.58434300  0.42965600  0.78350500  1
  C  345  1  0.58198000  0.41347000  0.76901200  1
  C  346  1  0.54496300  0.44489600  0.75852000  1
  C  348  1  0.97521200  0.02360600  0.74978200  1
  C  349  1  0.92495100  0.06682000  0.75253400  1
  C  350  1  0.89243900  0.09801200  0.74160800  1
  C  351  1  0.91074100  0.08750900  0.72699400  1
  C  352  1  0.95953100  0.04456100  0.72359000  1
  C  353  1  0.99078500  0.01437000  0.73489500  1
  C  364  1  0.50020300  0.47921500  0.41673300  1
  C  365  1  0.46085300  0.43245700  0.41956800  1
  C  366  1  0.43144300  0.40013000  0.40866400  1
  C  367  1  0.43876400  0.41423800  0.39402700  1
  C  368  1  0.47843200  0.46019900  0.39056900  1
  C  369  1  0.50721500  0.49130500  0.40185000  1
  C  386  1  0.49130400  0.49764900  0.91677900  1
  C  387  1  0.00804700  0.00231700  0.90199500  1
  C  388  1  0.94425300  0.00305500  0.89110300  1
  C  389  1  0.35910400  0.49963400  0.89463500  1
  C  390  1  0.33629600  0.49345300  0.90926400  1
  C  391  1  0.40205200  0.49220300  0.91975200  1
  C  399  1  0.00593600  0.00800600  0.23446400  1
  C  401  1  0.47704500  0.48766600  0.26142900  1
  C  402  1  0.42598700  0.44482200  0.25859800  1
  C  403  1  0.39171600  0.41409000  0.26948700  1
  C  404  1  0.40896100  0.42466300  0.28413000  1
  C  405  1  0.45918800  0.46698000  0.28758300  1
  C  406  1  0.49220500  0.49679900  0.27634000  1
  C  414  1  0.52003100  0.45647800  0.01333900  1
  C  415  1  0.52006400  0.45727500  0.99796200  1
  C  416  1  0.52589800  0.41161900  0.99046400  1
  C  417  1  0.53298000  0.36637200  0.99782500  1
  C  418  1  0.53412400  0.36574000  0.01283600  1
  C  419  1  0.52752500  0.41033200  0.02052700  1
  C  424  1  0.50220000  0.50670100  0.03573400  1
  C  429  1  0.01319800  0.00110400  0.70213800  1
  C  430  1  0.50865900  0.50091000  0.64246000  1
  C  432  1  0.99561600  0.00667700  0.35421800  1
  C  433  1  0.92286900  0.03115600  0.34828200  1
  C  434  1  0.90744200  0.02738700  0.33319200  1
  C  435  1  0.50737500  0.50595500  0.32406500  1
  C  436  1  0.83645300  0.05333100  0.32724500  1
  C  437  1  0.77936200  0.08004300  0.33593600  1
  C  438  1  0.79225100  0.08170300  0.35077600  1
  C  439  1  0.86378400  0.05800200  0.35687700  1
  C  446  1  0.61846100  0.03746900  0.08593400  1
  C  447  1  0.57102100  0.05450700  0.07379200  1
  C  448  1  0.47887200  0.05629900  0.07464100  1
  C  449  1  0.93711400  0.53744400  0.08715500  1
  C  452  1  0.43320400  0.07985800  0.06335600  1
  C  453  1  0.47483500  0.09719000  0.05102000  1
  C  454  1  0.56388900  0.09218700  0.04974500  1
  C  455  1  0.61141800  0.07173800  0.06105600  1
  C  460  1  0.70902200  0.03418200  0.08683100  1
  C  462  1  0.84805400  0.52930400  0.08927000  1
  C  463  1  0.65955100  0.29401000  0.75245600  1
  C  464  1  0.65756300  0.26193100  0.74027900  1
  C  465  1  0.70101100  0.21496900  0.74106100  1
  C  466  1  0.75017400  0.20330200  0.75353700  1
  C  469  1  0.68848500  0.18051400  0.72973500  1
  C  470  1  0.64136500  0.19278000  0.71744000  1
  C  471  1  0.60424700  0.23980600  0.71623100  1
  C  472  1  0.61124500  0.27364100  0.72758000  1
  C  477  1  0.61934000  0.34094900  0.75341700  1
  C  479  1  0.80668300  0.16274700  0.75562000  1
  C  481  1  0.25082200  0.18646900  0.41958200  1
  C  482  1  0.30112700  0.20095200  0.40748000  1
  C  483  1  0.35056800  0.24590600  0.40826800  1
  C  484  1  0.34330600  0.27664100  0.42067700  1
  C  487  1  0.40929400  0.25635800  0.39701600  1
  C  488  1  0.41466800  0.22640900  0.38477600  1
  C  489  1  0.36226700  0.18451200  0.38356800  1
  C  490  1  0.30711200  0.17162000  0.39484600  1
  C  495  1  0.37655800  0.32507200  0.42273700  1
  C  502  1  0.11820700  0.47381000  0.92578700  1
  C  503  1  0.07052100  0.45654100  0.93786800  1
  C  504  1  0.97851600  0.45394400  0.93685300  1
  C  505  1  0.43505200  0.97204100  0.92433800  1
  C  508  1  0.97406200  0.41281000  0.96043300  1
  C  509  1  0.06288100  0.41866800  0.96188000  1
  C  510  1  0.11058600  0.43962800  0.95066500  1
  C  513  1  0.20869600  0.47766800  0.92500500  1
  C  515  1  0.15965700  0.21805200  0.25885600  1
  C  516  1  0.15777000  0.25024400  0.27100200  1
  C  517  1  0.20023400  0.29746700  0.27008900  1
  C  518  1  0.24901700  0.30910500  0.25757000  1
  C  521  1  0.18704800  0.33218600  0.28132300  1
  C  522  1  0.14052900  0.31990400  0.29368100  1
  C  523  1  0.10472700  0.27258000  0.29504400  1
  C  526  1  0.30538000  0.34968300  0.25543300  1
  C  528  1  0.97028900  0.04673300  0.16432700  1
  C  529  1  0.96161500  0.04313300  0.17958800  1
  C  530  1  0.50098600  0.50255700  0.18723500  1
  C  532  1  0.91312900  0.07985700  0.18689200  1
  C  533  1  0.87549400  0.11963200  0.17948000  1
  C  534  1  0.88511600  0.12345700  0.16459500  1
  C  538  1  0.49769600  0.49422800  0.20201800  1
  C  540  1  0.50437400  0.50693100  0.82373300  1
  C  541  1  0.46976600  0.46530300  0.83114500  1
  C  542  1  0.47899900  0.46251700  0.84642200  1
  C  543  1  0.44670600  0.42012200  0.85365100  1
  C  544  1  0.40497700  0.38189600  0.84616400  1
  C  545  1  0.39488800  0.38507900  0.83127700  1
  C  546  1  0.42711200  0.42631300  0.82382800  1
  C  551  1  0.49757400  0.51586000  0.80909600  1
  C  556  1  0.99940900  0.99464900  0.47571800  1
  C  560  1  0.49161700  0.51238800  0.09473800  1
  C  562  1  0.94867900  0.00243900  0.12038300  1
  C  563  1  0.36019600  0.50739100  0.11692000  1
  C  564  1  0.33696900  0.51667600  0.10243300  1
  C  565  1  0.40256200  0.51955900  0.09193000  1
  C  573  1  0.00681800  0.99175100  0.76114700  1
  C  574  1  0.00229500  0.00369700  0.77604900  1
  C  575  1  0.07632400  0.92730900  0.78343000  1
  C  576  1  0.07959300  0.91273300  0.76881300  1
  C  577  1  0.04462000  0.94467800  0.75826200  1
  C  579  1  0.47850400  0.52443000  0.75000800  1
  C  580  1  0.42792300  0.56741500  0.75283100  1
  C  581  1  0.39423400  0.59821000  0.74191200  1
  C  582  1  0.41187200  0.58754100  0.72728000  1
  C  583  1  0.46091800  0.54470400  0.72383800  1
  C  584  1  0.49319500  0.51479900  0.73512800  1
  C  596  1  0.99380700  0.98146400  0.41666900  1
  C  597  1  0.95539700  0.93440900  0.41944700  1
  C  598  1  0.92800900  0.90170400  0.40849200  1
  C  599  1  0.93635700  0.91574900  0.39387000  1
  C  600  1  0.97526200  0.96199100  0.39049500  1
  C  601  1  0.00190100  0.99356200  0.40180100  1
  C  618  1  0.98901200  0.99772400  0.91692300  1
  C  619  1  0.51090700  0.50218600  0.90186800  1
  C  620  1  0.44761800  0.50292000  0.89089200  1
  C  621  1  0.85591500  0.99971600  0.89492800  1
  C  622  1  0.83380300  0.99348000  0.90957700  1
  C  623  1  0.89989200  0.99219600  0.91999700  1
  C  631  1  0.50631900  0.50731300  0.23519600  1
  C  633  1  0.97816800  0.98741800  0.26053700  1
  C  634  1  0.92391600  0.94592100  0.25776300  1
  C  635  1  0.89425000  0.91358600  0.26864100  1
  C  636  1  0.92018400  0.92106900  0.28310200  1
  C  637  1  0.97155600  0.96317500  0.28651000  1
  C  638  1  0.00018200  0.99426600  0.27527200  1
  C  646  1  0.01988200  0.95650800  0.01333700  1
  C  647  1  0.01973500  0.95737600  0.99796400  1
  C  648  1  0.02565100  0.91176100  0.99044600  1
  C  649  1  0.03296300  0.86649000  0.99779000  1
  C  650  1  0.03425700  0.86579300  0.01280000  1
  C  651  1  0.02760300  0.91034400  0.02050800  1
  C  656  1  0.00216700  0.00664600  0.03573800  1
  C  661  1  0.51366400  0.50118400  0.70232100  1
  C  662  1  0.00918500  0.00069900  0.64228800  1
  C  664  1  0.50478600  0.50648900  0.35430800  1
  C  665  1  0.43280700  0.52562100  0.34668500  1
  C  666  1  0.43416000  0.52546100  0.33130900  1
  C  667  1  0.96283600  0.99748700  0.32462100  1
  C  668  1  0.36314100  0.54585400  0.32381700  1
  C  669  1  0.29195100  0.56518900  0.33118400  1
  C  670  1  0.29028000  0.56470700  0.34619400  1
  C  671  1  0.36006900  0.54520500  0.35387900  1
  C  678  1  0.11856700  0.53744000  0.08597600  1
  C  679  1  0.07115200  0.55446800  0.07382800  1
  C  680  1  0.97898900  0.55624900  0.07466600  1
  C  681  1  0.43704800  0.03747800  0.08713300  1
  C  684  1  0.93334600  0.57978300  0.06337400  1
  C  685  1  0.97501900  0.59711900  0.05104200  1
  C  686  1  0.06408400  0.59213300  0.04977700  1
  C  687  1  0.11158300  0.57169600  0.06109500  1
  C  692  1  0.20913900  0.53415300  0.08688900  1
  C  694  1  0.34799800  0.02932900  0.08924800  1
  C  695  1  0.16181000  0.79428300  0.75235700  1
  C  696  1  0.16001000  0.76189300  0.74025200  1
  C  697  1  0.20276600  0.71477100  0.74121200  1
  C  698  1  0.25153500  0.70335600  0.75374900  1
  C  701  1  0.18984300  0.67990700  0.73000400  1
  C  702  1  0.14309200  0.69190400  0.71764900  1
  C  703  1  0.10678000  0.73908200  0.71625600  1
  C  704  1  0.11411900  0.77334100  0.72749100  1
  C  709  1  0.12177700  0.84129400  0.75315700  1
  C  711  1  0.30800400  0.66283800  0.75592000  1
  C  713  1  0.75432800  0.68593900  0.41923500  1
  C  714  1  0.80410200  0.70113800  0.40714600  1
  C  715  1  0.85202800  0.74663100  0.40797900  1
  C  716  1  0.84338600  0.77725900  0.42038500  1
  C  719  1  0.91069900  0.75774200  0.39677300  1
  C  720  1  0.91719800  0.72795600  0.38451400  1
  C  721  1  0.86597300  0.68559400  0.38324000  1
  C  722  1  0.81107400  0.67202000  0.39448800  1
  C  727  1  0.87473600  0.82609500  0.42247000  1
  C  734  1  0.61605400  0.97368500  0.92607000  1
  C  735  1  0.56795400  0.95632700  0.93808800  1
  C  736  1  0.47603700  0.95355200  0.93694800  1
  C  737  1  0.93701800  0.47248500  0.92429700  1
  C  740  1  0.47073400  0.91234700  0.96051100  1
  C  741  1  0.55944400  0.91840500  0.96207900  1
  C  742  1  0.60755200  0.93949900  0.95093300  1
  C  745  1  0.70652100  0.97765000  0.92538400  1
  C  747  1  0.65965500  0.71832200  0.25893400  1
  C  748  1  0.65843300  0.75078200  0.27102600  1
  C  749  1  0.70088000  0.79800000  0.26998700  1
  C  750  1  0.74752200  0.80984200  0.25726000  1
  C  753  1  0.68955900  0.83265000  0.28130100  1
  C  754  1  0.64338400  0.82059700  0.29371500  1
  C  755  1  0.60665900  0.77351600  0.29511200  1
  C  758  1  0.80255700  0.85086500  0.25486900  1
  C  760  1  0.47027700  0.54648800  0.16461600  1
  C  761  1  0.46160400  0.54301600  0.17989100  1
  C  762  1  0.00123400  0.00265800  0.18687600  1
  C  764  1  0.41319400  0.57985800  0.18715800  1
  C  765  1  0.37565800  0.61959300  0.17971000  1
  C  766  1  0.38533200  0.62329600  0.16482400  1
  C  770  1  0.99857300  0.99456000  0.20163600  1
  C  772  1  0.99288800  0.00742800  0.82392200  1
  C  773  1  0.96311100  0.96475100  0.83146400  1
  C  774  1  0.97510100  0.96211400  0.84669500  1
  C  775  1  0.94817100  0.91874300  0.85405600  1
  C  776  1  0.90836200  0.87940400  0.84677200  1
  C  777  1  0.89441000  0.88259100  0.83197600  1
  C  778  1  0.92146100  0.92479000  0.82440400  1
  C  783  1  0.98671700  0.01492700  0.80914600  1
  C  788  1  0.50382900  0.49333100  0.47580400  1
  H  1  1  0.57342000  0.49770100  0.11251100  1
  H  8  1  0.62170700  0.41009800  0.80385800  1
  H  14  1  0.02500500  0.02727700  0.39879700  1
  H  15  1  0.10202800  0.05963900  0.41527900  1
  H  27  1  0.87838200  0.15695200  0.62586500  1
  H  28  1  0.65919400  0.37127100  0.55323700  1
  H  29  1  0.60571600  0.45131400  0.59655900  1
  H  30  1  0.96017100  0.09173300  0.58157300  1
  H  33  1  0.06996000  0.00634800  0.89868400  1
  H  39  1  0.66624900  0.48848200  0.91504700  1
  H  46  1  0.04128800  0.02189900  0.27819900  1
  H  47  1  0.04213400  0.08026200  0.26265200  1
  H  54  1  0.06583000  0.98669500  0.70647200  1
  H  58  1  0.57970100  0.50943100  0.30580900  1
  H  64  1  0.95859300  0.22639100  0.61370600  1
  H  65  1  0.77643300  0.36985500  0.61869300  1
  H  67  1  0.69775900  0.38966500  0.60046400  1
  H  71  1  0.93688600  0.09103400  0.14621500  1
  H  73  1  0.06819000  0.03635600  0.13868400  1
  H  77  1  0.07822200  0.02644700  0.87189400  1
  H  81  1  0.17167500  0.00104800  0.47926100  1
  H  82  1  0.07330800  0.99739400  0.11237600  1
  H  88  1  0.49262600  0.54122000  0.77912700  1
  H  93  1  0.53149400  0.52468900  0.39881400  1
  H  94  1  0.60870900  0.55748800  0.41513100  1
  H  106  1  0.37827700  0.65713200  0.62595100  1
  H  107  1  0.15919300  0.87136900  0.55305800  1
  H  108  1  0.10595700  0.95136700  0.59639700  1
  H  109  1  0.46004800  0.59168800  0.58168900  1
  H  112  1  0.57293700  0.50623300  0.89862900  1
  H  118  1  0.16393400  0.98836000  0.91502800  1
  H  125  1  0.52991500  0.52559100  0.27948900  1
  H  126  1  0.54556200  0.57972400  0.26323600  1
  H  133  1  0.56629700  0.48661200  0.70660800  1
  H  140  1  0.45819100  0.72655000  0.61375700  1
  H  141  1  0.27616300  0.87013700  0.61856900  1
  H  143  1  0.19780900  0.88978400  0.60029900  1
  H  147  1  0.43707100  0.59069400  0.14647200  1
  H  149  1  0.56904600  0.53559300  0.13898300  1
  H  154  1  0.58419200  0.52414400  0.87200000  1
  H  158  1  0.67592400  0.49927700  0.47968500  1
  H  164  1  0.53224800  0.48617100  0.61278400  1
  H  165  1  0.91269900  0.11757600  0.63798300  1
  H  166  1  0.61228400  0.40514500  0.54085000  1
  H  171  1  0.02490900  0.04101300  0.37305300  1
  H  176  1  0.87744800  0.17082700  0.57872300  1
  H  183  1  0.03234500  0.98606000  0.61262500  1
  H  184  1  0.41254400  0.61780900  0.63808600  1
  H  185  1  0.11216400  0.90525800  0.54068400  1
  H  190  1  0.51108700  0.54201800  0.37351200  1
  H  195  1  0.37739500  0.67068400  0.57879200  1
  H  198  1  0.98651600  0.04971300  0.80565700  1
  H  202  1  0.72811900  0.50999900  0.03998600  1
  H  203  1  0.16620800  0.02194600  0.09636300  1
  H  206  1  0.08981100  0.11031300  0.47068800  1
  H  209  1  0.22857500  0.99963500  0.97136600  1
  H  212  1  0.14017600  0.14697200  0.21952200  1
  H  213  1  0.11381100  0.10652300  0.20708200  1
  H  217  1  0.14831600  0.05979300  0.64600400  1
  H  218  1  0.14764800  0.06323300  0.69794000  1
  H  221  1  0.96268200  0.27475300  0.63491000  1
  H  222  1  0.87023400  0.34635900  0.63746900  1
  H  223  1  0.09072700  0.15664100  0.26674400  1
  H  227  1  0.17417400  0.02188000  0.53083600  1
  H  231  1  0.22829600  0.00996900  0.03994600  1
  H  232  1  0.66629400  0.52184400  0.09641700  1
  H  235  1  0.59946300  0.60846800  0.47052500  1
  H  238  1  0.72927700  0.49917700  0.97143400  1
  H  241  1  0.63875400  0.64634800  0.21988500  1
  H  242  1  0.61150300  0.60587400  0.20751400  1
  H  246  1  0.64797400  0.55991000  0.64613300  1
  H  247  1  0.64803200  0.56330100  0.69807100  1
  H  250  1  0.46207700  0.77510700  0.63492400  1
  H  251  1  0.36968800  0.84677300  0.63739500  1
  H  252  1  0.59316800  0.65650600  0.26715900  1
  H  256  1  0.67484600  0.52231500  0.53118300  1
  H  258  1  0.14200100  0.14303400  0.45861100  1
  H  260  1  0.30463600  0.01211900  0.05206000  1
  H  262  1  0.80538700  0.49668100  0.95929600  1
  H  265  1  0.25646100  0.10469500  0.65878700  1
  H  266  1  0.25612300  0.10653800  0.68471900  1
  H  267  1  0.82627500  0.51954000  0.09921800  1
  H  269  1  0.19310200  0.12144700  0.41170800  1
  H  271  1  0.86910300  0.42175800  0.94711600  1
  H  272  1  0.93964900  0.39545500  0.96830700  1
  H  274  1  0.32475600  0.98964400  0.91207100  1
  H  276  1  0.06983400  0.26373700  0.30397000  1
  H  277  1  0.08147800  0.20544300  0.28509800  1
  H  279  1  0.30586500  0.01905800  0.51769100  1
  H  280  1  0.30478000  0.00853500  0.49193400  1
  H  281  1  0.80449800  0.51214700  0.05209100  1
  H  283  1  0.65056300  0.64122500  0.45833200  1
  H  285  1  0.30434500  0.99703000  0.95917100  1
  H  288  1  0.75642500  0.60468700  0.65887900  1
  H  289  1  0.75644200  0.60651600  0.68481000  1
  H  290  1  0.32620200  0.01956200  0.09919500  1
  H  292  1  0.69902400  0.62009400  0.41137700  1
  H  294  1  0.36632800  0.92112100  0.94705500  1
  H  295  1  0.43606000  0.89490400  0.96833700  1
  H  297  1  0.82635300  0.49012200  0.91214400  1
  H  299  1  0.57206700  0.76486500  0.30408500  1
  H  300  1  0.58220900  0.70639800  0.28524100  1
  H  302  1  0.80741000  0.51930700  0.51828800  1
  H  303  1  0.80811000  0.50762100  0.49257300  1
  H  304  1  0.53127700  0.48601500  0.73209800  1
  H  310  1  0.87918300  0.97615900  0.30898700  1
  H  311  1  0.97990300  0.03617900  0.56514900  1
  H  312  1  0.48003300  0.53617900  0.56526700  1
  H  315  1  0.10935200  0.90635600  0.80389000  1
  H  321  1  0.97638100  0.03651300  0.77924500  1
  H  322  1  0.97072100  0.03826100  0.97237400  1
  H  326  1  0.47163400  0.53807800  0.97230800  1
  H  337  1  0.47105800  0.50587300  0.06551100  1
  H  338  1  0.73761300  0.00772200  0.12505300  1
  H  339  1  0.31234100  0.49841300  0.13728200  1
  H  340  1  0.88363500  0.02858300  0.08177600  1
  H  355  1  0.85492900  0.14989100  0.71844600  1
  H  356  1  0.89667300  0.11286600  0.70634600  1
  H  357  1  0.64509700  0.36811400  0.79166800  1
  H  358  1  0.54091400  0.43108400  0.74845600  1
  H  359  1  0.90673500  0.07526800  0.76270700  1
  H  363  1  0.46829500  0.47797200  0.44584400  1
  H  371  1  0.37448200  0.35460200  0.38548600  1
  H  372  1  0.40948700  0.39378200  0.37336300  1
  H  373  1  0.45742200  0.41945000  0.42979000  1
  H  393  1  0.97057200  0.00543300  0.94629100  1
  H  394  1  0.23595500  0.49902500  0.88662800  1
  H  395  1  0.80611200  0.00573600  0.87458700  1
  H  396  1  0.38288800  0.48576600  0.92993900  1
  H  400  1  0.48151200  0.47421800  0.23197700  1
  H  408  1  0.35066200  0.36302700  0.29265400  1
  H  409  1  0.39238800  0.39988900  0.30478700  1
  H  410  1  0.40818300  0.43651500  0.24839100  1
  H  420  1  0.52463200  0.41050600  0.97952600  1
  H  421  1  0.53718200  0.33382000  0.99224300  1
  H  422  1  0.53926900  0.33274900  0.01817500  1
  H  423  1  0.52842500  0.40848100  0.03146300  1
  H  425  1  0.45511700  0.48716900  0.04014500  1
  H  431  1  0.48313000  0.46941000  0.63894900  1
  H  440  1  0.82504500  0.05333000  0.31646400  1
  H  441  1  0.72803400  0.09796600  0.33146400  1
  H  442  1  0.75014900  0.10078400  0.35712600  1
  H  443  1  0.87138100  0.06032100  0.36772900  1
  H  456  1  0.36927900  0.08734400  0.06413000  1
  H  457  1  0.44046100  0.11414400  0.04306800  1
  H  458  1  0.59453800  0.10526200  0.04081900  1
  H  459  1  0.67636000  0.07100600  0.05975500  1
  H  461  1  0.74482500  0.04194600  0.07803900  1
  H  473  1  0.70911100  0.14478100  0.73047100  1
  H  474  1  0.63286600  0.16717700  0.70947900  1
  H  475  1  0.56888100  0.24861900  0.70735500  1
  H  476  1  0.57966700  0.30644000  0.72634200  1
  H  478  1  0.58982200  0.35510200  0.74464100  1
  H  480  1  0.83198000  0.15643600  0.76557000  1
  H  491  1  0.45281000  0.28442000  0.39776100  1
  H  492  1  0.45782900  0.23461800  0.37686100  1
  H  493  1  0.36685600  0.16224700  0.37472900  1
  H  494  1  0.27336300  0.13955100  0.39360500  1
  H  496  1  0.37252100  0.34118000  0.43263500  1
  H  511  1  0.09330800  0.40579800  0.97085100  1
  H  512  1  0.17543200  0.44092300  0.95206900  1
  H  514  1  0.24441700  0.47050400  0.93385300  1
  H  524  1  0.20675000  0.36807100  0.28045700  1
  H  525  1  0.13157100  0.34568100  0.30158000  1
  H  527  1  0.33094100  0.35579700  0.24549100  1
  H  535  1  0.90387500  0.07812200  0.19771400  1
  H  536  1  0.84083200  0.14577000  0.18492500  1
  H  537  1  0.85748700  0.15238100  0.15920800  1
  H  539  1  0.50470700  0.45954200  0.20539400  1
  H  547  1  0.45357500  0.41612300  0.86447000  1
  H  548  1  0.38210400  0.35163600  0.85156000  1
  H  549  1  0.36463900  0.35715700  0.82583800  1
  H  550  1  0.41930600  0.42716300  0.81295900  1
  H  552  1  0.43820800  0.52027100  0.80541900  1
  H  557  1  0.02557300  0.96375000  0.47190700  1
  H  559  1  0.94679800  0.03298600  0.53865000  1
  H  567  1  0.97110600  0.00592200  0.06543900  1
  H  568  1  0.23756200  0.50766500  0.12510900  1
  H  569  1  0.81251800  0.99834000  0.13719800  1
  H  570  1  0.38374600  0.52845100  0.08186900  1
  H  586  1  0.02808000  0.98536300  0.73182300  1
  H  587  1  0.35521600  0.64968700  0.71875000  1
  H  588  1  0.39639800  0.61257100  0.70662500  1
  H  589  1  0.13875500  0.86622700  0.79156100  1
  H  590  1  0.04580700  0.93192400  0.74807800  1
  H  591  1  0.40995000  0.57561400  0.76304800  1
  H  595  1  0.95915200  0.98037700  0.44570300  1
  H  603  1  0.87456300  0.85546100  0.38520000  1
  H  604  1  0.91008200  0.89468100  0.37313700  1
  H  605  1  0.95145500  0.92145500  0.42967000  1
  H  625  1  0.47191900  0.50506500  0.94616400  1
  H  626  1  0.73242200  0.99911100  0.88706000  1
  H  627  1  0.31018000  0.50556600  0.87423600  1
  H  628  1  0.88106500  0.98560000  0.93019700  1
  H  632  1  0.98209300  0.97460500  0.23126900  1
  H  640  1  0.86868300  0.85693400  0.29121600  1
  H  641  1  0.92448700  0.88870100  0.30295300  1
  H  642  1  0.90102100  0.93984800  0.24769100  1
  H  652  1  0.02428100  0.91070000  0.97950900  1
  H  653  1  0.03721300  0.83396700  0.99219400  1
  H  654  1  0.03956400  0.83278300  0.01812600  1
  H  655  1  0.02862800  0.90845200  0.03144400  1
  H  657  1  0.95530500  0.98697300  0.04016100  1
  H  663  1  0.98386200  0.96916600  0.63876200  1
  H  672  1  0.36221400  0.54719300  0.31288100  1
  H  673  1  0.24128700  0.57970200  0.32560700  1
  H  674  1  0.23836300  0.57878900  0.35153600  1
  H  675  1  0.35672100  0.54549400  0.36481500  1
  H  688  1  0.86941100  0.58725100  0.06414000  1
  H  689  1  0.94066700  0.61405800  0.04308500  1
  H  690  1  0.09476000  0.60520700  0.04085400  1
  H  691  1  0.17653100  0.57097300  0.05980300  1
  H  693  1  0.24497000  0.54191800  0.07810100  1
  H  705  1  0.20984100  0.64408900  0.73088900  1
  H  706  1  0.13426700  0.66601000  0.70977800  1
  H  707  1  0.07164700  0.74770300  0.70733800  1
  H  708  1  0.08298100  0.80622500  0.72613200  1
  H  710  1  0.09317700  0.85545700  0.74429700  1
  H  712  1  0.33338200  0.65676100  0.76587700  1
  H  723  1  0.95339100  0.78620700  0.39757000  1
  H  724  1  0.96026100  0.73665900  0.37662800  1
  H  725  1  0.87133600  0.66348000  0.37438200  1
  H  726  1  0.77822400  0.63965600  0.39321100  1
  H  728  1  0.86971800  0.84216200  0.43236300  1
  H  743  1  0.58952400  0.90559500  0.97109100  1
  H  744  1  0.67232600  0.94096100  0.95241800  1
  H  746  1  0.74217000  0.97052400  0.93424800  1
  H  756  1  0.71046200  0.86833000  0.28047800  1
  H  757  1  0.63539900  0.84637200  0.30164500  1
  H  759  1  0.82559400  0.85751300  0.24478500  1
  H  767  1  0.40391100  0.57824000  0.19797900  1
  H  768  1  0.34103700  0.64580700  0.18513200  1
  H  769  1  0.35778200  0.65219500  0.15941400  1
  H  771  1  0.00611300  0.95994000  0.20503900  1
  H  779  1  0.95740500  0.91492900  0.86483400  1
  H  780  1  0.88911600  0.84851300  0.85226400  1
  H  781  1  0.86487800  0.85405500  0.82669700  1
  H  782  1  0.90984400  0.92576200  0.81363800  1
  H  789  1  0.52725400  0.46150400  0.47214400  1
  H  791  1  0.44698500  0.53257300  0.53861100  1
  N  6  1  0.57191500  0.51091900  0.04328200  1
  N  9  1  0.54941400  0.49086700  0.80088600  1
  N  16  1  0.00535700  0.03357300  0.46753800  1
  N  21  1  0.62567700  0.40060800  0.55092800  1
  N  26  1  0.91053500  0.12699500  0.62794600  1
  N  31  1  0.90343900  0.15700700  0.59974900  1
  N  32  1  0.66808000  0.38457100  0.57933200  1
  N  40  1  0.07231200  0.99897400  0.96822000  1
  N  48  1  0.03357800  0.02843000  0.20959800  1
  N  49  1  0.00363400  0.04485100  0.99910300  1
  N  50  1  0.00347500  0.04406300  0.01311700  1
  N  55  1  0.57273700  0.48894900  0.33240100  1
  N  56  1  0.57167600  0.48925000  0.34641900  1
  N  69  1  0.55066700  0.47164000  0.16510800  1
  N  74  1  0.03933500  0.04192000  0.84575300  1
  N  75  1  0.02945200  0.04403200  0.83186100  1
  N  87  1  0.07203500  0.01092600  0.04323600  1
  N  95  1  0.51501000  0.53174200  0.46757600  1
  N  100  1  0.12561800  0.90069500  0.55075900  1
  N  105  1  0.41039000  0.62717600  0.62804600  1
  N  110  1  0.40327900  0.65704300  0.59983100  1
  N  111  1  0.16817900  0.88458300  0.57916800  1
  N  119  1  0.57308700  0.49860600  0.96817800  1
  N  127  1  0.53151000  0.52796200  0.21019000  1
  N  128  1  0.50416300  0.54474500  0.99906400  1
  N  129  1  0.50383000  0.54401700  0.01308100  1
  N  134  1  0.04581900  0.98009100  0.34509500  1
  N  145  1  0.05103600  0.97191900  0.16477000  1
  N  151  1  0.55162700  0.53991400  0.84565200  1
  N  152  1  0.54380000  0.54230700  0.83171400  1
  N  159  1  0.61979100  0.40017800  0.79385900  1
  N  167  1  0.99139500  0.03967600  0.63467300  1
  N  168  1  0.53566700  0.48419400  0.54350800  1
  N  173  1  0.80106200  0.25371500  0.57995800  1
  N  174  1  0.75875700  0.29545400  0.58060400  1
  N  186  1  0.49121000  0.53987700  0.63481600  1
  N  187  1  0.03531400  0.98427200  0.54336500  1
  N  192  1  0.30109200  0.75360500  0.57993600  1
  N  193  1  0.25883800  0.79537400  0.58052900  1
  N  201  1  0.24364600  0.01368400  0.04997400  1
  N  205  1  0.10637700  0.11435300  0.46072300  1
  N  208  1  0.74441700  0.49544500  0.96139800  1
  N  210  1  0.79265800  0.48411200  0.93318600  1
  N  211  1  0.11308700  0.11554800  0.21715700  1
  N  214  1  0.11375300  0.14479700  0.24559800  1
  N  230  1  0.74349700  0.51370500  0.05001300  1
  N  234  1  0.61527100  0.61247800  0.46052500  1
  N  237  1  0.24344200  0.99575000  0.96132300  1
  N  239  1  0.29076800  0.98391600  0.93310700  1
  N  240  1  0.61155900  0.61489300  0.21758800  1
  N  243  1  0.61411900  0.64432300  0.24597200  1
  N  259  1  0.15933800  0.12805600  0.43261600  1
  N  261  1  0.29261600  0.02564900  0.07815400  1
  N  282  1  0.79261300  0.52563500  0.07818200  1
  N  284  1  0.66561800  0.62638600  0.43231700  1
  N  309  1  0.02998900  0.97519800  0.33136700  1
  N  325  1  0.02677700  0.98332300  0.80106200  1
  N  329  1  0.11016000  0.89729600  0.79381900  1
  N  336  1  0.79839500  0.00427900  0.12720800  1
  N  341  1  0.75198300  0.02261500  0.09901800  1
  N  342  1  0.46959900  0.49413900  0.13427200  1
  N  354  1  0.88304800  0.11859800  0.71636400  1
  N  360  1  0.97214100  0.03388500  0.70965400  1
  N  361  1  0.83978700  0.13693300  0.74451100  1
  N  362  1  0.61536900  0.36805200  0.76563900  1
  N  370  1  0.40684700  0.38449300  0.38340700  1
  N  374  1  0.48826400  0.47171400  0.37662000  1
  N  375  1  0.39937900  0.35434000  0.41161100  1
  N  392  1  0.29671400  0.50108800  0.88431300  1
  N  397  1  0.25156800  0.48787700  0.91271700  1
  N  398  1  0.96291200  0.00437600  0.87708700  1
  N  407  1  0.37929500  0.39413500  0.29474900  1
  N  411  1  0.46948800  0.47828400  0.30151200  1
  N  412  1  0.33849300  0.37549300  0.26653600  1
  N  427  1  0.45658600  0.48263900  0.66562400  1
  N  428  1  0.45753000  0.48298800  0.67964100  1
  N  450  1  0.98866900  0.52336500  0.09816100  1
  N  451  1  0.07249400  0.52366900  0.09766600  1
  N  467  1  0.74558000  0.23595700  0.76458000  1
  N  468  1  0.70327100  0.27773100  0.76412800  1
  N  485  1  0.29558900  0.25846700  0.43166600  1
  N  486  1  0.25327000  0.21667600  0.43121100  1
  N  506  1  0.48723100  0.98649100  0.91346500  1
  N  507  1  0.57093400  0.98686500  0.91422000  1
  N  519  1  0.24454600  0.27627400  0.24657300  1
  N  520  1  0.20269500  0.23437100  0.24711700  1
  N  531  1  0.54324800  0.46870100  0.17904400  1
  N  554  1  0.93839300  0.00929400  0.51237900  1
  N  555  1  0.93787100  0.00439000  0.49843700  1
  N  566  1  0.29833800  0.50432300  0.12728500  1
  N  571  1  0.25207600  0.52260800  0.09908500  1
  N  572  1  0.96981300  0.99386200  0.13410400  1
  N  585  1  0.38327800  0.61839100  0.71665800  1
  N  592  1  0.47299800  0.53397500  0.70989400  1
  N  593  1  0.34122100  0.63692900  0.74484100  1
  N  594  1  0.11474300  0.86778100  0.76544200  1
  N  602  1  0.90645200  0.88557000  0.38318600  1
  N  606  1  0.98526700  0.97349500  0.37657800  1
  N  607  1  0.89730200  0.85556500  0.41137800  1
  N  624  1  0.79308400  0.00118900  0.88467700  1
  N  629  1  0.74927100  0.98784500  0.91309600  1
  N  630  1  0.46704800  0.50433800  0.87688500  1
  N  639  1  0.89912700  0.88728700  0.29344100  1
  N  643  1  0.99382600  0.97592900  0.30001700  1
  N  644  1  0.83983100  0.87537900  0.26585300  1
  N  659  1  0.95687100  0.98235400  0.66542600  1
  N  660  1  0.95759300  0.98273600  0.67944200  1
  N  682  1  0.48862500  0.02338700  0.09813400  1
  N  683  1  0.57244600  0.02369100  0.09763000  1
  N  699  1  0.24675400  0.73629200  0.76472000  1
  N  700  1  0.20474500  0.77815300  0.76412900  1
  N  717  1  0.79616500  0.75848400  0.43134600  1
  N  718  1  0.75549600  0.71615900  0.43086800  1
  N  738  1  0.98882200  0.48683500  0.91336000  1
  N  739  1  0.07258500  0.48707600  0.91399700  1
  N  751  1  0.74195100  0.77691800  0.24629700  1
  N  752  1  0.70098900  0.73474100  0.24703700  1
  N  763  1  0.04366900  0.96887700  0.17869700  1
  N  786  1  0.44039900  0.50833700  0.51234700  1
  N  787  1  0.44083600  0.50309900  0.49841200  1
