# generated using pymatgen
data_Cr3H44C62O15
_symmetry_space_group_name_H-M   'P 1'
_cell_length_a   13.01747000
_cell_length_b   22.54969000
_cell_length_c   26.98850000
_cell_angle_alpha   90.30511000
_cell_angle_beta   90.07372000
_cell_angle_gamma   89.88064000
_symmetry_Int_Tables_number   1
_chemical_formula_structural   Cr3H44C62O15
_chemical_formula_sum   'Cr12 H176 C248 O60'
_cell_volume   7922.06598240
_cell_formula_units_Z   4
loop_
 _symmetry_equiv_pos_site_id
 _symmetry_equiv_pos_as_xyz
  1  'x, y, z'
loop_
 _atom_site_type_symbol
 _atom_site_label
 _atom_site_symmetry_multiplicity
 _atom_site_fract_x
 _atom_site_fract_y
 _atom_site_fract_z
 _atom_site_occupancy
  Cr  Cr0  1  0.82906000  0.24343000  0.74881000  1
  Cr  Cr1  1  0.82906000  0.75657000  0.25119000  1
  Cr  Cr2  1  0.32906000  0.74343000  0.74881000  1
  Cr  Cr3  1  0.32906000  0.25657000  0.25119000  1
  Cr  Cr4  1  0.70089000  0.37626000  0.75042000  1
  Cr  Cr5  1  0.70089000  0.62374000  0.24958000  1
  Cr  Cr6  1  0.20089000  0.87626000  0.75042000  1
  Cr  Cr7  1  0.20089000  0.12374000  0.24958000  1
  Cr  Cr8  1  0.96376000  0.37401000  0.74952000  1
  Cr  Cr9  1  0.96376000  0.62599000  0.25048000  1
  Cr  Cr10  1  0.46376000  0.87401000  0.74952000  1
  Cr  Cr11  1  0.46376000  0.12599000  0.25048000  1
  H  H12  1  0.99792000  0.52613000  0.11890000  1
  H  H13  1  0.99794000  0.47269000  0.88152000  1
  H  H14  1  0.49794000  0.02629000  0.11886000  1
  H  H15  1  0.49790000  0.97288000  0.88147000  1
  H  H16  1  0.97449000  0.19507000  0.13114000  1
  H  H17  1  0.97454000  0.80504000  0.86876000  1
  H  H18  1  0.47444000  0.69515000  0.13115000  1
  H  H19  1  0.47457000  0.30507000  0.86877000  1
  H  H20  1  0.13270000  0.34779000  0.96441000  1
  H  H21  1  0.13413000  0.65247000  0.03577000  1
  H  H22  1  0.63291000  0.84774000  0.96438000  1
  H  H23  1  0.63404000  0.15245000  0.03576000  1
  H  H24  1  0.10781000  0.34876000  0.87526000  1
  H  H25  1  0.10870000  0.65133000  0.12487000  1
  H  H26  1  0.60800000  0.84870000  0.87523000  1
  H  H27  1  0.60861000  0.15130000  0.12486000  1
  H  H28  1  0.68360000  0.50578000  0.63185000  1
  H  H29  1  0.68294000  0.49870000  0.37012000  1
  H  H30  1  0.21700000  0.02348000  0.62847000  1
  H  H31  1  0.17215000  0.01397000  0.37112000  1
  H  H32  1  0.98438000  0.54620000  0.47597000  1
  H  H33  1  0.98302000  0.45906000  0.52463000  1
  H  H34  1  0.49807000  0.99134000  0.46492000  1
  H  H35  1  0.44776000  0.90634000  0.51840000  1
  H  H36  1  0.99376000  0.56260000  0.38851000  1
  H  H37  1  0.99161000  0.43793000  0.61122000  1
  H  H38  1  0.50350000  0.02204000  0.37928000  1
  H  H39  1  0.45470000  0.89200000  0.60739000  1
  H  H40  1  0.67939000  0.53347000  0.54326000  1
  H  H41  1  0.67864000  0.47541000  0.45923000  1
  H  H42  1  0.21456000  0.04057000  0.53827000  1
  H  H43  1  0.16860000  0.97991000  0.45748000  1
  H  H44  1  0.09538000  0.34896000  0.61627000  1
  H  H45  1  0.09046000  0.65174000  0.38701000  1
  H  H46  1  0.68319000  0.77883000  0.63151000  1
  H  H47  1  0.58114000  0.14666000  0.38585000  1
  H  H48  1  0.17256000  0.15755000  0.39966000  1
  H  H49  1  0.15865000  0.84930000  0.60466000  1
  H  H50  1  0.65946000  0.64351000  0.39293000  1
  H  H51  1  0.66536000  0.34642000  0.60222000  1
  H  H52  1  0.08675000  0.50695000  0.04470000  1
  H  H53  1  0.08676000  0.49108000  0.95590000  1
  H  H54  1  0.58675000  0.00723000  0.04464000  1
  H  H55  1  0.58673000  0.99138000  0.95584000  1
  H  H56  1  0.09629000  0.35190000  0.52586000  1
  H  H57  1  0.08887000  0.65417000  0.47767000  1
  H  H58  1  0.71320000  0.77080000  0.54178000  1
  H  H59  1  0.58228000  0.14799000  0.47649000  1
  H  H60  1  0.99005000  0.34580000  0.43573000  1
  H  H61  1  0.99387000  0.65873000  0.56051000  1
  H  H62  1  0.53866000  0.84013000  0.45086000  1
  H  H63  1  0.49319000  0.15656000  0.56209000  1
  H  H64  1  0.05321000  0.32454000  0.35086000  1
  H  H65  1  0.06265000  0.67463000  0.64499000  1
  H  H66  1  0.57939000  0.82468000  0.36202000  1
  H  H67  1  0.55851000  0.17523000  0.64688000  1
  H  H68  1  0.90697000  0.19284000  0.61148000  1
  H  H69  1  0.92030000  0.81529000  0.38470000  1
  H  H70  1  0.36015000  0.75453000  0.60759000  1
  H  H71  1  0.42573000  0.31562000  0.38620000  1
  H  H72  1  0.96984000  0.17461000  0.88210000  1
  H  H73  1  0.96912000  0.82537000  0.11786000  1
  H  H74  1  0.46965000  0.67466000  0.88212000  1
  H  H75  1  0.46923000  0.32540000  0.11787000  1
  H  H76  1  0.22563000  0.30503000  0.02837000  1
  H  H77  1  0.22670000  0.69529000  0.97188000  1
  H  H78  1  0.72575000  0.80494000  0.02835000  1
  H  H79  1  0.72667000  0.19525000  0.97187000  1
  H  H80  1  0.26019000  0.29035000  0.11537000  1
  H  H81  1  0.26100000  0.70985000  0.88486000  1
  H  H82  1  0.76031000  0.79026000  0.11535000  1
  H  H83  1  0.76095000  0.20981000  0.88484000  1
  H  H84  1  0.99718000  0.17345000  0.97102000  1
  H  H85  1  0.99684000  0.82668000  0.02900000  1
  H  H86  1  0.49699000  0.67350000  0.97104000  1
  H  H87  1  0.49697000  0.32672000  0.02902000  1
  H  H88  1  0.93484000  0.21469000  0.04405000  1
  H  H89  1  0.93518000  0.78555000  0.95584000  1
  H  H90  1  0.43478000  0.71479000  0.04406000  1
  H  H91  1  0.43522000  0.28560000  0.95585000  1
  H  H92  1  0.05973000  0.07499000  0.50473000  1
  H  H93  1  0.14649000  0.08809000  0.45548000  1
  H  H94  1  0.91555000  0.12096000  0.44694000  1
  H  H95  1  0.00459000  0.10927000  0.39757000  1
  H  H96  1  0.01397000  0.00270000  0.41568000  1
  H  H97  1  0.88358000  0.02656000  0.40674000  1
  H  H98  1  0.93058000  0.01295000  0.46858000  1
  H  H99  1  0.04854000  0.93743000  0.50383000  1
  H  H100  1  0.12766000  0.92088000  0.55501000  1
  H  H101  1  0.89105000  0.90637000  0.54498000  1
  H  H102  1  0.95959000  0.88097000  0.59839000  1
  H  H103  1  0.02313000  0.98245000  0.61554000  1
  H  H104  1  0.88474000  0.98047000  0.61227000  1
  H  H105  1  0.95770000  0.00925000  0.56090000  1
  H  H106  1  0.52352000  0.56065000  0.49165000  1
  H  H107  1  0.59746000  0.57199000  0.43788000  1
  H  H108  1  0.38886000  0.63516000  0.45273000  1
  H  H109  1  0.45844000  0.62562000  0.39629000  1
  H  H110  1  0.43398000  0.51574000  0.40110000  1
  H  H111  1  0.31455000  0.55662000  0.39878000  1
  H  H112  1  0.35864000  0.52658000  0.45684000  1
  H  H113  1  0.54651000  0.43148000  0.49978000  1
  H  H114  1  0.63352000  0.41844000  0.54921000  1
  H  H115  1  0.40166000  0.38582000  0.55352000  1
  H  H116  1  0.48906000  0.38966000  0.60462000  1
  H  H117  1  0.51104000  0.49877000  0.59050000  1
  H  H118  1  0.38077000  0.47748000  0.60419000  1
  H  H119  1  0.41677000  0.49431000  0.54130000  1
  H  H120  1  0.73378000  0.17325000  0.50524000  1
  H  H121  1  0.76479000  0.20017000  0.56472000  1
  H  H122  1  0.82269000  0.07907000  0.51675000  1
  H  H123  1  0.87330000  0.10276000  0.57551000  1
  H  H124  1  0.69680000  0.10788000  0.61029000  1
  H  H125  1  0.72277000  0.03556000  0.58457000  1
  H  H126  1  0.64358000  0.08667000  0.55052000  1
  H  H127  1  0.73620000  0.84390000  0.48546000  1
  H  H128  1  0.77206000  0.80917000  0.42904000  1
  H  H129  1  0.81384000  0.93525000  0.46881000  1
  H  H130  1  0.89077000  0.90642000  0.41888000  1
  H  H131  1  0.73233000  0.88973000  0.36834000  1
  H  H132  1  0.74211000  0.96591000  0.38780000  1
  H  H133  1  0.65411000  0.91766000  0.41908000  1
  H  H134  1  0.24522000  0.68927000  0.49541000  1
  H  H135  1  0.24623000  0.72830000  0.55201000  1
  H  H136  1  0.39902000  0.62487000  0.53763000  1
  H  H137  1  0.34025000  0.65077000  0.59345000  1
  H  H138  1  0.17054000  0.61087000  0.56515000  1
  H  H139  1  0.26747000  0.55459000  0.56936000  1
  H  H140  1  0.23098000  0.58266000  0.50946000  1
  H  H141  1  0.23582000  0.32613000  0.48795000  1
  H  H142  1  0.27471000  0.30608000  0.42777000  1
  H  H143  1  0.31450000  0.42560000  0.48182000  1
  H  H144  1  0.36414000  0.40774000  0.42136000  1
  H  H145  1  0.18491000  0.39627000  0.38929000  1
  H  H146  1  0.20448000  0.46849000  0.41616000  1
  H  H147  1  0.13501000  0.41375000  0.45055000  1
  H  H148  1  0.58156000  0.57705000  0.14742000  1
  H  H149  1  0.44833000  0.54231000  0.20548000  1
  H  H150  1  0.44338000  0.43669000  0.23056000  1
  H  H151  1  0.57299000  0.36603000  0.19780000  1
  H  H152  1  0.70670000  0.40021000  0.13983000  1
  H  H153  1  0.58152000  0.42344000  0.85227000  1
  H  H154  1  0.44854000  0.45873000  0.79401000  1
  H  H155  1  0.44402000  0.56440000  0.76901000  1
  H  H156  1  0.57377000  0.63456000  0.80207000  1
  H  H157  1  0.70714000  0.59986000  0.86030000  1
  H  H158  1  0.08151000  0.07687000  0.14756000  1
  H  H159  1  0.94850000  0.04195000  0.20566000  1
  H  H160  1  0.94387000  0.93629000  0.23067000  1
  H  H161  1  0.07355000  0.86577000  0.19777000  1
  H  H162  1  0.20703000  0.90011000  0.13975000  1
  H  H163  1  0.08156000  0.92317000  0.85244000  1
  H  H164  1  0.94841000  0.95819000  0.79415000  1
  H  H165  1  0.94352000  0.06380000  0.76899000  1
  H  H166  1  0.07308000  0.13417000  0.80192000  1
  H  H167  1  0.20665000  0.09974000  0.86015000  1
  H  H168  1  0.53625000  0.60686000  0.04112000  1
  H  H169  1  0.35880000  0.62030000  0.07266000  1
  H  H170  1  0.25706000  0.53324000  0.09866000  1
  H  H171  1  0.33262000  0.43228000  0.09337000  1
  H  H172  1  0.50979000  0.41874000  0.06229000  1
  H  H173  1  0.53642000  0.39337000  0.95862000  1
  H  H174  1  0.35903000  0.38028000  0.92682000  1
  H  H175  1  0.25717000  0.46755000  0.90071000  1
  H  H176  1  0.33258000  0.56837000  0.90614000  1
  H  H177  1  0.50971000  0.58155000  0.93748000  1
  H  H178  1  0.03624000  0.10681000  0.04119000  1
  H  H179  1  0.85884000  0.12023000  0.07279000  1
  H  H180  1  0.75714000  0.03315000  0.09881000  1
  H  H181  1  0.83271000  0.93220000  0.09347000  1
  H  H182  1  0.00985000  0.91868000  0.06233000  1
  H  H183  1  0.03633000  0.89333000  0.95872000  1
  H  H184  1  0.85891000  0.88024000  0.92696000  1
  H  H185  1  0.75706000  0.96750000  0.90082000  1
  H  H186  1  0.83251000  0.06831000  0.90619000  1
  H  H187  1  0.00966000  0.08150000  0.93748000  1
  C  C188  1  0.65520000  0.27910000  0.82162000  1
  C  C189  1  0.65514000  0.72091000  0.17840000  1
  C  C190  1  0.15520000  0.77910000  0.82162000  1
  C  C191  1  0.15514000  0.22091000  0.17840000  1
  C  C192  1  0.83378000  0.52426000  0.12875000  1
  C  C193  1  0.83383000  0.47542000  0.87138000  1
  C  C194  1  0.33381000  0.02429000  0.12874000  1
  C  C195  1  0.33378000  0.97546000  0.87137000  1
  C  C196  1  0.73790000  0.48874000  0.89383000  1
  C  C197  1  0.73784000  0.51117000  0.10621000  1
  C  C198  1  0.23783000  0.98871000  0.89383000  1
  C  C199  1  0.23787000  0.01114000  0.10622000  1
  C  C200  1  0.73190000  0.49428000  0.94678000  1
  C  C201  1  0.73186000  0.50549000  0.05326000  1
  C  C202  1  0.23185000  0.99428000  0.94679000  1
  C  C203  1  0.23187000  0.00548000  0.05326000  1
  C  C204  1  0.82539000  0.49616000  0.97404000  1
  C  C205  1  0.82537000  0.50318000  0.02614000  1
  C  C206  1  0.32535000  0.99623000  0.97403000  1
  C  C207  1  0.32536000  0.00325000  0.02613000  1
  C  C208  1  0.63762000  0.49690000  0.97371000  1
  C  C209  1  0.63760000  0.50312000  0.02619000  1
  C  C210  1  0.13758000  0.99686000  0.97374000  1
  C  C211  1  0.13759000  0.00308000  0.02622000  1
  C  C212  1  0.03715000  0.26161000  0.87155000  1
  C  C213  1  0.03720000  0.73841000  0.12850000  1
  C  C214  1  0.53715000  0.76160000  0.87155000  1
  C  C215  1  0.53721000  0.23841000  0.12850000  1
  C  C216  1  0.00842000  0.21192000  0.89932000  1
  C  C217  1  0.00813000  0.78812000  0.10070000  1
  C  C218  1  0.50831000  0.71194000  0.89933000  1
  C  C219  1  0.50820000  0.28813000  0.10071000  1
  C  C220  1  0.02229000  0.21164000  0.95038000  1
  C  C221  1  0.02226000  0.78849000  0.04966000  1
  C  C222  1  0.52219000  0.71166000  0.95039000  1
  C  C223  1  0.52233000  0.28851000  0.04967000  1
  C  C224  1  0.06568000  0.26066000  0.97475000  1
  C  C225  1  0.06629000  0.73956000  0.02534000  1
  C  C226  1  0.56570000  0.76066000  0.97475000  1
  C  C227  1  0.56631000  0.23957000  0.02534000  1
  C  C228  1  0.09942000  0.30913000  0.94671000  1
  C  C229  1  0.10036000  0.69107000  0.05342000  1
  C  C230  1  0.59953000  0.80910000  0.94669000  1
  C  C231  1  0.60031000  0.19106000  0.05342000  1
  C  C232  1  0.84215000  0.44691000  0.82211000  1
  C  C233  1  0.84217000  0.55303000  0.17792000  1
  C  C234  1  0.34214000  0.94691000  0.82211000  1
  C  C235  1  0.34217000  0.05303000  0.17792000  1
  C  C236  1  0.08578000  0.30946000  0.89553000  1
  C  C237  1  0.08640000  0.69063000  0.10458000  1
  C  C238  1  0.58589000  0.80943000  0.89551000  1
  C  C239  1  0.58636000  0.19062000  0.10457000  1
  C  C240  1  0.16792000  0.28318000  0.05058000  1
  C  C241  1  0.16880000  0.71711000  0.94959000  1
  C  C242  1  0.66800000  0.78312000  0.05057000  1
  C  C243  1  0.66877000  0.21709000  0.94959000  1
  C  C244  1  0.18783000  0.27451000  0.10055000  1
  C  C245  1  0.18855000  0.72570000  0.89962000  1
  C  C246  1  0.68791000  0.77445000  0.10053000  1
  C  C247  1  0.68852000  0.22568000  0.89961000  1
  C  C248  1  0.02790000  0.22064000  0.10918000  1
  C  C249  1  0.02819000  0.77952000  0.89080000  1
  C  C250  1  0.52788000  0.72068000  0.10918000  1
  C  C251  1  0.52820000  0.27954000  0.89080000  1
  C  C252  1  0.00623000  0.23115000  0.05937000  1
  C  C253  1  0.00669000  0.76908000  0.94061000  1
  C  C254  1  0.50621000  0.73120000  0.05937000  1
  C  C255  1  0.50671000  0.26911000  0.94062000  1
  C  C256  1  0.07864000  0.25976000  0.02907000  1
  C  C257  1  0.07935000  0.74052000  0.97101000  1
  C  C258  1  0.57867000  0.75976000  0.02907000  1
  C  C259  1  0.57935000  0.24052000  0.97101000  1
  C  C260  1  0.12023000  0.24091000  0.12967000  1
  C  C261  1  0.12062000  0.75920000  0.87039000  1
  C  C262  1  0.62026000  0.74091000  0.12966000  1
  C  C263  1  0.62061000  0.25920000  0.87038000  1
  C  C264  1  0.83770000  0.46991000  0.62827000  1
  C  C265  1  0.83847000  0.53230000  0.37247000  1
  C  C266  1  0.33739000  0.95751000  0.62452000  1
  C  C267  1  0.33748000  0.02179000  0.36875000  1
  C  C268  1  0.74975000  0.49707000  0.60864000  1
  C  C269  1  0.74968000  0.50757000  0.39297000  1
  C  C270  1  0.26794000  0.99837000  0.60456000  1
  C  C271  1  0.24360000  0.00765000  0.39096000  1
  C  C272  1  0.74703000  0.51212000  0.55830000  1
  C  C273  1  0.74654000  0.49537000  0.44375000  1
  C  C274  1  0.26576000  0.00746000  0.55324000  1
  C  C275  1  0.24141000  0.98873000  0.44022000  1
  C  C276  1  0.99680000  0.26902000  0.82107000  1
  C  C277  1  0.99682000  0.73097000  0.17893000  1
  C  C278  1  0.49681000  0.76902000  0.82107000  1
  C  C279  1  0.49682000  0.23097000  0.17893000  1
  C  C280  1  0.83036000  0.49752000  0.52743000  1
  C  C281  1  0.83011000  0.51024000  0.47427000  1
  C  C282  1  0.33004000  0.97413000  0.52164000  1
  C  C283  1  0.33228000  0.98508000  0.46793000  1
  C  C284  1  0.91803000  0.47122000  0.54763000  1
  C  C285  1  0.91874000  0.53423000  0.45331000  1
  C  C286  1  0.39780000  0.93265000  0.54193000  1
  C  C287  1  0.42658000  0.99457000  0.44450000  1
  C  C288  1  0.92257000  0.45895000  0.59746000  1
  C  C289  1  0.92384000  0.54360000  0.40300000  1
  C  C290  1  0.40195000  0.92479000  0.59279000  1
  C  C291  1  0.42927000  0.01226000  0.39533000  1
  C  C292  1  0.00409000  0.26899000  0.62024000  1
  C  C293  1  0.00735000  0.73428000  0.37928000  1
  C  C294  1  0.51987000  0.76455000  0.62469000  1
  C  C295  1  0.50724000  0.23256000  0.37925000  1
  C  C296  1  0.05511000  0.31487000  0.59566000  1
  C  C297  1  0.05290000  0.68819000  0.40597000  1
  C  C298  1  0.61915000  0.77158000  0.60656000  1
  C  C299  1  0.54827000  0.18430000  0.40530000  1
  C  C300  1  0.05473000  0.31689000  0.54405000  1
  C  C301  1  0.05039000  0.68916000  0.45763000  1
  C  C302  1  0.63554000  0.76798000  0.55573000  1
  C  C303  1  0.54684000  0.18441000  0.45700000  1
  C  C304  1  0.00442000  0.27273000  0.51648000  1
  C  C305  1  0.00233000  0.73614000  0.48312000  1
  C  C306  1  0.55248000  0.75813000  0.52346000  1
  C  C307  1  0.50250000  0.23209000  0.48304000  1
  C  C308  1  0.94123000  0.23158000  0.54074000  1
  C  C309  1  0.94475000  0.77831000  0.45670000  1
  C  C310  1  0.45320000  0.74896000  0.54157000  1
  C  C311  1  0.44585000  0.27491000  0.45698000  1
  C  C312  1  0.94779000  0.22756000  0.59248000  1
  C  C313  1  0.95575000  0.77968000  0.40511000  1
  C  C314  1  0.43693000  0.75605000  0.59241000  1
  C  C315  1  0.45852000  0.27830000  0.40568000  1
  C  C316  1  0.08335000  0.20560000  0.45397000  1
  C  C317  1  0.07135000  0.80321000  0.54874000  1
  C  C318  1  0.59451000  0.69213000  0.45390000  1
  C  C319  1  0.57668000  0.29939000  0.54738000  1
  C  C320  1  0.65148000  0.27868000  0.67889000  1
  C  C321  1  0.65313000  0.72057000  0.32167000  1
  C  C322  1  0.15118000  0.77873000  0.67901000  1
  C  C323  1  0.15141000  0.22156000  0.32102000  1
  C  C324  1  0.12862000  0.19730000  0.40754000  1
  C  C325  1  0.11789000  0.80912000  0.59506000  1
  C  C326  1  0.62938000  0.68577000  0.40543000  1
  C  C327  1  0.62342000  0.30626000  0.59356000  1
  C  C328  1  0.06373000  0.29207000  0.37985000  1
  C  C329  1  0.06674000  0.70987000  0.61798000  1
  C  C330  1  0.58656000  0.78834000  0.38784000  1
  C  C331  1  0.56583000  0.20911000  0.61883000  1
  C  C332  1  0.02715000  0.30380000  0.42777000  1
  C  C333  1  0.02648000  0.70135000  0.57036000  1
  C  C334  1  0.56269000  0.79680000  0.43781000  1
  C  C335  1  0.52762000  0.19898000  0.57099000  1
  C  C336  1  0.03686000  0.26074000  0.46495000  1
  C  C337  1  0.02971000  0.74745000  0.53539000  1
  C  C338  1  0.57181000  0.74931000  0.47095000  1
  C  C339  1  0.53308000  0.24378000  0.53499000  1
  C  C340  1  0.11384000  0.23833000  0.36992000  1
  C  C341  1  0.11235000  0.76407000  0.63003000  1
  C  C342  1  0.62223000  0.73292000  0.37214000  1
  C  C343  1  0.61356000  0.26307000  0.62986000  1
  C  C344  1  0.84174000  0.44550000  0.67840000  1
  C  C345  1  0.84202000  0.55490000  0.32180000  1
  C  C346  1  0.34178000  0.94367000  0.67741000  1
  C  C347  1  0.34200000  0.05366000  0.32129000  1
  C  C348  1  0.98784000  0.27102000  0.67403000  1
  C  C349  1  0.98978000  0.72975000  0.32559000  1
  C  C350  1  0.49597000  0.76877000  0.67672000  1
  C  C351  1  0.48970000  0.22949000  0.32559000  1
  C  C352  1  0.92391000  0.48026000  0.89890000  1
  C  C353  1  0.92388000  0.51885000  0.10141000  1
  C  C354  1  0.42386000  0.98039000  0.89887000  1
  C  C355  1  0.42390000  0.01896000  0.10138000  1
  C  C356  1  0.92087000  0.49139000  0.94916000  1
  C  C357  1  0.92085000  0.50754000  0.05117000  1
  C  C358  1  0.42083000  0.99153000  0.94912000  1
  C  C359  1  0.42085000  0.00768000  0.05114000  1
  C  C360  1  0.01372000  0.50349000  0.02554000  1
  C  C361  1  0.01373000  0.49491000  0.97495000  1
  C  C362  1  0.51371000  0.00371000  0.02549000  1
  C  C363  1  0.51370000  0.99514000  0.97490000  1
  C  C364  1  0.07366000  0.10345000  0.47203000  1
  C  C365  1  0.98316000  0.09471000  0.43534000  1
  C  C366  1  0.95126000  0.03007000  0.43152000  1
  C  C367  1  0.05781000  0.90638000  0.53512000  1
  C  C368  1  0.96094000  0.91339000  0.56767000  1
  C  C369  1  0.95648000  0.97534000  0.59047000  1
  C  C370  1  0.54007000  0.59327000  0.46210000  1
  C  C371  1  0.44043000  0.60472000  0.43236000  1
  C  C372  1  0.38358000  0.54715000  0.42164000  1
  C  C373  1  0.56205000  0.40224000  0.53185000  1
  C  C374  1  0.47038000  0.40893000  0.56799000  1
  C  C375  1  0.44336000  0.47402000  0.57641000  1
  C  C376  1  0.79375000  0.17156000  0.53403000  1
  C  C377  1  0.80695000  0.10686000  0.54992000  1
  C  C378  1  0.71125000  0.08304000  0.57539000  1
  C  C379  1  0.79914000  0.84064000  0.45804000  1
  C  C380  1  0.81509000  0.90311000  0.43754000  1
  C  C381  1  0.73049000  0.91992000  0.40096000  1
  C  C382  1  0.29425000  0.70052000  0.52749000  1
  C  C383  1  0.32657000  0.64234000  0.55343000  1
  C  C384  1  0.24362000  0.59481000  0.54892000  1
  C  C385  1  0.29694000  0.33343000  0.46054000  1
  C  C386  1  0.30018000  0.39939000  0.44759000  1
  C  C387  1  0.19970000  0.42048000  0.42446000  1
  C  C388  1  0.65367000  0.49120000  0.13930000  1
  C  C389  1  0.58044000  0.53107000  0.15842000  1
  C  C390  1  0.50485000  0.51143000  0.19118000  1
  C  C391  1  0.50197000  0.45191000  0.20524000  1
  C  C392  1  0.57483000  0.41203000  0.18665000  1
  C  C393  1  0.65044000  0.43152000  0.15383000  1
  C  C394  1  0.65381000  0.50906000  0.86065000  1
  C  C395  1  0.58053000  0.46945000  0.84134000  1
  C  C396  1  0.50510000  0.48940000  0.80846000  1
  C  C397  1  0.50246000  0.54895000  0.79444000  1
  C  C398  1  0.57540000  0.58855000  0.81320000  1
  C  C399  1  0.65081000  0.56877000  0.84617000  1
  C  C400  1  0.15379000  0.99107000  0.13932000  1
  C  C401  1  0.08051000  0.03087000  0.15851000  1
  C  C402  1  0.00505000  0.01113000  0.19130000  1
  C  C403  1  0.00235000  0.95158000  0.20532000  1
  C  C404  1  0.07526000  0.91178000  0.18666000  1
  C  C405  1  0.15073000  0.93137000  0.15380000  1
  C  C406  1  0.15361000  0.00888000  0.86065000  1
  C  C407  1  0.08042000  0.96916000  0.84143000  1
  C  C408  1  0.00489000  0.98895000  0.80854000  1
  C  C409  1  0.00204000  0.04847000  0.79443000  1
  C  C410  1  0.07487000  0.08819000  0.81312000  1
  C  C411  1  0.15040000  0.06855000  0.84609000  1
  C  C412  1  0.53608000  0.51185000  0.05039000  1
  C  C413  1  0.49259000  0.56880000  0.05310000  1
  C  C414  1  0.39229000  0.57642000  0.07064000  1
  C  C415  1  0.33469000  0.52726000  0.08519000  1
  C  C416  1  0.37723000  0.47039000  0.08222000  1
  C  C417  1  0.47738000  0.46270000  0.06468000  1
  C  C418  1  0.53613000  0.48839000  0.94937000  1
  C  C419  1  0.49274000  0.43152000  0.94658000  1
  C  C420  1  0.39246000  0.42410000  0.92889000  1
  C  C421  1  0.33479000  0.47338000  0.91429000  1
  C  C422  1  0.37724000  0.53017000  0.91734000  1
  C  C423  1  0.47737000  0.53766000  0.93502000  1
  C  C424  1  0.03609000  0.01179000  0.05044000  1
  C  C425  1  0.99261000  0.06874000  0.05317000  1
  C  C426  1  0.89233000  0.07635000  0.07075000  1
  C  C427  1  0.83475000  0.02718000  0.08531000  1
  C  C428  1  0.87730000  0.97032000  0.08231000  1
  C  C429  1  0.97743000  0.96263000  0.06474000  1
  C  C430  1  0.03606000  0.98834000  0.94941000  1
  C  C431  1  0.99264000  0.93148000  0.94668000  1
  C  C432  1  0.89235000  0.92406000  0.92901000  1
  C  C433  1  0.83469000  0.97333000  0.91438000  1
  C  C434  1  0.87716000  0.03011000  0.91740000  1
  C  C435  1  0.97731000  0.03761000  0.93505000  1
  O  O436  1  0.93546000  0.23010000  0.80394000  1
  O  O437  1  0.93546000  0.76990000  0.19606000  1
  O  O438  1  0.43546000  0.73010000  0.80394000  1
  O  O439  1  0.43546000  0.26990000  0.19606000  1
  O  O440  1  0.76068000  0.42524000  0.69915000  1
  O  O441  1  0.76068000  0.57476000  0.30085000  1
  O  O442  1  0.26068000  0.92524000  0.69915000  1
  O  O443  1  0.26068000  0.07476000  0.30085000  1
  O  O444  1  0.93042000  0.43371000  0.69460000  1
  O  O445  1  0.93042000  0.56629000  0.30540000  1
  O  O446  1  0.43042000  0.93371000  0.69460000  1
  O  O447  1  0.43042000  0.06629000  0.30540000  1
  O  O448  1  0.00667000  0.31924000  0.69738000  1
  O  O449  1  0.00667000  0.68076000  0.30262000  1
  O  O450  1  0.50667000  0.81924000  0.69738000  1
  O  O451  1  0.50667000  0.18076000  0.30262000  1
  O  O452  1  0.83124000  0.33123000  0.74958000  1
  O  O453  1  0.83124000  0.66877000  0.25042000  1
  O  O454  1  0.33124000  0.83123000  0.74958000  1
  O  O455  1  0.33124000  0.16877000  0.25042000  1
  O  O456  1  0.72592000  0.24920000  0.80075000  1
  O  O457  1  0.72592000  0.75080000  0.19925000  1
  O  O458  1  0.22592000  0.74920000  0.80075000  1
  O  O459  1  0.22592000  0.25080000  0.19925000  1
  O  O460  1  0.62833000  0.33001000  0.80585000  1
  O  O461  1  0.62833000  0.66999000  0.19415000  1
  O  O462  1  0.12833000  0.83001000  0.80585000  1
  O  O463  1  0.12833000  0.16999000  0.19415000  1
  O  O464  1  0.76152000  0.42540000  0.80220000  1
  O  O465  1  0.76152000  0.57460000  0.19780000  1
  O  O466  1  0.26152000  0.92540000  0.80220000  1
  O  O467  1  0.26152000  0.07460000  0.19780000  1
  O  O468  1  0.93132000  0.43387000  0.80576000  1
  O  O469  1  0.93132000  0.56613000  0.19424000  1
  O  O470  1  0.43132000  0.93387000  0.80576000  1
  O  O471  1  0.43132000  0.06613000  0.19424000  1
  O  O472  1  0.00751000  0.31939000  0.80043000  1
  O  O473  1  0.00751000  0.68061000  0.19957000  1
  O  O474  1  0.50751000  0.81939000  0.80043000  1
  O  O475  1  0.50751000  0.18061000  0.19957000  1
  O  O476  1  0.93456000  0.22994000  0.69277000  1
  O  O477  1  0.93456000  0.77006000  0.30723000  1
  O  O478  1  0.43456000  0.72994000  0.69277000  1
  O  O479  1  0.43456000  0.27006000  0.30723000  1
  O  O480  1  0.72508000  0.24904000  0.69770000  1
  O  O481  1  0.72508000  0.75096000  0.30230000  1
  O  O482  1  0.22508000  0.74904000  0.69770000  1
  O  O483  1  0.22508000  0.25096000  0.30230000  1
  O  O484  1  0.62742000  0.32984000  0.69468000  1
  O  O485  1  0.62742000  0.67016000  0.30532000  1
  O  O486  1  0.12742000  0.82984000  0.69468000  1
  O  O487  1  0.12742000  0.17016000  0.30532000  1
  O  O488  1  0.08595000  0.16214000  0.49043000  1
  O  O489  1  0.07220000  0.84899000  0.51420000  1
  O  O490  1  0.58174000  0.64437000  0.48580000  1
  O  O491  1  0.57802000  0.34432000  0.51216000  1
  O  O492  1  0.88514000  0.19204000  0.51172000  1
  O  O493  1  0.88823000  0.82064000  0.48314000  1
  O  O494  1  0.37682000  0.73360000  0.50768000  1
  O  O495  1  0.39038000  0.31698000  0.48355000  1
