# generated using pymatgen
data_H6C8N3O
_symmetry_space_group_name_H-M   'P 1'
_cell_length_a   10.02206667
_cell_length_b   29.15175001
_cell_length_c   29.15210000
_cell_angle_alpha   120.00119148
_cell_angle_beta   90.00000000
_cell_angle_gamma   90.00000000
_symmetry_Int_Tables_number   1
_chemical_formula_structural   H6C8N3O
_chemical_formula_sum   'H36 C48 N18 O6'
_cell_volume   7375.93669605
_cell_formula_units_Z   6
loop_
 _symmetry_equiv_pos_site_id
 _symmetry_equiv_pos_as_xyz
  1  'x, y, z'
loop_
 _atom_site_type_symbol
 _atom_site_label
 _atom_site_symmetry_multiplicity
 _atom_site_fract_x
 _atom_site_fract_y
 _atom_site_fract_z
 _atom_site_occupancy
  C  1  1  0.10247800  0.72118000  0.34947800  1
  C  3  1  0.10105400  0.63098900  0.28103300  1
  C  5  1  0.10177800  0.65273200  0.37122100  1
  C  7  1  0.09371000  0.59207600  0.22674300  1
  C  8  1  0.09510300  0.63735300  0.41014600  1
  C  9  1  0.09641100  0.77548600  0.36483600  1
  C  13  1  0.90799100  0.28078300  0.64201100  1
  C  15  1  0.90716600  0.36406100  0.72142800  1
  C  17  1  0.90736300  0.36019500  0.63815100  1
  C  19  1  0.90778200  0.39456600  0.77729200  1
  C  20  1  0.90802600  0.38559800  0.60769200  1
  C  21  1  0.90928700  0.22492300  0.61665900  1
  C  25  1  0.95033700  0.40338300  0.86253300  1
  C  26  1  0.06909500  0.40106400  0.88717600  1
  C  28  1  0.99215400  0.46866700  0.97189400  1
  C  29  1  0.86712000  0.47116100  0.95021400  1
  C  30  1  0.84874100  0.43795100  0.89505300  1
  C  32  1  0.02792200  0.50260200  0.02527300  1
  C  33  1  0.12535200  0.54323900  0.04150700  1
  C  34  1  0.14600500  0.57650700  0.09654400  1
  C  35  1  0.07527200  0.56926500  0.13439400  1
  C  36  1  0.97938300  0.52830700  0.11516900  1
  C  41  1  0.19985600  0.55287000  0.00299200  1
  C  45  1  0.76016600  0.50870500  0.98287800  1
  C  53  1  0.95049100  0.46192500  0.59887100  1
  C  54  1  0.06985700  0.48838700  0.60080700  1
  C  56  1  0.99256900  0.50587400  0.53349900  1
  C  57  1  0.86706000  0.48215700  0.53135800  1
  C  58  1  0.84853700  0.46027900  0.56462300  1
  C  60  1  0.02830000  0.52526300  0.49951800  1
  C  61  1  0.12453200  0.50047000  0.45846200  1
  C  62  1  0.14524300  0.52229100  0.42524100  1
  C  63  1  0.07575500  0.56779600  0.43293100  1
  C  64  1  0.98109800  0.58993800  0.47432700  1
  C  69  1  0.19763200  0.45189000  0.44836200  1
  C  73  1  0.75966800  0.47772000  0.49415100  1
  C  81  1  0.95310500  0.13973800  0.54039600  1
  C  82  1  0.07221800  0.11523500  0.51366300  1
  C  84  1  0.99561700  0.03041500  0.49637300  1
  C  85  1  0.87029300  0.05195500  0.52033400  1
  C  86  1  0.85156900  0.10709600  0.54225400  1
  C  88  1  0.03152800  0.97703400  0.47686200  1
  C  89  1  0.12878900  0.96074800  0.50127900  1
  C  90  1  0.14932800  0.90569800  0.47948100  1
  C  91  1  0.07865100  0.86788200  0.43435000  1
  C  92  1  0.98298500  0.88716000  0.41258800  1
  C  97  1  0.20317000  0.99922400  0.54947900  1
  C  101  1  0.76333400  0.01917900  0.52502800  1
  H  31  1  0.76078600  0.43927400  0.87792200  1
  H  38  1  0.21395200  0.60668900  0.10957100  1
  H  39  1  0.91998300  0.52275500  0.14043000  1
  H  40  1  0.14603500  0.37701800  0.86539900  1
  H  42  1  0.12980100  0.55989300  0.97848600  1
  H  43  1  0.26105300  0.51843300  0.97751900  1
  H  44  1  0.26587200  0.58717600  0.02242500  1
  H  46  1  0.79830700  0.54919400  0.00240600  1
  H  47  1  0.72652500  0.49946600  0.01293200  1
  H  48  1  0.67344700  0.50688100  0.95934400  1
  H  50  1  0.10715600  0.64121500  0.19710300  1
  H  52  1  0.96808400  0.33709000  0.79204500  1
  H  59  1  0.76021500  0.44215100  0.56356000  1
  H  66  1  0.21227900  0.50485000  0.39475300  1
  H  67  1  0.92248800  0.62105700  0.48020300  1
  H  68  1  0.14702900  0.49036400  0.62463200  1
  H  70  1  0.12665300  0.42068800  0.44150600  1
  H  71  1  0.25945600  0.46041900  0.48252600  1
  H  72  1  0.26284300  0.43679100  0.41380700  1
  H  74  1  0.79699500  0.45661000  0.45354600  1
  H  75  1  0.72695000  0.51715300  0.50350100  1
  H  76  1  0.67251000  0.45636200  0.49624300  1
  H  78  1  0.10633900  0.55853600  0.36090600  1
  H  80  1  0.96877700  0.45777100  0.66514800  1
  H  87  1  0.76335400  0.12412000  0.56052200  1
  H  94  1  0.21708900  0.89263300  0.49666600  1
  H  95  1  0.92358100  0.86193800  0.38175700  1
  H  96  1  0.14910400  0.13710300  0.51152000  1
  H  98  1  0.13303400  0.02370600  0.58098400  1
  H  99  1  0.26445900  0.02472400  0.54058600  1
  H  100  1  0.26908000  0.97975900  0.56435200  1
  H  102  1  0.80132600  0.99964700  0.54600500  1
  H  103  1  0.73003200  0.98912900  0.48567800  1
  H  104  1  0.67641500  0.04263100  0.54663800  1
  H  106  1  0.10981900  0.80514900  0.44361900  1
  H  108  1  0.97069700  0.21026500  0.54460700  1
  N  2  1  0.10099900  0.68356600  0.29736300  1
  N  4  1  0.10030700  0.61649100  0.31864500  1
  N  6  1  0.10168400  0.70485300  0.38572900  1
  N  14  1  0.90750600  0.31028700  0.69573300  1
  N  16  1  0.90691300  0.38827600  0.69192400  1
  N  18  1  0.90770000  0.30647100  0.61392300  1
  N  27  1  0.08645600  0.43395200  0.93980100  1
  N  37  1  0.95912700  0.49728800  0.06245600  1
  N  49  1  0.09202900  0.60438900  0.18737000  1
  N  51  1  0.93679700  0.37363400  0.80878000  1
  N  55  1  0.08729000  0.50808900  0.56789100  1
  N  65  1  0.96071000  0.56818500  0.50528700  1
  N  77  1  0.09236000  0.58566200  0.39780400  1
  N  79  1  0.93635700  0.43809500  0.62876500  1
  N  83  1  0.08988400  0.06262300  0.49393500  1
  N  93  1  0.96281900  0.93988000  0.43431400  1
  N  105  1  0.09505300  0.81488800  0.41651300  1
  N  107  1  0.93897800  0.19346600  0.56429100  1
  O  10  1  0.09534200  0.67650300  0.46151200  1
  O  11  1  0.09561100  0.78765600  0.32565200  1
  O  12  1  0.09252400  0.54071600  0.21454900  1
  O  22  1  0.88977100  0.35452400  0.55475200  1
  O  23  1  0.89156200  0.20311100  0.64780700  1
  O  24  1  0.88994100  0.44751800  0.79909500  1
