# generated using pymatgen
data_H124C157N4
_symmetry_space_group_name_H-M   'P 1'
_cell_length_a   42.07046422
_cell_length_b   42.07018484
_cell_length_c   42.07074361
_cell_angle_alpha   116.25452127
_cell_angle_beta   106.19009303
_cell_angle_gamma   106.18952156
_symmetry_Int_Tables_number   1
_chemical_formula_structural   H124C157N4
_chemical_formula_sum   'H124 C157 N4'
_cell_volume   56711.03736103
_cell_formula_units_Z   1
loop_
 _symmetry_equiv_pos_site_id
 _symmetry_equiv_pos_as_xyz
  1  'x, y, z'
loop_
 _atom_site_type_symbol
 _atom_site_label
 _atom_site_symmetry_multiplicity
 _atom_site_fract_x
 _atom_site_fract_y
 _atom_site_fract_z
 _atom_site_occupancy
  C  1  1  0.35229750  0.69463150  0.02994300  1
  C  2  1  0.35802000  0.70612450  0.00426450  1
  C  3  1  0.33703800  0.67918800  0.96234900  1
  C  4  1  0.30918250  0.63998300  0.94479450  1
  C  5  1  0.30341150  0.62833250  0.97031700  1
  C  6  1  0.32453000  0.65527700  0.01221500  1
  C  7  1  0.28859650  0.61246900  0.90352450  1
  C  8  1  0.27142950  0.62057650  0.87814000  1
  C  9  1  0.25115100  0.59263950  0.83707850  1
  C  10  1  0.21787200  0.55766600  0.82014700  1
  C  11  1  0.19684400  0.52960300  0.77819200  1
  C  12  1  0.21005200  0.53665250  0.75329250  1
  C  13  1  0.24285550  0.57172900  0.76949150  1
  C  14  1  0.26321500  0.59960250  0.81154550  1
  C  15  1  0.25378150  0.57795600  0.74362650  1
  C  16  1  0.25954300  0.61103650  0.74359650  1
  C  17  1  0.26526050  0.61507700  0.71437650  1
  C  18  1  0.29519250  0.64987500  0.72526450  1
  C  19  1  0.23918600  0.58653450  0.67338050  1
  C  20  1  0.24290400  0.59281800  0.64418400  1
  C  21  1  0.27230300  0.62801650  0.65488950  1
  C  22  1  0.29885850  0.65605700  0.69591050  1
  C  23  1  0.16409050  0.49545050  0.76186000  1
  C  24  1  0.13141150  0.48500650  0.73320100  1
  C  25  1  0.09938550  0.44941700  0.71404750  1
  C  26  1  0.07806600  0.44312050  0.73333550  1
  C  27  1  0.08576700  0.42012400  0.67308600  1
  C  28  1  0.05143400  0.38526850  0.65178250  1
  C  29  1  0.02975550  0.37887550  0.67075800  1
  C  30  1  0.04354350  0.40824300  0.71182650  1
  C  52  1  0.99131500  0.34443550  0.64634650  1
  C  55  1  0.27194250  0.63398900  0.62236150  1
  C  58  1  0.37531500  0.72443900  0.07411700  1
  C  61  1  0.59797050  0.67730400  0.29292150  1
  C  62  1  0.59226850  0.64591950  0.29871700  1
  C  63  1  0.61326100  0.62499500  0.29277200  1
  C  64  1  0.64112300  0.63530700  0.28143300  1
  C  65  1  0.64688900  0.66660150  0.27555450  1
  C  66  1  0.62574900  0.68735950  0.28135250  1
  C  67  1  0.66171700  0.61463200  0.27451400  1
  C  68  1  0.67887200  0.60640100  0.29978000  1
  C  69  1  0.69914150  0.58560800  0.29211850  1
  C  70  1  0.73241200  0.60193650  0.29039850  1
  C  71  1  0.75343650  0.58100550  0.28337300  1
  C  72  1  0.74021650  0.54289300  0.27720550  1
  C  73  1  0.70741750  0.52630350  0.27949300  1
  C  74  1  0.68706450  0.54800750  0.28700900  1
  C  75  1  0.69647600  0.48950850  0.27478750  1
  C  76  1  0.69070200  0.48372950  0.30210750  1
  C  77  1  0.68502550  0.44881400  0.30047050  1
  C  78  1  0.65507150  0.42973250  0.30528600  1
  C  79  1  0.71114850  0.43395400  0.29808350  1
  C  80  1  0.70744100  0.40103950  0.30064850  1
  C  81  1  0.67801450  0.38230200  0.30638950  1
  C  82  1  0.65143100  0.39673050  0.30783150  1
  C  83  1  0.78618450  0.59741300  0.28195950  1
  C  84  1  0.81886150  0.60141900  0.30417550  1
  C  85  1  0.85087750  0.61428050  0.30059500  1
  C  86  1  0.87227250  0.65491300  0.31574650  1
  C  87  1  0.86441000  0.58689150  0.28476750  1
  C  88  1  0.89872650  0.59989900  0.28420350  1
  C  89  1  0.92048300  0.64057850  0.29963450  1
  C  90  1  0.90679150  0.66790900  0.31538150  1
  C  112  1  0.95892000  0.65458850  0.30361950  1
  C  115  1  0.67837300  0.35012650  0.31271150  1
  C  118  1  0.57492650  0.69843400  0.29967550  1
  C  121  1  0.33496950  0.68469950  0.28301500  1
  C  122  1  0.29779800  0.67892650  0.27152550  1
  C  123  1  0.28281750  0.68487500  0.29846150  1
  C  124  1  0.30447000  0.69622100  0.33766400  1
  C  125  1  0.34164350  0.70210250  0.34931300  1
  C  126  1  0.35659800  0.69628400  0.32236900  1
  C  127  1  0.29071450  0.70314600  0.36517750  1
  C  128  1  0.25722400  0.67787050  0.35707250  1
  C  129  1  0.24409750  0.68553400  0.38500650  1
  C  130  1  0.26214150  0.68724050  0.41998800  1
  C  131  1  0.24824650  0.69428000  0.44804950  1
  C  132  1  0.21629650  0.70043750  0.44099300  1
  C  133  1  0.19741950  0.69815350  0.40591200  1
  C  134  1  0.21160000  0.69063350  0.37803850  1
  C  135  1  0.16532650  0.70285350  0.39967900  1
  C  136  1  0.13221500  0.67552450  0.36660450  1
  C  137  1  0.09895300  0.67720400  0.36255800  1
  C  138  1  0.07503900  0.67231550  0.32774750  1
  C  139  1  0.08650700  0.67970400  0.39111200  1
  C  140  1  0.05102550  0.67714400  0.38482450  1
  C  141  1  0.02652750  0.67131750  0.34961200  1
  C  142  1  0.03950200  0.66980150  0.32156050  1
  C  143  1  0.26606950  0.69569200  0.48221050  1
  C  144  1  0.24785800  0.67346850  0.49266450  1
  C  145  1  0.26430100  0.67703750  0.52825450  1
  C  146  1  0.28985950  0.66198000  0.53453450  1
  C  147  1  0.25266400  0.69275300  0.55756800  1
  C  148  1  0.26622450  0.69328550  0.59243000  1
  C  149  1  0.29156700  0.67796850  0.59880650  1
  C  150  1  0.30323150  0.66234250  0.56941600  1
  C  172  1  0.30159650  0.67397300  0.63324950  1
  C  175  1  0.98802717  0.66499550  0.34363667  1
  C  178  1  0.34933700  0.67791750  0.25320850  1
  C  181  1  0.61527450  0.94768750  0.30032500  1
  C  182  1  0.65245400  0.97336950  0.33171150  1
  C  183  1  0.66743450  0.01528550  0.35263700  1
  C  184  1  0.64578450  0.03283600  0.34232350  1
  C  185  1  0.60861350  0.00731250  0.31103100  1
  C  186  1  0.59365400  0.96541500  0.29027300  1
  C  187  1  0.65954300  0.07410600  0.36300100  1
  C  188  1  0.69303900  0.09949150  0.37123250  1
  C  189  1  0.70617150  0.14055400  0.39202350  1
  C  190  1  0.68812200  0.15749400  0.37569200  1
  C  191  1  0.70202550  0.19945100  0.39662450  1
  C  192  1  0.73396850  0.22434250  0.43473700  1
  C  193  1  0.75284600  0.20813500  0.45132900  1
  C  194  1  0.73865850  0.16607850  0.42962400  1
  C  195  1  0.78493150  0.23398900  0.48812450  1
  C  196  1  0.81803200  0.23399150  0.49390950  1
  C  197  1  0.85130750  0.26323600  0.52882150  1
  C  198  1  0.87520850  0.25237650  0.54792100  1
  C  199  1  0.86378100  0.30421650  0.54366350  1
  C  200  1  0.89925900  0.33342850  0.57657250  1
  C  201  1  0.92373950  0.32275300  0.59533050  1
  C  202  1  0.91075350  0.28174350  0.58091900  1
  C  203  1  0.68420200  0.21578700  0.38021100  1
  C  204  1  0.70241400  0.24446450  0.37621250  1
  C  205  1  0.68597000  0.26361500  0.36334700  1
  C  206  1  0.66046000  0.24436000  0.32272000  1
  C  207  1  0.69754600  0.30454450  0.39072450  1
  C  208  1  0.68397850  0.32584950  0.37771000  1
  C  209  1  0.65872200  0.30691800  0.33703200  1
  C  210  1  0.64711850  0.26588850  0.30971300  1
  C  232  1  0.64870300  0.33134250  0.32301450  1
  C  235  1  0.96223600  0.35529350  0.62749650  1
  C  238  1  0.60089850  0.90351300  0.27919250  1
  C  481  1  0.45033450  0.72749700  0.18288050  1
  C  482  1  0.45991200  0.69845400  0.16170500  1
  C  483  1  0.49030350  0.70142700  0.18911250  1
  C  484  1  0.49988500  0.73217550  0.22773650  1
  C  485  1  0.52984250  0.74160450  0.26145700  1
  C  486  1  0.55046700  0.71991900  0.25626000  1
  C  487  1  0.54070750  0.68920100  0.21696550  1
  C  488  1  0.51057850  0.67966050  0.18327700  1
  C  489  1  0.43963900  0.67235950  0.11965950  1
  C  490  1  0.40951700  0.67593450  0.09908250  1
  C  491  1  0.39975850  0.70546500  0.12005050  1
  C  492  1  0.42038500  0.73127500  0.16236300  1
  C  493  1  0.45502350  0.74987000  0.25012450  1
  C  494  1  0.46289550  0.78849150  0.27917000  1
  C  495  1  0.48733200  0.81590650  0.27619450  1
  C  496  1  0.49520400  0.79473900  0.24544400  1
  C  497  1  0.50327550  0.85795200  0.29796950  1
  C  498  1  0.52742750  0.87853700  0.28843150  1
  C  499  1  0.53599300  0.85757500  0.25770500  1
  C  500  1  0.51949700  0.81526150  0.23601450  1
  C  501  1  0.43073300  0.71614450  0.24635450  1
  C  502  1  0.41423950  0.72133300  0.27217250  1
  C  503  1  0.42281450  0.76062550  0.30171200  1
  C  504  1  0.44696100  0.79431950  0.30527750  1
  C  517  1  0.47511150  0.75106950  0.22654600  1
  H  31  1  0.37790650  0.73430000  0.01599150  1
  H  32  1  0.34248600  0.68842300  0.94478800  1
  H  33  1  0.31920900  0.64567650  0.02952250  1
  H  34  1  0.28359000  0.60011250  0.95862750  1
  H  35  1  0.28723250  0.62500750  0.82366600  1
  H  36  1  0.20863700  0.55286150  0.83853050  1
  H  37  1  0.19515800  0.51621700  0.72280600  1
  H  38  1  0.08680200  0.46447650  0.76268550  1
  H  39  1  0.31421900  0.67140250  0.75477350  1
  H  40  1  0.32063350  0.68186650  0.70516700  1
  H  41  1  0.22288250  0.57204250  0.61491800  1
  H  42  1  0.21652300  0.56154050  0.66449350  1
  H  43  1  0.02789750  0.40505650  0.72599100  1
  H  44  1  0.04167350  0.36519400  0.62181350  1
  H  45  1  0.10022700  0.42433550  0.65812450  1
  H  46  1  0.25797900  0.63335600  0.76439400  1
  H  47  1  0.25410050  0.55515900  0.72194850  1
  H  48  1  0.28582800  0.58490000  0.89251500  1
  H  49  1  0.27382600  0.64792850  0.88866050  1
  H  50  1  0.13028900  0.50221600  0.72302800  1
  H  51  1  0.16537250  0.47797750  0.77165700  1
  H  53  1  0.98334450  0.33537450  0.66479400  1
  H  54  1  0.99125800  0.31890450  0.62270050  1
  H  56  1  0.24423800  0.63078850  0.60751250  1
  H  57  1  0.27434350  0.60939450  0.60044900  1
  H  59  1  0.36842900  0.74924850  0.08214550  1
  H  60  1  0.40483800  0.73684100  0.08111900  1
  H  91  1  0.57236600  0.63774000  0.30697700  1
  H  92  1  0.60781650  0.60198850  0.29656200  1
  H  93  1  0.63105850  0.70997850  0.27705900  1
  H  94  1  0.66670900  0.67473300  0.26715200  1
  H  95  1  0.66305250  0.53612150  0.28841000  1
  H  96  1  0.74166250  0.62956450  0.29485300  1
  H  97  1  0.75510950  0.52729800  0.27167150  1
  H  98  1  0.86358650  0.67554850  0.32846100  1
  H  99  1  0.63601800  0.44018250  0.30774550  1
  H  100  1  0.62963100  0.38417700  0.31181500  1
  H  101  1  0.72746850  0.39180650  0.29989700  1
  H  102  1  0.73379900  0.44772900  0.29573700  1
  H  103  1  0.92248300  0.69773000  0.32791400  1
  H  104  1  0.90844350  0.57966100  0.27382550  1
  H  105  1  0.84990650  0.55745600  0.27445250  1
  H  106  1  0.69231050  0.50610650  0.32601200  1
  H  107  1  0.69616100  0.46749750  0.25168850  1
  H  108  1  0.66447750  0.60638100  0.24970850  1
  H  109  1  0.67647300  0.61452350  0.32473550  1
  H  110  1  0.82000000  0.59236950  0.32250950  1
  H  111  1  0.78489800  0.60592800  0.26320200  1
  H  113  1  0.96683250  0.68091450  0.30237300  1
  H  114  1  0.95900850  0.63093850  0.27822500  1
  H  116  1  0.70607000  0.36298350  0.33722950  1
  H  117  1  0.67599000  0.32582700  0.28572300  1
  H  119  1  0.58178500  0.71334550  0.33136150  1
  H  120  1  0.54540950  0.67588900  0.28253350  1
  H  151  1  0.28134950  0.67064250  0.24335300  1
  H  152  1  0.25602200  0.68108700  0.28922800  1
  H  153  1  0.38350500  0.70056350  0.33196750  1
  H  154  1  0.35817550  0.71050050  0.37753300  1
  H  155  1  0.19831350  0.68923850  0.35262900  1
  H  156  1  0.28532900  0.68281200  0.42479600  1
  H  157  1  0.20624700  0.70598700  0.46143100  1
  H  158  1  0.29782650  0.64932750  0.51316300  1
  H  159  1  0.08301550  0.66979250  0.30621300  1
  H  160  1  0.02294850  0.66575200  0.29574350  1
  H  161  1  0.04254100  0.67792200  0.40561000  1
  H  162  1  0.10261650  0.68205500  0.41611750  1
  H  163  1  0.32056350  0.64985850  0.57259100  1
  H  164  1  0.25635000  0.70362800  0.61251800  1
  H  165  1  0.23350950  0.70302550  0.55337000  1
  H  166  1  0.13069200  0.65163500  0.34429400  1
  H  167  1  0.16644700  0.72597900  0.42246900  1
  H  168  1  0.30727550  0.72794600  0.39274750  1
  H  169  1  0.24038800  0.65292100  0.32971600  1
  H  170  1  0.22047550  0.65514250  0.47546400  1
  H  171  1  0.29334600  0.71443450  0.49966950  1
  H  173  1  0.32913950  0.67514300  0.64235750  1
  H  174  1  0.30341200  0.69940500  0.65875900  1
  H  176  1  0.97638950  0.64053200  0.34689650  1
  H  177  1  0.99071250  0.69201800  0.36819950  1
  H  179  1  0.33255800  0.64622500  0.22839600  1
  H  180  1  0.34393600  0.69504350  0.24081450  1
  H  211  1  0.66889300  0.96164450  0.33989150  1
  H  212  1  0.69423050  0.03284750  0.37564500  1
  H  213  1  0.56674100  0.94810500  0.26765100  1
  H  214  1  0.59208100  0.01900050  0.30289950  1
  H  215  1  0.75194600  0.15395100  0.44151100  1
  H  216  1  0.66495100  0.13911850  0.34806550  1
  H  217  1  0.74402800  0.25483200  0.45033200  1
  H  218  1  0.65255500  0.21504550  0.30208450  1
  H  219  1  0.86721900  0.22287650  0.53748350  1
  H  220  1  0.92729250  0.27250700  0.59348550  1
  H  221  1  0.90774100  0.36268750  0.58579150  1
  H  222  1  0.84765750  0.31308350  0.52987500  1
  H  223  1  0.62982800  0.25175150  0.27989150  1
  H  224  1  0.69384650  0.35580800  0.39793850  1
  H  225  1  0.71667850  0.31948350  0.42015700  1
  H  226  1  0.81956100  0.21322050  0.47153550  1
  H  227  1  0.78384500  0.25569100  0.51013200  1
  H  228  1  0.64298900  0.08511850  0.37125450  1
  H  229  1  0.70987300  0.08896950  0.36310850  1
  H  230  1  0.72979700  0.25465750  0.38526850  1
  H  231  1  0.65692900  0.20598100  0.37169200  1
  H  233  1  0.62116400  0.31291150  0.29663550  1
  H  234  1  0.64688100  0.35503200  0.34662800  1
  H  236  1  0.97390300  0.37009200  0.61461200  1
  H  237  1  0.95954400  0.37723950  0.65177150  1
  H  239  1  0.61767350  0.89546050  0.26428100  1
  H  240  1  0.60629700  0.89653650  0.30173350  1
  H  505  1  0.41132100  0.76486100  0.32075900  1
  H  506  1  0.45281600  0.82249250  0.32663750  1
  H  507  1  0.49743000  0.87345450  0.32029650  1
  H  508  1  0.53892350  0.90907850  0.30416700  1
  H  509  1  0.52514700  0.79945400  0.21361800  1
  H  510  1  0.42507700  0.68809750  0.22488750  1
  H  511  1  0.53642800  0.76399600  0.28950500  1
  H  512  1  0.55551650  0.67346900  0.21272350  1
  H  513  1  0.50375950  0.65734050  0.15510200  1
  H  514  1  0.41380400  0.75273850  0.17817750  1
  H  515  1  0.44645750  0.65100650  0.10415300  1
  H  516  1  0.39471000  0.65689350  0.06854050  1
  H  519  1  0.55733350  0.86144000  0.22079450  1
  H  521  1  0.35900450  0.72296900  0.11620450  1
  H  523  1  0.59125150  0.75683200  0.31450650  1
  H  525  1  0.39289700  0.66307950  0.25468350  1
  N  518  1  0.56046600  0.87933350  0.24895850  1
  N  520  1  0.36925750  0.70818950  0.09830200  1
  N  522  1  0.58097700  0.72866600  0.28947500  1
  N  524  1  0.38977000  0.68811150  0.26945650  1
