# generated using pymatgen
data_H10C13N2
_symmetry_space_group_name_H-M   'P 1'
_cell_length_a   21.70476168
_cell_length_b   21.70476168
_cell_length_c   21.70476168
_cell_angle_alpha   109.47122063
_cell_angle_beta   109.47122063
_cell_angle_gamma   109.47122063
_symmetry_Int_Tables_number   1
_chemical_formula_structural   H10C13N2
_chemical_formula_sum   'H120 C156 N24'
_cell_volume   7871.24035645
_cell_formula_units_Z   12
loop_
 _symmetry_equiv_pos_site_id
 _symmetry_equiv_pos_as_xyz
  1  'x, y, z'
loop_
 _atom_site_type_symbol
 _atom_site_label
 _atom_site_symmetry_multiplicity
 _atom_site_fract_x
 _atom_site_fract_y
 _atom_site_fract_z
 _atom_site_occupancy
  C  1  1  0.17508850  0.69239700  0.42121250  1
  C  2  1  0.18905200  0.67755700  0.48903000  1
  C  3  1  0.23353550  0.68901050  0.39408800  1
  C  4  1  0.31915100  0.73979150  0.46009550  1
  C  7  1  0.32248800  0.71607300  0.52192600  1
  C  8  1  0.27174750  0.73137550  0.55677600  1
  C  13  1  0.29551400  0.81693250  0.58383150  1
  C  14  1  0.28026500  0.83647150  0.51777750  1
  C  17  1  0.33408000  0.82247900  0.48892300  1
  C  20  1  0.19469250  0.77800450  0.45598600  1
  C  23  1  0.84803650  0.26869350  0.51775400  1
  C  24  1  0.83410700  0.32253950  0.48892050  1
  C  25  1  0.78954700  0.18313600  0.45594700  1
  C  26  1  0.70395250  0.16358150  0.42115700  1
  C  29  1  0.70062000  0.22205300  0.39406700  1
  C  30  1  0.75143250  0.30765650  0.46009200  1
  C  35  1  0.72769700  0.31100550  0.52191750  1
  C  36  1  0.74292550  0.26021200  0.55672550  1
  C  39  1  0.68907700  0.17753300  0.48895000  1
  C  42  1  0.82847900  0.28394600  0.58379200  1
  C  45  1  0.74280000  0.56774650  0.24901350  1
  C  46  1  0.68895950  0.49993450  0.16634900  1
  C  47  1  0.82836900  0.59485500  0.27276500  1
  C  48  1  0.84796600  0.52884200  0.25755200  1
  C  51  1  0.78948250  0.46701250  0.17199700  1
  C  52  1  0.70388800  0.43217500  0.15242700  1
  C  57  1  0.70057250  0.40511050  0.21092100  1
  C  58  1  0.75136300  0.47116400  0.29651500  1
  C  61  1  0.83404150  0.50001650  0.31140700  1
  C  64  1  0.72759400  0.53295950  0.29982850  1
  C  67  1  0.31917600  0.47112900  0.72872500  1
  C  68  1  0.33407850  0.49996400  0.81140650  1
  C  69  1  0.32248200  0.53293450  0.70497850  1
  C  70  1  0.27166000  0.56770650  0.72019750  1
  C  73  1  0.29541050  0.59479800  0.80575850  1
  C  74  1  0.28021650  0.52877400  0.82533850  1
  C  79  1  0.19466200  0.46693450  0.76685850  1
  C  80  1  0.17508750  0.43213000  0.68125750  1
  C  83  1  0.18899800  0.49989950  0.66634850  1
  C  86  1  0.23358300  0.40507750  0.67793150  1
  C  89  1  0.48268500  0.73990800  0.29650900  1
  C  90  1  0.51149050  0.82256500  0.31134550  1
  C  91  1  0.54451450  0.71616650  0.29988400  1
  C  92  1  0.57932950  0.73138000  0.24908750  1
  C  95  1  0.60639000  0.81693050  0.27280450  1
  C  96  1  0.54035050  0.83648550  0.25751500  1
  C  101  1  0.47855300  0.77798100  0.17196200  1
  C  102  1  0.44376400  0.69238950  0.15242550  1
  C  105  1  0.51156300  0.67751500  0.16640600  1
  C  108  1  0.41666950  0.68907250  0.21090400  1
  C  111  1  0.57933250  0.26015350  0.72019500  1
  C  112  1  0.51154550  0.17747600  0.66635650  1
  C  113  1  0.60641350  0.28390800  0.80575850  1
  C  114  1  0.54038450  0.26868550  0.82533000  1
  C  117  1  0.47857550  0.18312250  0.76686400  1
  C  118  1  0.44376800  0.16354250  0.68125850  1
  C  123  1  0.41669150  0.22202300  0.67791750  1
  C  124  1  0.48272000  0.30762250  0.72870250  1
  C  127  1  0.51156200  0.32253400  0.81138200  1
  C  130  1  0.54452950  0.31094800  0.70495550  1
  C  265  1  0.38234350  0.08080550  0.62488500  1
  C  266  1  0.34635300  0.04076900  0.54391900  1
  C  267  1  0.30560800  0.95920500  0.50315200  1
  C  268  1  0.30162600  0.91922050  0.54412950  1
  C  271  1  0.27351500  0.92179650  0.42330850  1
  C  272  1  0.27930100  0.96067600  0.38357900  1
  C  273  1  0.31857950  0.03923000  0.42284350  1
  C  274  1  0.35165100  0.07814050  0.50144950  1
  C  279  1  0.64074250  0.26518450  0.69885800  1
  C  280  1  0.67677750  0.22025600  0.69490250  1
  C  281  1  0.71758300  0.22028150  0.65414250  1
  C  282  1  0.72161850  0.26525800  0.61815250  1
  C  285  1  0.74970200  0.17255250  0.64887450  1
  C  286  1  0.74388450  0.12702400  0.68195450  1
  C  287  1  0.70456150  0.12698450  0.72118300  1
  C  288  1  0.67149300  0.17252250  0.72701150  1
  C  293  1  0.56675800  0.91923200  0.27886500  1
  C  294  1  0.52582100  0.95926950  0.28283650  1
  C  295  1  0.56662300  0.04083700  0.32368200  1
  C  296  1  0.64760200  0.08082800  0.35979700  1
  C  299  1  0.52417850  0.07823650  0.32899400  1
  C  300  1  0.44556350  0.03935100  0.29584850  1
  C  301  1  0.40627150  0.96080200  0.25650450  1
  C  302  1  0.44597200  0.92189250  0.25068650  1
  C  307  1  0.45623650  0.73494450  0.35284600  1
  C  308  1  0.49724650  0.77979350  0.43382500  1
  C  309  1  0.45648900  0.77973750  0.47463350  1
  C  310  1  0.37552500  0.73470200  0.43373900  1
  C  313  1  0.49896100  0.82746150  0.55447750  1
  C  314  1  0.57756500  0.87303050  0.59417350  1
  C  315  1  0.61681450  0.87309600  0.55487250  1
  C  316  1  0.57708750  0.82757450  0.47626400  1
  C  321  1  0.74640850  0.36403100  0.43371350  1
  C  322  1  0.79134900  0.44499600  0.47467300  1
  C  323  1  0.79132700  0.48576350  0.43387550  1
  C  324  1  0.74631650  0.44483600  0.35290850  1
  C  327  1  0.83905950  0.56560550  0.47631900  1
  C  328  1  0.88460000  0.60533050  0.55492450  1
  C  329  1  0.88465550  0.56606350  0.59420900  1
  C  330  1  0.83913700  0.48745600  0.55450900  1
  C  335  1  0.93077550  0.29000900  0.54410950  1
  C  336  1  0.97076400  0.29395600  0.50313300  1
  C  337  1  0.05232700  0.33470700  0.54391100  1
  C  338  1  0.09235450  0.37069350  0.62487600  1
  C  341  1  0.08971350  0.33997200  0.50145150  1
  C  342  1  0.05081400  0.30689900  0.42284300  1
  C  343  1  0.97226150  0.26767600  0.38357550  1
  C  344  1  0.93336700  0.26184800  0.42328800  1
  C  349  1  0.27680050  0.71003000  0.61817450  1
  C  350  1  0.23187900  0.70604600  0.65422900  1
  C  351  1  0.23181250  0.66517900  0.69492950  1
  C  352  1  0.27664700  0.62903750  0.69876250  1
  C  355  1  0.18404000  0.65985100  0.72699900  1
  C  356  1  0.13858700  0.69301500  0.72127400  1
  C  357  1  0.13866500  0.73238750  0.68209550  1
  C  358  1  0.18419150  0.73821000  0.64901350  1
  C  363  1  0.09230050  0.63605900  0.35990950  1
  C  364  1  0.05232300  0.55508200  0.32379700  1
  C  365  1  0.97075900  0.51429200  0.28296400  1
  C  366  1  0.93069650  0.55519300  0.27883750  1
  C  369  1  0.93337700  0.43444700  0.25086100  1
  C  370  1  0.97227400  0.39474250  0.25671850  1
  C  371  1  0.05082550  0.43402950  0.29605700  1
  C  372  1  0.08971700  0.51263400  0.32913100  1
  C  377  1  0.30150250  0.55512450  0.90806300  1
  C  378  1  0.30558900  0.51422050  0.94812550  1
  C  379  1  0.34638100  0.55501800  0.02969100  1
  C  380  1  0.38233950  0.63597600  0.06969150  1
  C  383  1  0.35169400  0.51258550  0.06710150  1
  C  384  1  0.31863850  0.43398100  0.02822350  1
  C  385  1  0.27939700  0.39469350  0.94966950  1
  C  386  1  0.27354850  0.43438550  0.91075700  1
  C  391  1  0.37557750  0.44481950  0.72364800  1
  C  392  1  0.45653900  0.48575600  0.76863300  1
  C  393  1  0.49732500  0.44497700  0.76862700  1
  C  394  1  0.45637850  0.36401350  0.72365800  1
  C  397  1  0.57717150  0.48743800  0.81636050  1
  C  398  1  0.61687550  0.56604350  0.86189300  1
  C  399  1  0.57759100  0.60531100  0.86192600  1
  C  400  1  0.49898650  0.56559900  0.81636650  1
  C  405  1  0.64755500  0.37080500  0.06966500  1
  C  406  1  0.56657800  0.33471400  0.02964400  1
  C  407  1  0.52581000  0.29397450  0.94807650  1
  C  408  1  0.56681250  0.29012750  0.90810100  1
  C  411  1  0.44596700  0.26188050  0.91067750  1
  C  412  1  0.40623550  0.26761750  0.94956400  1
  C  413  1  0.44549750  0.30684450  0.02811500  1
  C  414  1  0.52410750  0.33995200  0.06702150  1
  C  419  1  0.72133700  0.62906650  0.25398350  1
  C  420  1  0.71747300  0.66516900  0.20911300  1
  C  421  1  0.67673100  0.70599300  0.20914600  1
  C  422  1  0.64078350  0.71011200  0.25416750  1
  C  425  1  0.67145300  0.73809050  0.16140050  1
  C  426  1  0.70450000  0.73223700  0.11584500  1
  C  427  1  0.74372700  0.69291250  0.11580850  1
  C  428  1  0.74954650  0.65984400  0.16134450  1
  H  5  1  0.22494350  0.70596650  0.35106300  1
  H  6  1  0.22290300  0.63202150  0.36569450  1
  H  9  1  0.30548450  0.65608000  0.49638450  1
  H  10  1  0.37947550  0.74464100  0.56827750  1
  H  11  1  0.17715600  0.61989800  0.47245000  1
  H  12  1  0.14805350  0.68238450  0.50568200  1
  H  15  1  0.35550150  0.85135600  0.62683150  1
  H  16  1  0.26693900  0.83473850  0.61222750  1
  H  18  1  0.39174200  0.86350850  0.53471350  1
  H  19  1  0.32932900  0.83431950  0.44311650  1
  H  21  1  0.16028100  0.78663400  0.48155000  1
  H  22  1  0.17690900  0.78859200  0.40959700  1
  H  27  1  0.79812700  0.14869850  0.48149150  1
  H  28  1  0.80014850  0.16535100  0.40956950  1
  H  31  1  0.71757750  0.21345650  0.35104400  1
  H  32  1  0.64364100  0.21145200  0.36568400  1
  H  33  1  0.84595550  0.31777850  0.44311800  1
  H  34  1  0.87515800  0.38018800  0.53471500  1
  H  37  1  0.66771500  0.29404800  0.49637300  1
  H  38  1  0.75629600  0.36799150  0.56828750  1
  H  40  1  0.63142600  0.16567900  0.47235900  1
  H  41  1  0.69383900  0.13649500  0.50556800  1
  H  43  1  0.86292150  0.34392850  0.62680400  1
  H  44  1  0.84625900  0.25535500  0.61218400  1
  H  49  1  0.86279850  0.63788100  0.33274450  1
  H  50  1  0.84614450  0.62324300  0.24416950  1
  H  53  1  0.79804500  0.49255250  0.13755050  1
  H  54  1  0.80011350  0.42065300  0.15422350  1
  H  55  1  0.69367600  0.51652650  0.12528450  1
  H  56  1  0.63130550  0.48329950  0.15450200  1
  H  59  1  0.71755900  0.36211150  0.20235250  1
  H  60  1  0.64359400  0.37671050  0.20031550  1
  H  62  1  0.84590950  0.45422950  0.30666700  1
  H  63  1  0.87508250  0.54582800  0.36905550  1
  H  65  1  0.66761600  0.50740150  0.28287250  1
  H  66  1  0.75619050  0.57934550  0.35680400  1
  H  71  1  0.30553100  0.50739850  0.64500050  1
  H  72  1  0.37945850  0.57932250  0.73358800  1
  H  75  1  0.35538500  0.63783200  0.84018700  1
  H  76  1  0.26679700  0.62316450  0.82353150  1
  H  77  1  0.39172650  0.54577750  0.85244900  1
  H  78  1  0.32934800  0.45417050  0.82326350  1
  H  81  1  0.16021200  0.49246100  0.77543500  1
  H  82  1  0.17690550  0.42056450  0.77747300  1
  H  84  1  0.14793000  0.51648100  0.67107500  1
  H  85  1  0.17714850  0.48327850  0.60869500  1
  H  87  1  0.22502200  0.36206850  0.69490550  1
  H  88  1  0.22298050  0.37669300  0.62095350  1
  H  93  1  0.51896750  0.65618600  0.28293250  1
  H  94  1  0.59087650  0.74476500  0.35686950  1
  H  97  1  0.64938750  0.85138250  0.33279400  1
  H  98  1  0.63480150  0.83470850  0.24422800  1
  H  99  1  0.55725650  0.86364450  0.36900200  1
  H  100  1  0.46566500  0.83439450  0.30652850  1
  H  103  1  0.50410750  0.78655100  0.13752850  1
  H  104  1  0.43217000  0.78857200  0.15415800  1
  H  106  1  0.52817600  0.68226050  0.12536350  1
  H  107  1  0.49497000  0.61987200  0.15457600  1
  H  109  1  0.37363300  0.70601000  0.20228500  1
  H  110  1  0.38830450  0.63210050  0.20032400  1
  H  115  1  0.64943800  0.34388750  0.84019250  1
  H  116  1  0.63479350  0.25530600  0.82353450  1
  H  119  1  0.50412950  0.14869650  0.77545600  1
  H  120  1  0.43220500  0.16534250  0.77747450  1
  H  121  1  0.52815000  0.13642950  0.67110350  1
  H  122  1  0.49493350  0.16562500  0.60870550  1
  H  125  1  0.37367900  0.21344650  0.69488850  1
  H  126  1  0.38829800  0.21140750  0.62093350  1
  H  128  1  0.46577250  0.31780600  0.82324450  1
  H  129  1  0.55736700  0.38018600  0.85241100  1
  H  131  1  0.51898250  0.29398000  0.64497350  1
  H  132  1  0.59090600  0.36792850  0.73355050  1
  H  275  1  0.24625250  0.86509950  0.39102900  1
  H  276  1  0.25608850  0.93180850  0.32623600  1
  H  277  1  0.32418800  0.06807550  0.39434350  1
  H  278  1  0.38104200  0.13483750  0.52583950  1
  H  289  1  0.77695250  0.16750950  0.61943100  1
  H  290  1  0.76704100  0.09284250  0.67625450  1
  H  291  1  0.69886450  0.09280800  0.74433950  1
  H  292  1  0.64197750  0.16741550  0.75419000  1
  H  303  1  0.54859600  0.13492350  0.35854250  1
  H  304  1  0.41709450  0.06821200  0.30158750  1
  H  305  1  0.34893550  0.93195050  0.23333200  1
  H  306  1  0.41367400  0.86520100  0.22343300  1
  H  317  1  0.47457900  0.83242450  0.58679450  1
  H  318  1  0.60606350  0.90711850  0.65151700  1
  H  319  1  0.67415900  0.90724450  0.58334750  1
  H  320  1  0.60935550  0.83270200  0.45184550  1
  H  331  1  0.84403800  0.59789400  0.45190800  1
  H  332  1  0.91871600  0.66267750  0.58340150  1
  H  333  1  0.91878250  0.59455850  0.65155200  1
  H  334  1  0.84417000  0.46305950  0.58680950  1
  H  345  1  0.14640500  0.36940950  0.52585050  1
  H  346  1  0.07966850  0.31259550  0.39436000  1
  H  347  1  0.94340500  0.24452000  0.32624400  1
  H  348  1  0.87667250  0.23467650  0.39100600  1
  H  359  1  0.17888750  0.63027850  0.75411500  1
  H  360  1  0.10436850  0.68726600  0.74438450  1
  H  361  1  0.10450850  0.75557050  0.67642600  1
  H  362  1  0.17916450  0.76548200  0.61959150  1
  H  373  1  0.87668000  0.40214200  0.22353100  1
  H  374  1  0.94342050  0.33739750  0.23347300  1
  H  375  1  0.07968550  0.40554550  0.30172000  1
  H  376  1  0.14640450  0.53704450  0.35865500  1
  H  387  1  0.38109800  0.53700300  0.12380000  1
  H  388  1  0.32429000  0.40550950  0.05709150  1
  H  389  1  0.25618300  0.33735100  0.92082400  1
  H  390  1  0.24626100  0.40208250  0.85406250  1
  H  401  1  0.60946550  0.46303600  0.82140250  1
  H  402  1  0.67421350  0.59452650  0.89608100  1
  H  403  1  0.60606750  0.66264450  0.89609700  1
  H  404  1  0.47457550  0.59788150  0.82144600  1
  H  415  1  0.41369300  0.23474050  0.85398950  1
  H  416  1  0.34890750  0.24449100  0.92070350  1
  H  417  1  0.41700850  0.31253050  0.05696600  1
  H  418  1  0.54850350  0.36941750  0.12371200  1
  H  429  1  0.64207650  0.76541300  0.15641750  1
  H  430  1  0.69889000  0.75548200  0.08174300  1
  H  431  1  0.76693450  0.68726000  0.08167450  1
  H  432  1  0.77672800  0.63033450  0.15624950  1
  N  269  1  0.33377250  0.96350950  0.61958200  1
  N  270  1  0.37025500  0.03652050  0.65606650  1
  N  283  1  0.68940050  0.30850650  0.63023000  1
  N  284  1  0.65286000  0.30848350  0.66670050  1
  N  297  1  0.67873450  0.03653300  0.34752350  1
  N  298  1  0.64220400  0.96352150  0.31096650  1
  N  311  1  0.34434450  0.69146250  0.35826700  1
  N  312  1  0.38080650  0.69153250  0.32171500  1
  N  325  1  0.70309800  0.36936650  0.32176650  1
  N  326  1  0.70311600  0.33284750  0.35825750  1
  N  339  1  0.04806300  0.35861850  0.65605350  1
  N  340  1  0.97505350  0.32215600  0.61956550  1
  N  353  1  0.32011950  0.64137050  0.66681500  1
  N  354  1  0.32016300  0.67794850  0.63038450  1
  N  367  1  0.97500400  0.63066350  0.31105050  1
  N  368  1  0.04801900  0.66720950  0.34765150  1
  N  381  1  0.37026900  0.66713250  0.02538150  1
  N  382  1  0.33375500  0.63060000  0.95237100  1
  N  395  1  0.38090550  0.33283050  0.68045800  1
  N  396  1  0.34440700  0.36934100  0.68046500  1
  N  409  1  0.64223450  0.32207700  0.95238050  1
  N  410  1  0.67871650  0.35854400  0.02539050  1
  N  423  1  0.65287700  0.67789750  0.29742350  1
  N  424  1  0.68929700  0.64130400  0.29737900  1
