# generated using pymatgen
data_H19C22(N2O)2
_symmetry_space_group_name_H-M   'P 1'
_cell_length_a   9.99466667
_cell_length_b   38.00830000
_cell_length_c   38.00830000
_cell_angle_alpha   120.00000000
_cell_angle_beta   90.00000000
_cell_angle_gamma   90.00000000
_symmetry_Int_Tables_number   1
_chemical_formula_structural   H19C22(N2O)2
_chemical_formula_sum   'H114 C132 N24 O12'
_cell_volume   12504.19785133
_cell_formula_units_Z   6
loop_
 _symmetry_equiv_pos_site_id
 _symmetry_equiv_pos_as_xyz
  1  'x, y, z'
loop_
 _atom_site_type_symbol
 _atom_site_label
 _atom_site_symmetry_multiplicity
 _atom_site_fract_x
 _atom_site_fract_y
 _atom_site_fract_z
 _atom_site_occupancy
  C  1  1  0.94858100  0.01908000  0.50124700  1
  C  2  1  0.88628900  0.05179600  0.53542800  1
  C  3  1  0.90138400  0.09210400  0.54389700  1
  C  4  1  0.97034700  0.09930700  0.51578300  1
  C  5  1  0.02733200  0.06712300  0.48033000  1
  C  6  1  0.02155900  0.02668700  0.47334000  1
  C  9  1  0.94849900  0.98019700  0.49860200  1
  C  10  1  0.02156700  0.97255400  0.52647000  1
  C  11  1  0.02736600  0.93210600  0.51943700  1
  C  12  1  0.97052300  0.89994700  0.48394300  1
  C  13  1  0.90128600  0.90719200  0.45590100  1
  C  14  1  0.88588800  0.94752400  0.46444900  1
  C  31  1  0.94883100  0.48152000  0.98046000  1
  C  32  1  0.88631800  0.48300200  0.94778000  1
  C  33  1  0.90151500  0.45119500  0.90746000  1
  C  34  1  0.97072400  0.41590400  0.90022200  1
  C  35  1  0.02758900  0.41257700  0.93238500  1
  C  36  1  0.02184700  0.44600200  0.97283400  1
  C  39  1  0.94882100  0.51774900  0.01935700  1
  C  40  1  0.02185900  0.55325900  0.02698700  1
  C  41  1  0.02767100  0.58666800  0.06743800  1
  C  42  1  0.97084300  0.58334600  0.09960600  1
  C  43  1  0.90160700  0.54805900  0.09236900  1
  C  44  1  0.88641000  0.51625000  0.05204400  1
  C  61  1  0.94859000  0.49830600  0.51801400  1
  C  62  1  0.88605600  0.46414100  0.51653000  1
  C  63  1  0.90140500  0.45559400  0.54831900  1
  C  64  1  0.97054200  0.48366500  0.58361600  1
  C  65  1  0.02742000  0.51914600  0.58693200  1
  C  66  1  0.02166700  0.52617800  0.55351800  1
  C  69  1  0.94866300  0.50094600  0.48177100  1
  C  70  1  0.02159900  0.47302000  0.44625300  1
  C  71  1  0.02734100  0.48000800  0.41280500  1
  C  72  1  0.97048300  0.51547800  0.41608700  1
  C  73  1  0.90140500  0.54357600  0.45138200  1
  C  74  1  0.88623700  0.53510900  0.48322400  1
  C  91  1  0.01054200  0.68450200  0.13594600  1
  C  92  1  0.88080400  0.69384100  0.15273100  1
  C  93  1  0.85959300  0.71852400  0.19513200  1
  C  94  1  0.97148200  0.73491600  0.22176800  1
  C  95  1  0.10228100  0.72220700  0.20508800  1
  C  96  1  0.12045900  0.69850300  0.16271600  1
  C  98  1  0.96118600  0.76324600  0.26489000  1
  C  99  1  0.86386700  0.79460300  0.28130000  1
  C  100  1  0.86930100  0.82613200  0.32202500  1
  C  101  1  0.97273300  0.82760800  0.34795400  1
  C  102  1  0.07010200  0.79652300  0.33206500  1
  C  103  1  0.06675200  0.76519600  0.29102600  1
  C  108  1  0.18217400  0.73691800  0.27333200  1
  C  109  1  0.22138300  0.73347400  0.23228100  1
  C  117  1  0.99059400  0.86401000  0.38891600  1
  C  120  1  0.03321400  0.66084100  0.09119800  1
  C  123  1  0.01017200  0.45063800  0.31496700  1
  C  124  1  0.88047300  0.45810900  0.30562000  1
  C  125  1  0.85936200  0.47584200  0.28094500  1
  C  126  1  0.97131300  0.48607500  0.26456800  1
  C  127  1  0.10207900  0.48207500  0.27727700  1
  C  128  1  0.12014900  0.46339000  0.30097200  1
  C  130  1  0.96111800  0.50089800  0.23626000  1
  C  131  1  0.86382500  0.48598700  0.20489800  1
  C  132  1  0.86934800  0.49521400  0.17339100  1
  C  133  1  0.97284300  0.51966700  0.17194500  1
  C  134  1  0.07018900  0.53482600  0.20303600  1
  C  135  1  0.06675200  0.52508300  0.23433900  1
  C  140  1  0.18215200  0.53562400  0.26261900  1
  C  141  1  0.22124400  0.49799200  0.26603100  1
  C  149  1  0.99080300  0.52425500  0.13556200  1
  C  152  1  0.03272500  0.42955500  0.33863700  1
  C  155  1  0.01034300  0.86354900  0.54870500  1
  C  156  1  0.88062400  0.84675000  0.54126000  1
  C  157  1  0.85945500  0.80434300  0.52352100  1
  C  158  1  0.97138400  0.77771600  0.51324800  1
  C  159  1  0.10216000  0.79441100  0.51721400  1
  C  160  1  0.12028100  0.83678700  0.53590800  1
  C  162  1  0.96114700  0.73458800  0.49842800  1
  C  163  1  0.86390600  0.71815200  0.51337200  1
  C  164  1  0.86940700  0.67741800  0.50414500  1
  C  165  1  0.97281300  0.65150300  0.47965800  1
  C  166  1  0.07011300  0.66742000  0.46446900  1
  C  167  1  0.06670200  0.70846900  0.47421400  1
  C  172  1  0.18207100  0.72619000  0.46363900  1
  C  173  1  0.22127400  0.76723000  0.50126100  1
  C  181  1  0.99077200  0.61053300  0.47507200  1
  C  184  1  0.03295500  0.90830100  0.56981500  1
  C  187  1  0.01037200  0.31475000  0.86386900  1
  C  188  1  0.88065500  0.30542500  0.84706500  1
  C  189  1  0.85950300  0.28076200  0.80465700  1
  C  190  1  0.97143200  0.26437400  0.77803300  1
  C  191  1  0.10222000  0.27706600  0.79473600  1
  C  192  1  0.12032100  0.30075000  0.83711600  1
  C  194  1  0.96118800  0.23607100  0.73490500  1
  C  195  1  0.86385600  0.20472300  0.71846400  1
  C  196  1  0.86933700  0.17321600  0.67772800  1
  C  197  1  0.97280300  0.17176200  0.65182100  1
  C  198  1  0.07019400  0.20284000  0.66774200  1
  C  199  1  0.06681300  0.23414200  0.70879300  1
  C  204  1  0.18225400  0.26240300  0.72652100  1
  C  205  1  0.22136300  0.26580600  0.76756200  1
  C  213  1  0.99073200  0.13537400  0.61085200  1
  C  216  1  0.03296300  0.33840000  0.90862100  1
  C  219  1  0.01029300  0.54846100  0.68475800  1
  C  220  1  0.88056400  0.54100100  0.69409200  1
  C  221  1  0.85937300  0.52326400  0.71875900  1
  C  222  1  0.97128100  0.51301600  0.73514300  1
  C  223  1  0.10207100  0.51700100  0.72243800  1
  C  224  1  0.12022100  0.53568900  0.69875100  1
  C  226  1  0.96100800  0.49820600  0.76345900  1
  C  227  1  0.86369700  0.51313500  0.79481400  1
  C  228  1  0.86918000  0.50393200  0.82633900  1
  C  229  1  0.97265400  0.47948800  0.82780900  1
  C  230  1  0.07000400  0.46430100  0.79671800  1
  C  231  1  0.06660300  0.47402100  0.76539800  1
  C  236  1  0.18202200  0.46345500  0.73712000  1
  C  237  1  0.22119400  0.50107300  0.73369400  1
  C  245  1  0.99062300  0.47494300  0.86421700  1
  C  248  1  0.03294300  0.56955700  0.66110500  1
  C  251  1  0.01031100  0.13559600  0.45094900  1
  C  252  1  0.88060500  0.15241100  0.45839100  1
  C  253  1  0.85950200  0.19481700  0.47610000  1
  C  254  1  0.97145400  0.22142800  0.48633700  1
  C  255  1  0.10221200  0.20472100  0.48236600  1
  C  256  1  0.12028100  0.16234200  0.46370400  1
  C  258  1  0.96126700  0.26455400  0.50114100  1
  C  259  1  0.86400600  0.28099300  0.48620700  1
  C  260  1  0.86951000  0.32172800  0.49543500  1
  C  261  1  0.97294200  0.34764000  0.51991300  1
  C  262  1  0.07027400  0.33171600  0.53508400  1
  C  263  1  0.06686300  0.29066700  0.52533900  1
  C  268  1  0.18223500  0.27294000  0.53590300  1
  C  269  1  0.22137300  0.23189000  0.49828700  1
  C  277  1  0.99083400  0.38862300  0.52452600  1
  C  280  1  0.03286300  0.09084500  0.42988200  1
  H  7  1  0.84086300  0.04688500  0.55677100  1
  H  8  1  0.98698900  0.12860900  0.52265900  1
  H  15  1  0.98695200  0.87063000  0.47705200  1
  H  16  1  0.84083200  0.95244600  0.44306800  1
  H  19  1  0.09889900  0.96950300  0.43738200  1
  H  20  1  0.14294300  0.00195500  0.42296100  1
  H  21  1  0.14284100  0.99725300  0.57688300  1
  H  22  1  0.09874000  0.02975100  0.56252900  1
  H  24  1  0.83845200  0.85006100  0.41752100  1
  H  26  1  0.18632600  0.90617600  0.53061400  1
  H  28  1  0.18626600  0.09300700  0.46909000  1
  H  30  1  0.83861400  0.14927600  0.58220600  1
  H  37  1  0.84098300  0.50928200  0.95273900  1
  H  38  1  0.98707100  0.39344700  0.87091100  1
  H  45  1  0.98723200  0.60578600  0.12892100  1
  H  46  1  0.84109400  0.48996500  0.04708000  1
  H  49  1  0.09931800  0.46720800  0.03000100  1
  H  50  1  0.14335300  0.42034100  0.99752200  1
  H  51  1  0.14300400  0.57898100  0.00226800  1
  H  52  1  0.09889800  0.53213000  0.96977200  1
  H  54  1  0.83875200  0.56682900  0.14950300  1
  H  56  1  0.18659700  0.62379400  0.09337200  1
  H  58  1  0.18646500  0.37543100  0.90647700  1
  H  60  1  0.83863300  0.43235600  0.85030600  1
  H  67  1  0.84102500  0.44275600  0.49022400  1
  H  68  1  0.98711000  0.47676100  0.60602800  1
  H  75  1  0.98699100  0.52232800  0.39363500  1
  H  76  1  0.84097200  0.55645600  0.50950400  1
  H  79  1  0.09885900  0.56220700  0.53235300  1
  H  80  1  0.14298200  0.57657900  0.57921000  1
  H  81  1  0.14301300  0.42264800  0.42061300  1
  H  82  1  0.09904000  0.43709600  0.46750200  1
  H  84  1  0.83851300  0.58190400  0.43257100  1
  H  86  1  0.18624500  0.46872300  0.37566000  1
  H  88  1  0.18634700  0.53035200  0.62405800  1
  H  90  1  0.83858100  0.41719700  0.56704000  1
  H  97  1  0.21546900  0.69145800  0.15120200  1
  H  104  1  0.79461800  0.79719400  0.26299500  1
  H  105  1  0.80171200  0.84940600  0.33198900  1
  H  106  1  0.14973700  0.79821900  0.34977500  1
  H  107  1  0.79972200  0.68260500  0.13386300  1
  H  110  1  0.15253500  0.70705600  0.26831800  1
  H  111  1  0.26935100  0.74692900  0.29341400  1
  H  112  1  0.30072700  0.71074000  0.21854500  1
  H  113  1  0.26075700  0.76251100  0.23740800  1
  H  118  1  0.01317200  0.88955900  0.38426700  1
  H  119  1  0.07791900  0.85982900  0.40388100  1
  H  121  1  0.09447800  0.67948300  0.08302600  1
  H  122  1  0.93917500  0.65546100  0.07452300  1
  H  129  1  0.21513200  0.45890300  0.30802100  1
  H  136  1  0.79452700  0.46509600  0.20228700  1
  H  137  1  0.80176500  0.48192800  0.15011000  1
  H  138  1  0.14987500  0.55083600  0.20135800  1
  H  139  1  0.79935000  0.45049000  0.31685100  1
  H  142  1  0.15252600  0.56046400  0.29249000  1
  H  143  1  0.26937900  0.54569600  0.25262500  1
  H  144  1  0.30058600  0.50695800  0.28876200  1
  H  145  1  0.26059400  0.47408800  0.23698400  1
  H  150  1  0.01340300  0.49406300  0.11000600  1
  H  151  1  0.07813700  0.54340500  0.13976800  1
  H  153  1  0.09390600  0.40272100  0.31999400  1
  H  154  1  0.93863600  0.41829700  0.34403000  1
  H  161  1  0.21528100  0.84831100  0.54037500  1
  H  168  1  0.79467800  0.73644200  0.53428400  1
  H  169  1  0.80187300  0.66743500  0.51745500  1
  H  170  1  0.14974700  0.64972100  0.44843800  1
  H  171  1  0.79952200  0.86561100  0.54891300  1
  H  174  1  0.15236600  0.73122300  0.43880800  1
  H  175  1  0.26926800  0.70611300  0.45354500  1
  H  176  1  0.30057600  0.78098600  0.49226900  1
  H  177  1  0.26071400  0.76208400  0.52515300  1
  H  182  1  0.01357300  0.61517400  0.50525300  1
  H  183  1  0.07797900  0.59556300  0.45587000  1
  H  185  1  0.09423200  0.91646000  0.59662400  1
  H  186  1  0.93890500  0.92496300  0.58111800  1
  H  193  1  0.21532000  0.30778600  0.84864500  1
  H  200  1  0.79457000  0.20211600  0.73674700  1
  H  201  1  0.80173300  0.14993900  0.66773900  1
  H  202  1  0.14987600  0.20115200  0.65005000  1
  H  203  1  0.79955200  0.31666300  0.86591900  1
  H  206  1  0.15267600  0.29227900  0.73155900  1
  H  207  1  0.26946900  0.25240000  0.70645300  1
  H  208  1  0.30073500  0.28852700  0.78132100  1
  H  209  1  0.26067500  0.23675500  0.76241500  1
  H  214  1  0.01342400  0.10982800  0.61549700  1
  H  215  1  0.07799700  0.13958100  0.59588300  1
  H  217  1  0.09414700  0.31974700  0.91679700  1
  H  218  1  0.93888600  0.34379000  0.92527900  1
  H  225  1  0.21523000  0.54016800  0.69171000  1
  H  232  1  0.79442900  0.53403000  0.79741600  1
  H  233  1  0.80160300  0.51723900  0.84962000  1
  H  234  1  0.14967500  0.44829600  0.79841000  1
  H  235  1  0.79947300  0.54863100  0.68285700  1
  H  238  1  0.15237800  0.43861100  0.70724900  1
  H  239  1  0.26921000  0.45337600  0.74711800  1
  H  240  1  0.30053600  0.49209000  0.71096200  1
  H  241  1  0.26056300  0.52497900  0.76273800  1
  H  246  1  0.01317400  0.50515300  0.88975700  1
  H  247  1  0.07799800  0.45581600  0.86003700  1
  H  249  1  0.09418800  0.59637300  0.67975300  1
  H  250  1  0.93889500  0.58084900  0.65572700  1
  H  257  1  0.21526200  0.15080800  0.45923700  1
  H  264  1  0.79474800  0.26270700  0.46530600  1
  H  265  1  0.80194400  0.33171800  0.48214100  1
  H  266  1  0.14991700  0.34941200  0.55111100  1
  H  267  1  0.79948100  0.13356200  0.45076800  1
  H  270  1  0.15257700  0.26792200  0.56074900  1
  H  271  1  0.26945800  0.29300800  0.54597700  1
  H  272  1  0.30069500  0.21813400  0.50727000  1
  H  273  1  0.26075500  0.23701900  0.47437700  1
  H  278  1  0.01355400  0.38400700  0.49434800  1
  H  279  1  0.07807600  0.40358800  0.54371500  1
  H  281  1  0.09409600  0.08264400  0.40305500  1
  H  282  1  0.93877800  0.07418800  0.41860800  1
  N  17  1  0.09112400  0.99671400  0.44148000  1
  N  18  1  0.09131500  0.00248700  0.55830500  1
  N  23  1  0.87175100  0.87492200  0.41614500  1
  N  25  1  0.10388200  0.92326600  0.54544400  1
  N  27  1  0.10381000  0.07591300  0.45428000  1
  N  29  1  0.87187100  0.12443500  0.58362600  1
  N  47  1  0.09149500  0.44410500  0.00278800  1
  N  48  1  0.09151400  0.55517000  0.99704100  1
  N  53  1  0.87200900  0.54058600  0.12464200  1
  N  55  1  0.10417200  0.62151600  0.07626800  1
  N  57  1  0.10399200  0.37772000  0.92357300  1
  N  59  1  0.87187000  0.45861400  0.87515100  1
  N  77  1  0.09131400  0.55803200  0.55542300  1
  N  78  1  0.09121300  0.44117300  0.44437600  1
  N  83  1  0.87188000  0.58331400  0.45881700  1
  N  85  1  0.10375000  0.45393300  0.37795600  1
  N  87  1  0.10391300  0.54517500  0.62178100  1
  N  89  1  0.87193500  0.41583100  0.54081300  1
  N  114  1  0.72789300  0.72451600  0.21093000  1
  N  146  1  0.72770300  0.48567300  0.27494800  1
  N  178  1  0.72777300  0.78853500  0.51372300  1
  N  210  1  0.72784200  0.27478600  0.78883700  1
  N  242  1  0.72768800  0.51344600  0.72474600  1
  N  274  1  0.72783400  0.21064400  0.48590300  1
  O  115  1  0.65344500  0.74084500  0.19647500  1
  O  116  1  0.67539600  0.69159700  0.20398700  1
  O  147  1  0.65321200  0.45490000  0.25860500  1
  O  148  1  0.67520600  0.51164800  0.30786800  1
  O  179  1  0.65337400  0.80296500  0.54451500  1
  O  180  1  0.67519600  0.79549500  0.48776900  1
  O  211  1  0.65332300  0.25844800  0.80326500  1
  O  212  1  0.67539300  0.30771700  0.79579300  1
  O  243  1  0.65322500  0.54422400  0.74108500  1
  O  244  1  0.67519600  0.48747800  0.69182200  1
  O  275  1  0.65340300  0.19619900  0.45511600  1
  O  276  1  0.67527300  0.20371500  0.51188000  1
