# generated using pymatgen
data_Zn2H27C34N6(O4F3)2
_symmetry_space_group_name_H-M   'P 1'
_cell_length_a   11.15693000
_cell_length_b   18.73201000
_cell_length_c   20.56501000
_cell_angle_alpha   90.06805000
_cell_angle_beta   90.02361000
_cell_angle_gamma   74.01264000
_symmetry_Int_Tables_number   1
_chemical_formula_structural   Zn2H27C34N6(O4F3)2
_chemical_formula_sum   'Zn8 H108 C136 N24 O32 F24'
_cell_volume   4131.68120703
_cell_formula_units_Z   4
loop_
 _symmetry_equiv_pos_site_id
 _symmetry_equiv_pos_as_xyz
  1  'x, y, z'
loop_
 _atom_site_type_symbol
 _atom_site_label
 _atom_site_symmetry_multiplicity
 _atom_site_fract_x
 _atom_site_fract_y
 _atom_site_fract_z
 _atom_site_occupancy
  Zn  Zn1  1  0.04664000  0.57940000  0.10235000  1.0
  Zn  Zn2  1  0.95032000  0.16548000  0.64748000  1.0
  Zn  Zn3  1  0.95324000  0.92051000  0.60213000  1.0
  Zn  Zn4  1  0.04983000  0.33454000  0.14772000  1.0
  Zn  Zn5  1  0.95336000  0.42060000  0.89765000  1.0
  Zn  Zn6  1  0.04968000  0.83452000  0.35253000  1.0
  Zn  Zn7  1  0.04676000  0.07949000  0.39787000  1.0
  Zn  Zn8  1  0.95018000  0.66547000  0.85229000  1.0
  H  H1  1  0.08161000  0.46020000  0.22870000  1.0
  H  H2  1  0.90820000  0.68900000  0.20459000  1.0
  H  H3  1  0.90499000  0.65385000  0.33639000  1.0
  H  H4  1  0.99303000  0.54173000  0.39991000  1.0
  H  H5  1  0.11300000  0.47055000  0.36432000  1.0
  H  H6  1  0.95788000  0.40643000  0.32484000  1.0
  H  H7  1  0.83499000  0.47844000  0.35706000  1.0
  H  H8  1  0.05079000  0.38348000  0.43984000  1.0
  H  H9  1  0.91826000  0.45107000  0.46889000  1.0
  H  H10  1  0.92793000  0.29945000  0.40803000  1.0
  H  H11  1  0.78570000  0.36957000  0.41864000  1.0
  H  H12  1  0.99568000  0.21435000  0.49951000  1.0
  H  H13  1  0.79482000  0.33666000  0.65748000  1.0
  H  H14  1  0.75257000  0.42477000  0.54596000  1.0
  H  H15  1  0.15250000  0.03690000  0.57506000  1.0
  H  H16  1  0.20111000  0.18375000  0.72295000  1.0
  H  H17  1  0.43459000  0.09439000  0.68398000  1.0
  H  H18  1  0.37823000  0.94852000  0.57155000  1.0
  H  H19  1  0.49771000  0.97545000  0.61332000  1.0
  H  H20  1  0.48166000  0.07780000  0.52996000  1.0
  H  H21  1  0.36491000  0.04719000  0.48848000  1.0
  H  H22  1  0.35837000  0.36622000  0.15167000  1.0
  H  H23  1  0.54051000  0.26101000  0.12907000  1.0
  H  H24  1  0.40338000  0.25047000  0.93331000  1.0
  H  H25  1  0.62447000  0.08949000  0.89564000  1.0
  H  H26  1  0.72922000  0.10704000  0.79451000  1.0
  H  H27  1  0.68267000  0.29292000  0.96974000  1.0
  H  H28  1  0.91826000  0.03956000  0.72850000  1.0
  H  H29  1  0.09309000  0.81087000  0.70457000  1.0
  H  H30  1  0.09456000  0.84622000  0.83645000  1.0
  H  H31  1  0.00603000  0.95838000  0.89986000  1.0
  H  H32  1  0.88641000  0.02965000  0.86419000  1.0
  H  H33  1  0.04199000  0.09346000  0.82499000  1.0
  H  H34  1  0.16457000  0.02133000  0.85715000  1.0
  H  H35  1  0.94909000  0.11663000  0.94003000  1.0
  H  H36  1  0.08163000  0.04904000  0.96899000  1.0
  H  H37  1  0.07215000  0.20043000  0.90800000  1.0
  H  H38  1  0.21431000  0.13025000  0.91852000  1.0
  H  H39  1  0.00435000  0.28567000  0.99958000  1.0
  H  H40  1  0.20500000  0.16350000  0.15750000  1.0
  H  H41  1  0.24807000  0.07542000  0.04573000  1.0
  H  H42  1  0.84748000  0.46304000  0.07519000  1.0
  H  H43  1  0.79881000  0.31632000  0.22284000  1.0
  H  H44  1  0.56542000  0.40572000  0.18401000  1.0
  H  H45  1  0.62193000  0.55144000  0.07172000  1.0
  H  H46  1  0.50235000  0.52462000  0.11340000  1.0
  H  H47  1  0.51825000  0.42223000  0.02986000  1.0
  H  H48  1  0.63505000  0.45277000  0.98848000  1.0
  H  H49  1  0.64042000  0.13436000  0.65201000  1.0
  H  H50  1  0.45958000  0.24042000  0.62906000  1.0
  H  H51  1  0.59748000  0.24925000  0.43348000  1.0
  H  H52  1  0.37782000  0.41038000  0.39489000  1.0
  H  H53  1  0.27113000  0.39243000  0.29439000  1.0
  H  H54  1  0.31982000  0.20742000  0.47001000  1.0
  H  H55  1  0.91839000  0.53981000  0.77131000  1.0
  H  H56  1  0.09180000  0.31100000  0.79541000  1.0
  H  H57  1  0.09502000  0.34615000  0.66361000  1.0
  H  H58  1  0.00697000  0.45827000  0.60009000  1.0
  H  H59  1  0.88701000  0.52945000  0.63568000  1.0
  H  H60  1  0.04213000  0.59358000  0.67516000  1.0
  H  H61  1  0.16501000  0.52157000  0.64294000  1.0
  H  H62  1  0.94922000  0.61653000  0.56016000  1.0
  H  H63  1  0.08174000  0.54893000  0.53111000  1.0
  H  H64  1  0.07207000  0.70055000  0.59197000  1.0
  H  H65  1  0.21431000  0.63044000  0.58136000  1.0
  H  H66  1  0.00432000  0.78566000  0.50049000  1.0
  H  H67  1  0.20519000  0.66334000  0.34253000  1.0
  H  H68  1  0.24744000  0.57523000  0.45404000  1.0
  H  H69  1  0.84751000  0.96310000  0.42494000  1.0
  H  H70  1  0.79890000  0.81626000  0.27705000  1.0
  H  H71  1  0.56541000  0.90561000  0.31602000  1.0
  H  H72  1  0.62178000  0.05148000  0.42845000  1.0
  H  H73  1  0.50229000  0.02456000  0.38668000  1.0
  H  H74  1  0.51834000  0.92220000  0.47005000  1.0
  H  H75  1  0.63509000  0.95281000  0.51152000  1.0
  H  H76  1  0.64163000  0.63378000  0.84833000  1.0
  H  H77  1  0.45949000  0.73900000  0.87093000  1.0
  H  H78  1  0.59662000  0.74954000  0.06669000  1.0
  H  H79  1  0.37553000  0.91051000  0.10437000  1.0
  H  H80  1  0.27078000  0.89297000  0.20549000  1.0
  H  H81  1  0.31734000  0.70708000  0.03026000  1.0
  H  H82  1  0.08174000  0.96045000  0.27150000  1.0
  H  H83  1  0.90691000  0.18913000  0.29544000  1.0
  H  H84  1  0.90544000  0.15378000  0.16355000  1.0
  H  H85  1  0.99397000  0.04162000  0.10014000  1.0
  H  H86  1  0.11359000  0.97036000  0.13581000  1.0
  H  H87  1  0.95801000  0.90654000  0.17501000  1.0
  H  H88  1  0.83544000  0.97867000  0.14285000  1.0
  H  H89  1  0.05091000  0.88337000  0.05997000  1.0
  H  H90  1  0.91838000  0.95097000  0.03101000  1.0
  H  H91  1  0.92786000  0.79957000  0.09200000  1.0
  H  H92  1  0.78570000  0.86976000  0.08148000  1.0
  H  H93  1  0.99565000  0.71434000  0.00042000  1.0
  H  H94  1  0.79501000  0.83650000  0.84250000  1.0
  H  H95  1  0.75193000  0.92458000  0.95428000  1.0
  H  H96  1  0.15252000  0.53696000  0.92481000  1.0
  H  H97  1  0.20120000  0.68368000  0.77716000  1.0
  H  H98  1  0.43458000  0.59428000  0.81599000  1.0
  H  H99  1  0.37807000  0.44856000  0.92828000  1.0
  H  H100  1  0.49766000  0.47538000  0.88660000  1.0
  H  H101  1  0.48176000  0.57777000  0.97014000  1.0
  H  H102  1  0.36495000  0.54724000  0.01152000  1.0
  H  H103  1  0.35959000  0.86564000  0.34799000  1.0
  H  H104  1  0.54043000  0.75958000  0.37094000  1.0
  H  H105  1  0.40253000  0.75076000  0.56652000  1.0
  H  H106  1  0.62218000  0.58962000  0.60511000  1.0
  H  H107  1  0.72887000  0.60757000  0.70562000  1.0
  H  H108  1  0.68019000  0.79258000  0.52999000  1.0
  C  C1  1  0.03352000  0.51772000  0.23907000  1.0
  C  C2  1  0.94193000  0.63679000  0.22975000  1.0
  C  C3  1  0.93942000  0.61978000  0.29435000  1.0
  C  C4  1  0.01439000  0.50138000  0.35998000  1.0
  C  C5  1  0.93325000  0.44763000  0.36424000  1.0
  C  C6  1  0.95121000  0.40913000  0.43065000  1.0
  C  C7  1  0.88198000  0.34929000  0.43622000  1.0
  C  C8  1  0.93535000  0.25818000  0.52854000  1.0
  C  C9  1  0.82940000  0.32455000  0.60832000  1.0
  C  C10  1  0.80927000  0.36860000  0.55393000  1.0
  C  C11  1  0.19563000  0.06584000  0.60982000  1.0
  C  C12  1  0.22615000  0.14075000  0.68620000  1.0
  C  C13  1  0.34139000  0.09726000  0.66744000  1.0
  C  C14  1  0.41575000  0.99570000  0.58191000  1.0
  C  C15  1  0.44929000  0.02877000  0.51860000  1.0
  C  C16  1  0.17317000  0.43433000  0.07306000  1.0
  C  C17  1  0.27977000  0.36862000  0.05579000  1.0
  C  C18  1  0.37056000  0.34131000  0.10344000  1.0
  C  C19  1  0.47370000  0.28124000  0.09040000  1.0
  C  C20  1  0.48923000  0.24847000  0.02843000  1.0
  C  C21  1  0.39756000  0.27527000  0.98144000  1.0
  C  C22  1  0.29183000  0.33361000  0.99478000  1.0
  C  C23  1  0.19016000  0.35142000  0.94429000  1.0
  C  C24  1  0.59591000  0.18018000  0.00971000  1.0
  C  C25  1  0.70695000  0.16568000  0.05840000  1.0
  C  C26  1  0.54333000  0.11156000  0.01292000  1.0
  C  C27  1  0.64925000  0.18893000  0.94212000  1.0
  C  C28  1  0.66030000  0.13744000  0.89139000  1.0
  C  C29  1  0.72038000  0.14690000  0.83396000  1.0
  C  C30  1  0.77497000  0.20536000  0.82610000  1.0
  C  C31  1  0.85492000  0.20523000  0.76736000  1.0
  C  C32  1  0.75881000  0.25923000  0.87560000  1.0
  C  C33  1  0.79991000  0.32949000  0.87033000  1.0
  C  C34  1  0.69469000  0.25069000  0.93223000  1.0
  C  C35  1  0.96646000  0.98209000  0.73898000  1.0
  C  C36  1  0.05874000  0.86311000  0.72970000  1.0
  C  C37  1  0.06049000  0.88020000  0.79435000  1.0
  C  C38  1  0.98496000  0.99869000  0.85997000  1.0
  C  C39  1  0.06638000  0.05228000  0.86434000  1.0
  C  C40  1  0.04864000  0.09089000  0.93076000  1.0
  C  C41  1  0.11810000  0.15066000  0.93619000  1.0
  C  C42  1  0.06469000  0.24187000  0.02859000  1.0
  C  C43  1  0.17069000  0.17557000  0.10830000  1.0
  C  C44  1  0.19116000  0.13155000  0.05381000  1.0
  C  C45  1  0.80436000  0.43412000  0.10988000  1.0
  C  C46  1  0.77381000  0.35933000  0.18617000  1.0
  C  C47  1  0.65859000  0.40281000  0.16743000  1.0
  C  C48  1  0.58429000  0.50431000  0.08198000  1.0
  C  C49  1  0.55067000  0.47123000  0.01860000  1.0
  C  C50  1  0.82673000  0.06542000  0.57285000  1.0
  C  C51  1  0.71987000  0.13116000  0.55600000  1.0
  C  C52  1  0.62909000  0.15902000  0.60368000  1.0
  C  C53  1  0.52658000  0.21951000  0.59056000  1.0
  C  C54  1  0.51160000  0.25192000  0.52851000  1.0
  C  C55  1  0.60315000  0.22454000  0.48160000  1.0
  C  C56  1  0.70831000  0.16596000  0.49496000  1.0
  C  C57  1  0.80998000  0.14795000  0.44444000  1.0
  C  C58  1  0.40606000  0.32048000  0.50926000  1.0
  C  C59  1  0.29376000  0.33640000  0.55722000  1.0
  C  C60  1  0.46082000  0.38845000  0.51306000  1.0
  C  C61  1  0.35351000  0.31104000  0.44163000  1.0
  C  C62  1  0.34165000  0.36250000  0.39099000  1.0
  C  C63  1  0.28072000  0.35278000  0.33393000  1.0
  C  C64  1  0.22669000  0.29408000  0.32624000  1.0
  C  C65  1  0.14647000  0.29424000  0.26761000  1.0
  C  C66  1  0.24294000  0.24041000  0.37583000  1.0
  C  C67  1  0.20139000  0.17028000  0.37040000  1.0
  C  C68  1  0.30749000  0.24932000  0.43224000  1.0
  C  C69  1  0.96649000  0.48228000  0.76093000  1.0
  C  C70  1  0.05808000  0.36321000  0.77025000  1.0
  C  C71  1  0.06058000  0.38022000  0.70565000  1.0
  C  C72  1  0.98562000  0.49863000  0.64002000  1.0
  C  C73  1  0.06676000  0.55237000  0.63576000  1.0
  C  C74  1  0.04880000  0.59087000  0.56935000  1.0
  C  C75  1  0.11803000  0.65071000  0.56379000  1.0
  C  C76  1  0.06465000  0.74182000  0.47146000  1.0
  C  C77  1  0.17060000  0.67546000  0.39169000  1.0
  C  C78  1  0.19073000  0.63141000  0.44607000  1.0
  C  C79  1  0.80437000  0.93416000  0.39019000  1.0
  C  C80  1  0.77385000  0.85926000  0.31380000  1.0
  C  C81  1  0.65861000  0.90274000  0.33256000  1.0
  C  C82  1  0.58426000  0.00430000  0.41809000  1.0
  C  C83  1  0.55071000  0.97123000  0.48140000  1.0
  C  C84  1  0.82684000  0.56568000  0.92694000  1.0
  C  C85  1  0.72024000  0.63139000  0.94421000  1.0
  C  C86  1  0.62945000  0.65870000  0.89656000  1.0
  C  C87  1  0.52630000  0.71877000  0.90960000  1.0
  C  C88  1  0.51077000  0.75153000  0.97157000  1.0
  C  C89  1  0.60244000  0.72474000  0.01856000  1.0
  C  C90  1  0.70818000  0.66640000  0.00522000  1.0
  C  C91  1  0.80984000  0.64858000  0.05571000  1.0
  C  C92  1  0.40409000  0.81983000  0.99029000  1.0
  C  C93  1  0.29306000  0.83432000  0.94160000  1.0
  C  C94  1  0.45668000  0.88845000  0.98708000  1.0
  C  C95  1  0.35076000  0.81108000  0.05789000  1.0
  C  C96  1  0.33970000  0.86256000  0.10861000  1.0
  C  C97  1  0.27963000  0.85310000  0.16604000  1.0
  C  C98  1  0.22504000  0.79464000  0.17390000  1.0
  C  C99  1  0.14509000  0.79477000  0.23264000  1.0
  C  C100  1  0.24119000  0.74078000  0.12440000  1.0
  C  C101  1  0.20009000  0.67051000  0.12967000  1.0
  C  C102  1  0.30532000  0.74932000  0.06777000  1.0
  C  C103  1  0.03355000  0.01791000  0.26102000  1.0
  C  C104  1  0.94127000  0.13690000  0.27030000  1.0
  C  C105  1  0.93952000  0.11980000  0.20565000  1.0
  C  C106  1  0.01504000  0.00132000  0.14004000  1.0
  C  C107  1  0.93363000  0.94773000  0.13566000  1.0
  C  C108  1  0.95136000  0.90912000  0.06924000  1.0
  C  C109  1  0.88191000  0.84935000  0.06381000  1.0
  C  C110  1  0.93531000  0.75813000  0.97141000  1.0
  C  C111  1  0.82931000  0.82443000  0.89170000  1.0
  C  C112  1  0.80884000  0.86845000  0.94619000  1.0
  C  C113  1  0.19565000  0.56588000  0.89012000  1.0
  C  C114  1  0.22619000  0.64068000  0.81383000  1.0
  C  C115  1  0.34142000  0.59720000  0.83257000  1.0
  C  C116  1  0.41571000  0.49569000  0.91802000  1.0
  C  C117  1  0.44933000  0.52877000  0.98140000  1.0
  C  C118  1  0.17327000  0.93458000  0.42715000  1.0
  C  C119  1  0.28013000  0.86884000  0.44400000  1.0
  C  C120  1  0.37091000  0.84099000  0.39632000  1.0
  C  C121  1  0.47343000  0.78049000  0.40944000  1.0
  C  C122  1  0.48841000  0.74808000  0.47149000  1.0
  C  C123  1  0.39686000  0.77546000  0.51840000  1.0
  C  C124  1  0.29169000  0.83404000  0.50504000  1.0
  C  C125  1  0.19003000  0.85206000  0.55556000  1.0
  C  C126  1  0.59394000  0.67952000  0.49074000  1.0
  C  C127  1  0.70624000  0.66360000  0.44278000  1.0
  C  C128  1  0.53918000  0.61155000  0.48694000  1.0
  C  C129  1  0.64649000  0.68897000  0.55837000  1.0
  C  C130  1  0.65836000  0.63751000  0.60901000  1.0
  C  C131  1  0.71928000  0.64723000  0.66608000  1.0
  C  C132  1  0.77331000  0.70592000  0.67376000  1.0
  C  C133  1  0.85353000  0.70576000  0.73239000  1.0
  C  C134  1  0.75707000  0.75959000  0.62418000  1.0
  C  C135  1  0.79862000  0.82972000  0.62961000  1.0
  C  C136  1  0.69251000  0.75068000  0.56776000  1.0
  N  N1  1  0.00052000  0.57292000  0.19587000  1.0
  N  N2  1  0.99738000  0.54428000  0.29968000  1.0
  N  N3  1  0.87643000  0.32578000  0.50396000  1.0
  N  N4  1  0.90805000  0.25577000  0.59181000  1.0
  N  N5  1  0.13597000  0.12055000  0.64993000  1.0
  N  N6  1  0.32047000  0.05014000  0.61934000  1.0
  N  N7  1  0.00010000  0.92685000  0.69574000  1.0
  N  N8  1  0.00208000  0.95566000  0.79965000  1.0
  N  N9  1  0.12393000  0.17432000  0.00391000  1.0
  N  N10  1  0.09186000  0.24428000  0.09189000  1.0
  N  N11  1  0.86402000  0.37947000  0.14996000  1.0
  N  N12  1  0.67951000  0.44986000  0.11938000  1.0
  N  N13  1  0.99949000  0.42709000  0.80413000  1.0
  N  N14  1  0.00262000  0.45572000  0.70032000  1.0
  N  N15  1  0.12357000  0.67422000  0.49604000  1.0
  N  N16  1  0.09196000  0.74423000  0.40820000  1.0
  N  N17  1  0.86403000  0.87945000  0.35007000  1.0
  N  N18  1  0.67953000  0.94986000  0.38066000  1.0
  N  N19  1  0.99990000  0.07315000  0.30426000  1.0
  N  N20  1  0.99793000  0.04434000  0.20035000  1.0
  N  N21  1  0.87607000  0.82568000  0.99609000  1.0
  N  N22  1  0.90814000  0.75572000  0.90811000  1.0
  N  N23  1  0.13599000  0.62054000  0.85004000  1.0
  N  N24  1  0.32050000  0.55015000  0.88062000  1.0
  O  O1  1  0.07888000  0.42500000  0.10348000  1.0
  O  O2  1  0.18714000  0.49832000  0.06183000  1.0
  O  O3  1  0.09686000  0.40855000  0.95786000  1.0
  O  O4  1  0.19920000  0.31011000  0.89594000  1.0
  O  O5  1  0.83527000  0.16416000  0.71912000  1.0
  O  O6  1  0.93705000  0.23883000  0.76655000  1.0
  O  O7  1  0.74080000  0.37995000  0.83428000  1.0
  O  O8  1  0.89128000  0.33153000  0.90929000  1.0
  O  O9  1  0.92065000  0.07485000  0.60353000  1.0
  O  O10  1  0.81333000  0.00132000  0.56116000  1.0
  O  O11  1  0.90319000  0.09070000  0.45790000  1.0
  O  O12  1  0.80095000  0.18935000  0.39621000  1.0
  O  O13  1  0.16441000  0.33620000  0.21976000  1.0
  O  O14  1  0.06534000  0.26000000  0.26657000  1.0
  O  O15  1  0.26091000  0.11973000  0.33440000  1.0
  O  O16  1  0.10924000  0.16860000  0.40895000  1.0
  O  O17  1  0.92112000  0.57500000  0.89653000  1.0
  O  O18  1  0.81287000  0.50169000  0.93817000  1.0
  O  O19  1  0.90314000  0.59146000  0.04214000  1.0
  O  O20  1  0.80080000  0.68989000  0.10406000  1.0
  O  O21  1  0.16473000  0.83584000  0.28088000  1.0
  O  O22  1  0.06296000  0.76117000  0.23346000  1.0
  O  O23  1  0.25921000  0.62005000  0.16572000  1.0
  O  O24  1  0.10872000  0.66848000  0.09071000  1.0
  O  O25  1  0.07936000  0.92515000  0.39647000  1.0
  O  O26  1  0.18667000  0.99869000  0.43885000  1.0
  O  O27  1  0.09682000  0.90931000  0.54210000  1.0
  O  O28  1  0.19905000  0.81065000  0.60379000  1.0
  O  O29  1  0.83560000  0.66380000  0.78024000  1.0
  O  O30  1  0.93466000  0.74000000  0.73343000  1.0
  O  O31  1  0.73909000  0.88027000  0.66560000  1.0
  O  O32  1  0.89076000  0.83140000  0.59106000  1.0
  F  F1  1  0.74599000  0.22785000  0.06822000  1.0
  F  F2  1  0.80678000  0.11107000  0.03582000  1.0
  F  F3  1  0.67904000  0.14283000  0.11793000  1.0
  F  F4  1  0.49047000  0.10663000  0.07141000  1.0
  F  F5  1  0.63541000  0.04625000  0.00343000  1.0
  F  F6  1  0.45436000  0.11417000  0.96720000  1.0
  F  F7  1  0.25428000  0.27494000  0.56823000  1.0
  F  F8  1  0.19368000  0.38941000  0.53278000  1.0
  F  F9  1  0.32070000  0.36081000  0.61664000  1.0
  F  F10  1  0.51478000  0.39293000  0.57170000  1.0
  F  F11  1  0.37012000  0.45416000  0.50342000  1.0
  F  F12  1  0.55087000  0.38561000  0.46757000  1.0
  F  F13  1  0.25402000  0.77215000  0.93178000  1.0
  F  F14  1  0.19323000  0.88893000  0.96418000  1.0
  F  F15  1  0.32096000  0.85717000  0.88208000  1.0
  F  F16  1  0.50954000  0.89338000  0.92859000  1.0
  F  F17  1  0.36460000  0.95375000  0.99657000  1.0
  F  F18  1  0.54565000  0.88584000  0.03280000  1.0
  F  F19  1  0.74572000  0.72506000  0.43177000  1.0
  F  F20  1  0.80632000  0.61060000  0.46722000  1.0
  F  F21  1  0.67931000  0.63920000  0.38336000  1.0
  F  F22  1  0.48522000  0.60708000  0.42830000  1.0
  F  F23  1  0.62988000  0.54584000  0.49658000  1.0
  F  F24  1  0.44913000  0.61440000  0.53243000  1.0
