# generated using pymatgen
data_NdH4C5O6
_symmetry_space_group_name_H-M   'P 1'
_cell_length_a   9.07220000
_cell_length_b   9.07220000
_cell_length_c   14.58204256
_cell_angle_alpha   100.08264329
_cell_angle_beta   100.08304329
_cell_angle_gamma   115.92600000
_symmetry_Int_Tables_number   1
_chemical_formula_structural   NdH4C5O6
_chemical_formula_sum   'Nd4 H16 C20 O24'
_cell_volume   1018.90738161
_cell_formula_units_Z   4
loop_
 _symmetry_equiv_pos_site_id
 _symmetry_equiv_pos_as_xyz
  1  'x, y, z'
loop_
 _atom_site_type_symbol
 _atom_site_label
 _atom_site_symmetry_multiplicity
 _atom_site_fract_x
 _atom_site_fract_y
 _atom_site_fract_z
 _atom_site_occupancy
  Nd  Nd1  1  0.50941000  0.75941000  0.01882000  1.0
  Nd  Nd2  1  0.74059000  0.99059000  0.48118000  1.0
  Nd  Nd3  1  0.49059000  0.24059000  0.98118000  1.0
  Nd  Nd4  1  0.25941000  0.00941000  0.51882000  1.0
  H  H1  1  0.93740000  0.34200000  0.02960000  1.0
  H  H2  1  0.97810000  0.36390000  0.14120000  1.0
  H  H3  1  0.09220000  0.18760000  0.02960000  1.0
  H  H4  1  0.16310000  0.27730000  0.14120000  1.0
  H  H5  1  0.15800000  0.56260000  0.47040000  1.0
  H  H6  1  0.13610000  0.52190000  0.35880000  1.0
  H  H7  1  0.31240000  0.40780000  0.47040000  1.0
  H  H8  1  0.22270000  0.33690000  0.35880000  1.0
  H  H9  1  0.06260000  0.65800000  0.97040000  1.0
  H  H10  1  0.02190000  0.63610000  0.85880000  1.0
  H  H11  1  0.90780000  0.81240000  0.97040000  1.0
  H  H12  1  0.83690000  0.72270000  0.85880000  1.0
  H  H13  1  0.84200000  0.43740000  0.52960000  1.0
  H  H14  1  0.86390000  0.47810000  0.64120000  1.0
  H  H15  1  0.68760000  0.59220000  0.52960000  1.0
  H  H16  1  0.77730000  0.66310000  0.64120000  1.0
  C  C1  1  0.80690000  0.12370000  0.06220000  1.0
  C  C2  1  0.96100000  0.29020000  0.07900000  1.0
  C  C3  1  0.25530000  0.43850000  0.06220000  1.0
  C  C4  1  0.11800000  0.28880000  0.07900000  1.0
  C  C5  1  0.37630000  0.69310000  0.43780000  1.0
  C  C6  1  0.20980000  0.53900000  0.42100000  1.0
  C  C7  1  0.06150000  0.24470000  0.43780000  1.0
  C  C8  1  0.21120000  0.38200000  0.42100000  1.0
  C  C9  1  0.19310000  0.87630000  0.93780000  1.0
  C  C10  1  0.03900000  0.70980000  0.92100000  1.0
  C  C11  1  0.74470000  0.56150000  0.93780000  1.0
  C  C12  1  0.88200000  0.71120000  0.92100000  1.0
  C  C13  1  0.62370000  0.30690000  0.56220000  1.0
  C  C14  1  0.79020000  0.46100000  0.57900000  1.0
  C  C15  1  0.93850000  0.75530000  0.56220000  1.0
  C  C16  1  0.78880000  0.61800000  0.57900000  1.0
  C  C17  1  0.67540000  0.82460000  0.25000000  1.0
  C  C18  1  0.57460000  0.92540000  0.25000000  1.0
  C  C19  1  0.32460000  0.17540000  0.75000000  1.0
  C  C20  1  0.42540000  0.07460000  0.75000000  1.0
  O  O1  1  0.81471000  0.99829000  0.07900000  1.0
  O  O2  1  0.66696000  0.11868000  0.03284000  1.0
  O  O3  1  0.66049000  0.73797000  0.17026000  1.0
  O  O4  1  0.26429000  0.58071000  0.07900000  1.0
  O  O5  1  0.36588000  0.41416000  0.03284000  1.0
  O  O6  1  0.50977000  0.93229000  0.17026000  1.0
  O  O7  1  0.50171000  0.68529000  0.42100000  1.0
  O  O8  1  0.38132000  0.83304000  0.46716000  1.0
  O  O9  1  0.76203000  0.83951000  0.32974000  1.0
  O  O10  1  0.91929000  0.23571000  0.42100000  1.0
  O  O11  1  0.08584000  0.13412000  0.46716000  1.0
  O  O12  1  0.56771000  0.99023000  0.32974000  1.0
  O  O13  1  0.18529000  0.00171000  0.92100000  1.0
  O  O14  1  0.33304000  0.88132000  0.96716000  1.0
  O  O15  1  0.33951000  0.26203000  0.82974000  1.0
  O  O16  1  0.73571000  0.41929000  0.92100000  1.0
  O  O17  1  0.63412000  0.58584000  0.96716000  1.0
  O  O18  1  0.49023000  0.06771000  0.82974000  1.0
  O  O19  1  0.49829000  0.31471000  0.57900000  1.0
  O  O20  1  0.61868000  0.16696000  0.53284000  1.0
  O  O21  1  0.23797000  0.16049000  0.67026000  1.0
  O  O22  1  0.08071000  0.76429000  0.57900000  1.0
  O  O23  1  0.91416000  0.86588000  0.53284000  1.0
  O  O24  1  0.43229000  0.00977000  0.67026000  1.0
