# generated using pymatgen
data_ErH3(C3O2)3
_symmetry_space_group_name_H-M   'P 1'
_cell_length_a   10.28054000
_cell_length_b   10.29111000
_cell_length_c   14.30529000
_cell_angle_alpha   90.07705000
_cell_angle_beta   90.03983000
_cell_angle_gamma   89.80763000
_symmetry_Int_Tables_number   1
_chemical_formula_structural   ErH3(C3O2)3
_chemical_formula_sum   'Er4 H12 C36 O24'
_cell_volume   1513.46321476
_cell_formula_units_Z   4
loop_
 _symmetry_equiv_pos_site_id
 _symmetry_equiv_pos_as_xyz
  1  'x, y, z'
loop_
 _atom_site_type_symbol
 _atom_site_label
 _atom_site_symmetry_multiplicity
 _atom_site_fract_x
 _atom_site_fract_y
 _atom_site_fract_z
 _atom_site_occupancy
  Er  Er1  1  0.64094000  0.64167000  0.12419000  1.0
  Er  Er2  1  0.35909000  0.35836000  0.62421000  1.0
  Er  Er3  1  0.64176000  0.35740000  0.37296000  1.0
  Er  Er4  1  0.36064000  0.64243000  0.87488000  1.0
  H  H1  1  0.57981000  0.04369000  0.13895000  1.0
  H  H2  1  0.42143000  0.95734000  0.63932000  1.0
  H  H3  1  0.04299000  0.42017000  0.38820000  1.0
  H  H4  1  0.95823000  0.58065000  0.88838000  1.0
  H  H5  1  0.42020000  0.04397000  0.86014000  1.0
  H  H6  1  0.57996000  0.95563000  0.36037000  1.0
  H  H7  1  0.95840000  0.42039000  0.60970000  1.0
  H  H8  1  0.04096000  0.58142000  0.11002000  1.0
  H  H9  1  0.50050000  0.40545000  0.99948000  1.0
  H  H10  1  0.49987000  0.59477000  0.49985000  1.0
  H  H11  1  0.40402000  0.50128000  0.24840000  1.0
  H  H12  1  0.59609000  0.49884000  0.74955000  1.0
  C  C1  1  0.58775000  0.30733000  0.16142000  1.0
  C  C2  1  0.54562000  0.09664000  0.07789000  1.0
  C  C3  1  0.54484000  0.23265000  0.07794000  1.0
  C  C4  1  0.41266000  0.69292000  0.66198000  1.0
  C  C5  1  0.45553000  0.90392000  0.57838000  1.0
  C  C6  1  0.45583000  0.76782000  0.57855000  1.0
  C  C7  1  0.30868000  0.41231000  0.40965000  1.0
  C  C8  1  0.09572000  0.45516000  0.32736000  1.0
  C  C9  1  0.23183000  0.45601000  0.32711000  1.0
  C  C10  1  0.69392000  0.58741000  0.91170000  1.0
  C  C11  1  0.90505000  0.54585000  0.82760000  1.0
  C  C12  1  0.76887000  0.54446000  0.82800000  1.0
  C  C13  1  0.41245000  0.30768000  0.83743000  1.0
  C  C14  1  0.45508000  0.09693000  0.92096000  1.0
  C  C15  1  0.45563000  0.23282000  0.92085000  1.0
  C  C16  1  0.58751000  0.69220000  0.33759000  1.0
  C  C17  1  0.54542000  0.90300000  0.42131000  1.0
  C  C18  1  0.54446000  0.76711000  0.42117000  1.0
  C  C19  1  0.69362000  0.41006000  0.58740000  1.0
  C  C20  1  0.90526000  0.45497000  0.67065000  1.0
  C  C21  1  0.76900000  0.45489000  0.67058000  1.0
  C  C22  1  0.30614000  0.59054000  0.08737000  1.0
  C  C23  1  0.09459000  0.54673000  0.17068000  1.0
  C  C24  1  0.23076000  0.54637000  0.17027000  1.0
  C  C25  1  0.50031000  0.88422000  0.99861000  1.0
  C  C26  1  0.50066000  0.02905000  0.99932000  1.0
  C  C27  1  0.50032000  0.30004000  0.99942000  1.0
  C  C28  1  0.50067000  0.11622000  0.49865000  1.0
  C  C29  1  0.50058000  0.97125000  0.49979000  1.0
  C  C30  1  0.50001000  0.70020000  0.49984000  1.0
  C  C31  1  0.88229000  0.50024000  0.24947000  1.0
  C  C32  1  0.02736000  0.50075000  0.24914000  1.0
  C  C33  1  0.29850000  0.50127000  0.24856000  1.0
  C  C34  1  0.11849000  0.50064000  0.74959000  1.0
  C  C35  1  0.97311000  0.50081000  0.74908000  1.0
  C  C36  1  0.70164000  0.49946000  0.74938000  1.0
  O  O1  1  0.58386000  0.82630000  0.05015000  1.0
  O  O2  1  0.60964000  0.42857000  0.15275000  1.0
  O  O3  1  0.59821000  0.24693000  0.23922000  1.0
  O  O4  1  0.41706000  0.17408000  0.55025000  1.0
  O  O5  1  0.39056000  0.57177000  0.65262000  1.0
  O  O6  1  0.40232000  0.75281000  0.74014000  1.0
  O  O7  1  0.82644000  0.41553000  0.30064000  1.0
  O  O8  1  0.42947000  0.38970000  0.39833000  1.0
  O  O9  1  0.25175000  0.40222000  0.48871000  1.0
  O  O10  1  0.17484000  0.58483000  0.80101000  1.0
  O  O11  1  0.57233000  0.60952000  0.90257000  1.0
  O  O12  1  0.75330000  0.59783000  0.98993000  1.0
  O  O13  1  0.41601000  0.83008000  0.94593000  1.0
  O  O14  1  0.39042000  0.42892000  0.84716000  1.0
  O  O15  1  0.40223000  0.24777000  0.75937000  1.0
  O  O16  1  0.58406000  0.17050000  0.44550000  1.0
  O  O17  1  0.60989000  0.57108000  0.34709000  1.0
  O  O18  1  0.59766000  0.75201000  0.25952000  1.0
  O  O19  1  0.17488000  0.41550000  0.69855000  1.0
  O  O20  1  0.57194000  0.39019000  0.59708000  1.0
  O  O21  1  0.75297000  0.39608000  0.50945000  1.0
  O  O22  1  0.82522000  0.58479000  0.19858000  1.0
  O  O23  1  0.42793000  0.61000000  0.09708000  1.0
  O  O24  1  0.24683000  0.60412000  0.00938000  1.0
