# generated using pymatgen
data_SiH26(C18N)2
_symmetry_space_group_name_H-M   'P 1'
_cell_length_a   22.33760000
_cell_length_b   42.93290000
_cell_length_c   42.93290000
_cell_angle_alpha   90.00000000
_cell_angle_beta   90.04150000
_cell_angle_gamma   90.00000000
_symmetry_Int_Tables_number   1
_chemical_formula_structural   SiH26(C18N)2
_chemical_formula_sum   'Si8 H208 C288 N16'
_cell_volume   41173.41081812
_cell_formula_units_Z   8
loop_
 _symmetry_equiv_pos_site_id
 _symmetry_equiv_pos_as_xyz
  1  'x, y, z'
loop_
 _atom_site_type_symbol
 _atom_site_label
 _atom_site_symmetry_multiplicity
 _atom_site_fract_x
 _atom_site_fract_y
 _atom_site_fract_z
 _atom_site_occupancy
  C  1  1  0.15294500  0.21566600  0.21175300  1
  C  2  1  0.14312200  0.21907200  0.17946000  1
  C  3  1  0.09451900  0.20418900  0.16491000  1
  C  4  1  0.05506100  0.18482000  0.18202600  1
  C  5  1  0.06550400  0.18150900  0.21445300  1
  C  6  1  0.11398900  0.19644100  0.22905300  1
  C  8  1  0.93855800  0.18809900  0.18469600  1
  C  9  1  0.89966300  0.17313900  0.20604500  1
  C  10  1  0.85568800  0.18997900  0.22228000  1
  C  11  1  0.85019500  0.22248400  0.21831600  1
  C  12  1  0.88937100  0.23775000  0.19755100  1
  C  13  1  0.93339100  0.22086600  0.18135800  1
  C  14  1  0.99124200  0.17330700  0.12777300  1
  C  15  1  0.98966400  0.13076600  0.17092800  1
  C  16  1  0.93799800  0.11467800  0.16036300  1
  C  17  1  0.93503400  0.08198800  0.16093900  1
  C  18  1  0.98430100  0.06436400  0.17149000  1
  C  19  1  0.03601300  0.08002800  0.18201600  1
  C  20  1  0.03881500  0.11274300  0.18149100  1
  C  21  1  0.03689800  0.15939700  0.10951900  1
  C  22  1  0.03467400  0.16006000  0.07683400  1
  C  23  1  0.98662600  0.17464800  0.06121200  1
  C  24  1  0.94089200  0.18854800  0.07914500  1
  C  25  1  0.94270300  0.18745400  0.11188700  1
  C  42  1  0.15338900  0.78215100  0.77752450  1
  C  43  1  0.14365600  0.77878100  0.80982000  1
  C  44  1  0.09507400  0.79366400  0.82435250  1
  C  45  1  0.05547600  0.81295500  0.80720400  1
  C  46  1  0.06587300  0.81625500  0.77477800  1
  C  47  1  0.11437400  0.80135100  0.76020250  1
  C  49  1  0.93898700  0.80959600  0.80445600  1
  C  50  1  0.89995800  0.82453300  0.78312800  1
  C  51  1  0.85597600  0.80766500  0.76689550  1
  C  52  1  0.85060200  0.77515200  0.77083900  1
  C  53  1  0.88990000  0.75990900  0.79158850  1
  C  54  1  0.93392400  0.77682200  0.80777950  1
  C  55  1  0.99161000  0.82441900  0.86141400  1
  C  56  1  0.98997300  0.86696500  0.81826350  1
  C  57  1  0.93828800  0.88303400  0.82879750  1
  C  58  1  0.93524000  0.91572200  0.82819300  1
  C  59  1  0.98446400  0.93337100  0.81766500  1
  C  60  1  0.03620900  0.91773000  0.80719200  1
  C  61  1  0.03905600  0.88501600  0.80769850  1
  C  62  1  0.03720700  0.83835300  0.87972150  1
  C  63  1  0.03494600  0.83768600  0.91240550  1
  C  64  1  0.98691800  0.82306400  0.92797550  1
  C  65  1  0.94123600  0.80914200  0.90999050  1
  C  66  1  0.94309900  0.81022700  0.87725150  1
  C  83  1  0.15340300  0.78177800  0.21133600  1
  C  84  1  0.14360600  0.81407300  0.21472400  1
  C  85  1  0.09498400  0.82860500  0.19984000  1
  C  86  1  0.05540000  0.81145700  0.18053800  1
  C  87  1  0.06583900  0.77903200  0.17723800  1
  C  88  1  0.11441300  0.76446100  0.19212000  1
  C  90  1  0.93891100  0.80873000  0.18385400  1
  C  91  1  0.89992300  0.78739400  0.16890700  1
  C  92  1  0.85597000  0.77115900  0.18576100  1
  C  93  1  0.85058000  0.77511200  0.21827000  1
  C  94  1  0.88983700  0.79587000  0.23352250  1
  C  95  1  0.93383400  0.81206300  0.21662400  1
  C  96  1  0.99150600  0.86567700  0.16903700  1
  C  97  1  0.98989200  0.82251600  0.12650400  1
  C  98  1  0.93819900  0.83304900  0.11041000  1
  C  99  1  0.93515000  0.83243400  0.07772100  1
  C  100  1  0.98440800  0.82192000  0.06009600  1
  C  101  1  0.03615200  0.81142900  0.07576000  1
  C  102  1  0.03899500  0.81195100  0.10847400  1
  C  103  1  0.03710000  0.88396600  0.15511200  1
  C  104  1  0.03484000  0.91665200  0.15577400  1
  C  105  1  0.98681000  0.93224100  0.17037400  1
  C  106  1  0.94113400  0.91427600  0.18428800  1
  C  107  1  0.94299600  0.88153400  0.18320750  1
  C  124  1  0.15379000  0.21589800  0.77796950  1
  C  125  1  0.14396000  0.18360600  0.77458850  1
  C  126  1  0.09533500  0.16909200  0.78945150  1
  C  127  1  0.05578600  0.18625700  0.80872700  1
  C  128  1  0.06628400  0.21867500  0.81204350  1
  C  129  1  0.11483400  0.23323100  0.79716150  1
  C  131  1  0.93931400  0.18902700  0.80528450  1
  C  132  1  0.90034400  0.21037400  0.82020250  1
  C  133  1  0.85642200  0.22662600  0.80331050  1
  C  134  1  0.85101900  0.22266400  0.77080000  1
  C  135  1  0.89025300  0.20189100  0.75557900  1
  C  136  1  0.93422800  0.18568500  0.77251300  1
  C  137  1  0.99181800  0.13205500  0.82016700  1
  C  138  1  0.99016600  0.17521300  0.86269100  1
  C  139  1  0.93841600  0.16469200  0.87870800  1
  C  140  1  0.93530200  0.16528900  0.91139200  1
  C  141  1  0.98449600  0.17582100  0.92909000  1
  C  142  1  0.03628100  0.18631100  0.91349950  1
  C  143  1  0.03920800  0.18579900  0.88078900  1
  C  144  1  0.03738700  0.11375200  0.83412250  1
  C  145  1  0.03508500  0.08106900  0.83345550  1
  C  146  1  0.98704200  0.06549500  0.81880950  1
  C  147  1  0.94140000  0.08347900  0.80485550  1
  C  148  1  0.94330200  0.11622000  0.80594050  1
  C  165  1  0.65559500  0.71429200  0.71164800  1
  C  166  1  0.62130600  0.73071500  0.68939300  1
  C  167  1  0.57109200  0.71684700  0.67534400  1
  C  168  1  0.55498400  0.68563300  0.68205450  1
  C  169  1  0.58831800  0.66968200  0.70517300  1
  C  170  1  0.63792500  0.68373200  0.71964200  1
  C  172  1  0.43894200  0.68895700  0.68387800  1
  C  173  1  0.42685600  0.68238800  0.71561000  1
  C  174  1  0.38078100  0.69790100  0.73162000  1
  C  175  1  0.34710200  0.72152600  0.71686900  1
  C  176  1  0.36142000  0.72951500  0.68583900  1
  C  177  1  0.40675500  0.71358800  0.66965850  1
  C  178  1  0.49179000  0.67455000  0.62714750  1
  C  179  1  0.49099800  0.63171400  0.66940950  1
  C  180  1  0.43794500  0.61591000  0.67825800  1
  C  181  1  0.43554400  0.58317500  0.67894200  1
  C  182  1  0.48596600  0.56538000  0.67036400  1
  C  183  1  0.53857900  0.58077200  0.66081050  1
  C  184  1  0.54066800  0.61346200  0.65990050  1
  C  185  1  0.54348600  0.68111400  0.60923500  1
  C  186  1  0.54098100  0.68194100  0.57651500  1
  C  187  1  0.48701200  0.67569900  0.56044150  1
  C  188  1  0.43563800  0.66847400  0.57823850  1
  C  189  1  0.43817700  0.66750900  0.61092750  1
  C  206  1  0.65547000  0.28337300  0.27760050  1
  C  207  1  0.62125600  0.26697000  0.29987600  1
  C  208  1  0.57112000  0.28085900  0.31394400  1
  C  209  1  0.55498800  0.31206400  0.30720450  1
  C  210  1  0.58823800  0.32799300  0.28406000  1
  C  211  1  0.63777600  0.31392500  0.26958600  1
  C  213  1  0.43894200  0.30876600  0.30533900  1
  C  214  1  0.42676900  0.31533400  0.27360600  1
  C  215  1  0.38063900  0.29982800  0.25759850  1
  C  216  1  0.34698700  0.27620800  0.27235100  1
  C  217  1  0.36140500  0.26820900  0.30337800  1
  C  218  1  0.40679500  0.28413200  0.31955400  1
  C  219  1  0.49182800  0.32319500  0.36207800  1
  C  220  1  0.49107800  0.36600600  0.31979750  1
  C  221  1  0.43803700  0.38182200  0.31091250  1
  C  222  1  0.43565600  0.41455600  0.31024550  1
  C  223  1  0.48610400  0.43234000  0.31885000  1
  C  224  1  0.53872400  0.41693550  0.32840800  1
  C  225  1  0.54078400  0.38424600  0.32931600  1
  C  226  1  0.54350600  0.31662000  0.38003700  1
  C  227  1  0.54096600  0.31575300  0.41275700  1
  C  228  1  0.48700400  0.32204900  0.42878000  1
  C  229  1  0.43566000  0.32930200  0.41093550  1
  C  230  1  0.43821900  0.33026000  0.37824800  1
  C  247  1  0.65598900  0.28187200  0.70997550  1
  C  248  1  0.62178400  0.30413000  0.72641150  1
  C  249  1  0.57155700  0.31818700  0.71256400  1
  C  250  1  0.55530800  0.31144700  0.68137000  1
  C  251  1  0.58856400  0.28832700  0.66540400  1
  C  252  1  0.63818200  0.27385500  0.67943500  1
  C  254  1  0.43927400  0.30955800  0.68473000  1
  C  255  1  0.42713700  0.27782700  0.67814700  1
  C  256  1  0.38113100  0.26179200  0.69368650  1
  C  257  1  0.34753100  0.27652200  0.71733500  1
  C  258  1  0.36188400  0.30755400  0.72532850  1
  C  259  1  0.40717700  0.32375200  0.70938800  1
  C  260  1  0.49200200  0.36631600  0.67030100  1
  C  261  1  0.49120200  0.32405900  0.62747100  1
  C  262  1  0.43814000  0.31516400  0.61167050  1
  C  263  1  0.43567500  0.31450700  0.57893450  1
  C  264  1  0.48606400  0.32311800  0.56114000  1
  C  265  1  0.53869300  0.33269800  0.57652800  1
  C  266  1  0.54083800  0.33359700  0.60921700  1
  C  267  1  0.54368500  0.38428100  0.67681650  1
  C  268  1  0.54109300  0.41700000  0.67767750  1
  C  269  1  0.48706700  0.43301800  0.67145650  1
  C  270  1  0.43572400  0.41516900  0.66424000  1
  C  271  1  0.43833500  0.38248300  0.66327900  1
  C  288  1  0.65586600  0.71585000  0.27918450  1
  C  289  1  0.62157200  0.69360100  0.26276000  1
  C  290  1  0.57142700  0.67953300  0.27663700  1
  C  291  1  0.55532400  0.68626400  0.30784050  1
  C  292  1  0.58865000  0.70938400  0.32379150  1
  C  293  1  0.63821800  0.72384800  0.30974200  1
  C  295  1  0.43929200  0.68816000  0.30448450  1
  C  296  1  0.42719100  0.71989600  0.31104850  1
  C  297  1  0.38112400  0.73592100  0.29551350  1
  C  298  1  0.34739900  0.72116500  0.27190250  1
  C  299  1  0.36171000  0.69012600  0.26392700  1
  C  300  1  0.40707600  0.67394000  0.27985700  1
  C  301  1  0.49205900  0.63139900  0.31894300  1
  C  302  1  0.49131800  0.67368600  0.36174900  1
  C  303  1  0.43824500  0.68254700  0.37751900  1
  C  304  1  0.43580800  0.68322700  0.41025200  1
  C  305  1  0.48621200  0.67463000  0.42807900  1
  C  306  1  0.53884600  0.66506400  0.41272100  1
  C  307  1  0.54097600  0.66416700  0.38003250  1
  C  308  1  0.54373000  0.61345500  0.31238750  1
  C  309  1  0.54117800  0.58073400  0.31154800  1
  C  310  1  0.48719200  0.56470200  0.31778950  1
  C  311  1  0.43584900  0.58253500  0.32500800  1
  C  312  1  0.43842800  0.61522300  0.32596650  1
  C  329  1  0.98015100  0.01472000  0.19831500  1
  C  330  1  0.98001200  0.98202100  0.19845600  1
  C  331  1  0.98404400  0.96525300  0.17028650  1
  C  332  1  0.98695600  0.98199300  0.14198500  1
  C  333  1  0.98660800  0.01496100  0.14121700  1
  C  334  1  0.98329600  0.03142200  0.16999100  1
  C  341  1  0.98016200  0.98302000  0.79085150  1
  C  342  1  0.98005700  0.01571900  0.79071900  1
  C  343  1  0.98423600  0.03248000  0.81889100  1
  C  344  1  0.98725600  0.01573050  0.84718650  1
  C  345  1  0.98688800  0.98276200  0.84794700  1
  C  346  1  0.98341200  0.96631000  0.81917150  1
  C  353  1  0.98020900  0.79510600  0.01044500  1
  C  354  1  0.98007900  0.79497300  0.97774550  1
  C  355  1  0.98414400  0.82314800  0.96098850  1
  C  356  1  0.98706800  0.85144500  0.97773450  1
  C  357  1  0.98671000  0.85220400  0.01070300  1
  C  358  1  0.98337000  0.82342700  0.02715500  1
  C  365  1  0.98009700  0.20262300  0.97873800  1
  C  366  1  0.97986200  0.20274900  0.01143800  1
  C  367  1  0.98392500  0.17457200  0.02819600  1
  C  368  1  0.98695600  0.14627900  0.01144700  1
  C  369  1  0.98671000  0.14552600  0.97847950  1
  C  370  1  0.98336100  0.17430700  0.96202700  1
  C  377  1  0.51087400  0.51633400  0.69490600  1
  C  378  1  0.51164200  0.48365500  0.69548700  1
  C  379  1  0.48505400  0.46620700  0.67125550  1
  C  380  1  0.45746200  0.48257900  0.64649000  1
  C  381  1  0.45629000  0.51554000  0.64528100  1
  C  382  1  0.48342300  0.53247800  0.67005050  1
  C  389  1  0.51094600  0.48139300  0.29432350  1
  C  390  1  0.51171600  0.51407200  0.29375300  1
  C  391  1  0.48521400  0.53151300  0.31799250  1
  C  392  1  0.45773100  0.51513400  0.34276750  1
  C  393  1  0.45654600  0.48217300  0.34396200  1
  C  394  1  0.48357400  0.46524200  0.31917600  1
  C  401  1  0.51079800  0.29856400  0.51209100  1
  C  402  1  0.51153700  0.29799300  0.47941250  1
  C  403  1  0.48504200  0.32224900  0.46196700  1
  C  404  1  0.45757400  0.34703500  0.47834300  1
  C  405  1  0.45643300  0.34823200  0.51130200  1
  C  406  1  0.48347000  0.32343500  0.52823850  1
  C  413  1  0.51096800  0.69916300  0.47715300  1
  C  414  1  0.51165400  0.69974100  0.50983300  1
  C  415  1  0.48508000  0.67550300  0.52725150  1
  C  416  1  0.45760600  0.65072500  0.51084700  1
  C  417  1  0.45650600  0.64952300  0.47788700  1
  C  418  1  0.48362000  0.67430400  0.46097800  1
  C  425  1  0.75897200  0.25296900  0.21617400  1
  C  426  1  0.71031000  0.26793200  0.23039700  1
  C  427  1  0.70567000  0.26913600  0.26314100  1
  C  428  1  0.75177800  0.25565200  0.28122600  1
  C  429  1  0.80189100  0.24093000  0.26739550  1
  C  430  1  0.80478300  0.23919000  0.23426900  1
  C  437  1  0.75943800  0.74463400  0.77302450  1
  C  438  1  0.71068600  0.72969500  0.75882350  1
  C  439  1  0.70588600  0.72850200  0.72608250  1
  C  440  1  0.75191700  0.74197900  0.70797350  1
  C  441  1  0.80209200  0.75670200  0.72178150  1
  C  442  1  0.80516600  0.75841600  0.75490400  1
  C  449  1  0.75945100  0.77726400  0.24879700  1
  C  450  1  0.71079600  0.76304700  0.26377100  1
  C  451  1  0.70608400  0.73030300  0.26496050  1
  C  452  1  0.75211800  0.71221400  0.25145450  1
  C  453  1  0.80222200  0.72603800  0.23671900  1
  C  454  1  0.80518400  0.75916400  0.23499050  1
  C  461  1  0.75980200  0.22048500  0.74028750  1
  C  462  1  0.71103800  0.23469000  0.72536200  1
  C  463  1  0.70629800  0.26743400  0.72416400  1
  C  464  1  0.75240900  0.28553600  0.73761550  1
  C  465  1  0.80259400  0.27172400  0.75232600  1
  C  466  1  0.80559600  0.23860000  0.75405400  1
  C  473  1  0.24745900  0.75353400  0.20970400  1
  C  474  1  0.29587100  0.73857800  0.22423100  1
  C  475  1  0.29935800  0.73692200  0.25699700  1
  C  476  1  0.25278500  0.75031500  0.27478650  1
  C  477  1  0.20283900  0.76493800  0.26065750  1
  C  478  1  0.20078400  0.76684300  0.22751600  1
  C  485  1  0.24788400  0.24411800  0.77957000  1
  C  486  1  0.29623400  0.25907600  0.76502400  1
  C  487  1  0.29955900  0.26075800  0.73225650  1
  C  488  1  0.25288500  0.24738600  0.71448450  1
  C  489  1  0.20301700  0.23275200  0.72863450  1
  C  490  1  0.20111900  0.23082300  0.76177350  1
  C  497  1  0.24704300  0.21402300  0.23999400  1
  C  498  1  0.29547200  0.22854500  0.25494250  1
  C  499  1  0.29892200  0.26131200  0.25660700  1
  C  500  1  0.25228900  0.27910500  0.24323250  1
  C  501  1  0.20233200  0.26498100  0.22861900  1
  C  502  1  0.20031400  0.23184100  0.22670300  1
  C  509  1  0.24739600  0.78375300  0.74926900  1
  C  510  1  0.29573600  0.76921000  0.73430000  1
  C  511  1  0.29911600  0.73644200  0.73262300  1
  C  512  1  0.25250800  0.71866800  0.74601250  1
  C  513  1  0.20265000  0.73281600  0.76066100  1
  C  514  1  0.20069800  0.76595600  0.76258200  1
  H  26  1  0.89733100  0.07113700  0.15278400  1
  H  27  1  0.90186600  0.12651400  0.15162100  1
  H  28  1  0.07292700  0.06770200  0.18897000  1
  H  29  1  0.07836700  0.12287000  0.18783800  1
  H  30  1  0.07244400  0.14827500  0.11973200  1
  H  31  1  0.06860800  0.14980000  0.06452600  1
  H  32  1  0.90465000  0.19853300  0.06847700  1
  H  33  1  0.90703200  0.19652400  0.12366600  1
  H  34  1  0.96142900  0.23299400  0.16688700  1
  H  35  1  0.88669000  0.26134500  0.19440150  1
  H  36  1  0.82786800  0.17830600  0.23720950  1
  H  37  1  0.90296200  0.14986800  0.21066200  1
  H  38  1  0.03745900  0.16845900  0.22809700  1
  H  39  1  0.08787500  0.20865300  0.14179700  1
  H  40  1  0.17037200  0.23314100  0.16643200  1
  H  41  1  0.11958300  0.19389200  0.25258800  1
  H  67  1  0.89753900  0.92655500  0.83634500  1
  H  68  1  0.90219200  0.87118300  0.83753250  1
  H  69  1  0.07305400  0.93007300  0.80019500  1
  H  70  1  0.07860900  0.87491200  0.80134750  1
  H  71  1  0.07273100  0.84950500  0.86954950  1
  H  72  1  0.06883700  0.84797200  0.92475250  1
  H  73  1  0.90502200  0.79911500  0.92061450  1
  H  74  1  0.90746600  0.80112900  0.86543600  1
  H  75  1  0.96203800  0.76471200  0.82224500  1
  H  76  1  0.88729600  0.73631000  0.79473200  1
  H  77  1  0.82805600  0.81932300  0.75198500  1
  H  78  1  0.90315800  0.84781200  0.77853000  1
  H  79  1  0.03774800  0.82925500  0.76111100  1
  H  80  1  0.08844000  0.78918800  0.84745800  1
  H  81  1  0.17094700  0.76473100  0.82286250  1
  H  82  1  0.11987000  0.80385500  0.73665950  1
  H  108  1  0.89746200  0.84061000  0.06687000  1
  H  109  1  0.90209200  0.84179100  0.12224500  1
  H  110  1  0.07303400  0.80446500  0.06343500  1
  H  111  1  0.07856300  0.80561100  0.11859500  1
  H  112  1  0.07263300  0.87377800  0.14398300  1
  H  113  1  0.06873300  0.92898200  0.14550100  1
  H  114  1  0.90492200  0.92491300  0.19430300  1
  H  115  1  0.90737200  0.86973400  0.19230200  1
  H  116  1  0.96192600  0.82653200  0.22874400  1
  H  117  1  0.88722700  0.79901900  0.25712100  1
  H  118  1  0.82808000  0.75623800  0.17409500  1
  H  119  1  0.90313700  0.78278700  0.14563200  1
  H  120  1  0.03773600  0.76537100  0.16422100  1
  H  121  1  0.08832000  0.85170800  0.20432300  1
  H  122  1  0.17089300  0.82711400  0.22878000  1
  H  123  1  0.11993200  0.74091900  0.18962100  1
  H  149  1  0.89755000  0.15715500  0.92218600  1
  H  150  1  0.90233400  0.15596000  0.86682100  1
  H  151  1  0.07315100  0.19324200  0.92588150  1
  H  152  1  0.07883700  0.19207700  0.87072700  1
  H  153  1  0.07291400  0.12392800  0.84529650  1
  H  154  1  0.06895700  0.06872500  0.84375900  1
  H  155  1  0.90517800  0.07285500  0.79480500  1
  H  156  1  0.90769600  0.12803300  0.79681500  1
  H  157  1  0.96229600  0.17120000  0.76042000  1
  H  158  1  0.88760600  0.19872300  0.73198300  1
  H  159  1  0.82855400  0.24155800  0.81495400  1
  H  160  1  0.90359400  0.21500300  0.84347400  1
  H  161  1  0.03821000  0.23234800  0.82504600  1
  H  162  1  0.08862800  0.14599200  0.78495800  1
  H  163  1  0.17120600  0.17055600  0.76053950  1
  H  164  1  0.12041300  0.25677100  0.79967600  1
  H  190  1  0.39645700  0.57243100  0.68523000  1
  H  191  1  0.39962400  0.62779800  0.68352500  1
  H  192  1  0.57526800  0.56831500  0.65379700  1
  H  193  1  0.57935100  0.62366600  0.65215300  1
  H  194  1  0.58431000  0.68434900  0.61951000  1
  H  195  1  0.57970200  0.68608200  0.56446650  1
  H  196  1  0.39570600  0.66372400  0.56753700  1
  H  197  1  0.39993200  0.66154200  0.62265800  1
  H  198  1  0.41579300  0.72056400  0.64738750  1
  H  199  1  0.33804500  0.74659800  0.67447500  1
  H  200  1  0.37248400  0.69202200  0.75432200  1
  H  201  1  0.45036700  0.66561800  0.72738700  1
  H  202  1  0.57673200  0.64777800  0.71230500  1
  H  203  1  0.54703400  0.72988800  0.65975600  1
  H  204  1  0.63173800  0.75324300  0.68376750  1
  H  205  1  0.66139600  0.67129400  0.73592400  1
  H  231  1  0.39655200  0.42531300  0.30397200  1
  H  232  1  0.39967300  0.36994500  0.30567850  1
  H  233  1  0.57543400  0.42938400  0.33544000  1
  H  234  1  0.57946800  0.37403000  0.33708100  1
  H  235  1  0.58432500  0.31335200  0.36979900  1
  H  236  1  0.57968400  0.31163500  0.42484150  1
  H  237  1  0.39572900  0.33407500  0.42159750  1
  H  238  1  0.39998600  0.33623900  0.36648400  1
  H  239  1  0.41589600  0.27715100  0.34182700  1
  H  240  1  0.33804600  0.25113600  0.31474600  1
  H  241  1  0.37226100  0.30571700  0.23490200  1
  H  242  1  0.45024800  0.33210700  0.26183150  1
  H  243  1  0.57662500  0.34989000  0.27690950  1
  H  244  1  0.54711600  0.26783400  0.32955000  1
  H  245  1  0.63172700  0.24445100  0.30553050  1
  H  246  1  0.66118600  0.32634900  0.25328550  1
  H  272  1  0.39656900  0.30820900  0.56819150  1
  H  273  1  0.39982400  0.30991200  0.62355950  1
  H  274  1  0.57536700  0.33972600  0.56407100  1
  H  275  1  0.57953200  0.34136500  0.61942200  1
  H  276  1  0.58452000  0.37404200  0.68009050  1
  H  277  1  0.57979400  0.42908600  0.68181700  1
  H  278  1  0.39575100  0.42583000  0.65950350  1
  H  279  1  0.40009500  0.37071600  0.65732950  1
  H  280  1  0.41626400  0.34601900  0.71638150  1
  H  281  1  0.33857900  0.31890200  0.74243500  1
  H  282  1  0.37280200  0.23909200  0.68779950  1
  H  283  1  0.45062200  0.26605900  0.66137350  1
  H  284  1  0.57685800  0.28116400  0.64352200  1
  H  285  1  0.54755000  0.33377200  0.72561500  1
  H  286  1  0.63233400  0.30978100  0.74892500  1
  H  287  1  0.66158900  0.25757200  0.66698850  1
  H  313  1  0.39670100  0.68951800  0.42097100  1
  H  314  1  0.39992900  0.68781300  0.36560700  1
  H  315  1  0.57553000  0.65804600  0.42520100  1
  H  316  1  0.57966900  0.65640600  0.36985100  1
  H  317  1  0.58456600  0.62369900  0.30916250  1
  H  318  1  0.57988400  0.56865500  0.30743500  1
  H  319  1  0.39590300  0.57186500  0.32974800  1
  H  320  1  0.40020000  0.62698300  0.33192200  1
  H  321  1  0.41612100  0.65166600  0.27288200  1
  H  322  1  0.33831800  0.67876400  0.24684600  1
  H  323  1  0.37281200  0.75862250  0.30139400  1
  H  324  1  0.45075000  0.73167200  0.32780400  1
  H  325  1  0.57707200  0.71652500  0.34569000  1
  H  326  1  0.54735800  0.66395300  0.26359400  1
  H  327  1  0.63201600  0.68795000  0.24024050  1
  H  328  1  0.66168800  0.74013000  0.32217950  1
  H  335  1  0.97798600  0.02623900  0.21918200  1
  H  336  1  0.97868700  0.97057500  0.21936600  1
  H  337  1  0.98955400  0.96989300  0.12145700  1
  H  339  1  0.99388100  0.01756700  0.09379900  1
  H  340  1  0.99306600  0.05193800  0.11122300  1
  H  347  1  0.97790800  0.97150500  0.76998350  1
  H  348  1  0.97866000  0.02716800  0.76981250  1
  H  349  1  0.98995500  0.02782400  0.86771700  1
  H  351  1  0.99430600  0.98014400  0.89536300  1
  H  352  1  0.99335000  0.94577600  0.87793450  1
  H  359  1  0.97803400  0.77423600  0.02195900  1
  H  360  1  0.97874500  0.77406400  0.96629700  1
  H  361  1  0.98968600  0.87197500  0.96564000  1
  H  363  1  0.99401600  0.89962300  0.01332400  1
  H  364  1  0.99316500  0.88219100  0.04769000  1
  H  371  1  0.97792200  0.22349400  0.96722600  1
  H  372  1  0.97846000  0.22365300  0.02289000  1
  H  373  1  0.98957400  0.12574650  0.02354150  1
  H  375  1  0.99403200  0.09810900  0.97585950  1
  H  376  1  0.99325200  0.11554550  0.94149400  1
  H  383  1  0.53070600  0.52823800  0.71284000  1
  H  384  1  0.53149000  0.47271000  0.71398600  1
  H  385  1  0.43930500  0.47024800  0.62837600  1
  H  387  1  0.41239600  0.51753300  0.60351300  1
  H  388  1  0.42921100  0.55215200  0.61809800  1
  H  395  1  0.53070800  0.46949300  0.27637950  1
  H  396  1  0.53149000  0.52502200  0.27525050  1
  H  397  1  0.43961000  0.52746300  0.36087800  1
  H  399  1  0.41276700  0.48016600  0.38572900  1
  H  400  1  0.42949700  0.44555100  0.37111950  1
  H  407  1  0.53056400  0.28061000  0.52399300  1
  H  408  1  0.53129300  0.27947800  0.46846450  1
  H  409  1  0.43948400  0.36516300  0.46601350  1
  H  411  1  0.41270900  0.39003200  0.51330500  1
  H  412  1  0.42947700  0.37541600  0.54792100  1
  H  419  1  0.53078300  0.71710500  0.46527200  1
  H  420  1  0.53142600  0.71824700  0.52080200  1
  H  421  1  0.43943500  0.63261300  0.52315950  1
  H  423  1  0.41266700  0.60775800  0.47584200  1
  H  424  1  0.42951400  0.62235700  0.44124100  1
  H  431  1  0.75976900  0.25156700  0.19235500  1
  H  432  1  0.67719500  0.27697200  0.21659600  1
  H  433  1  0.74933400  0.25706600  0.30501600  1
  H  435  1  0.84321400  0.23165500  0.30888500  1
  H  436  1  0.88254800  0.22093500  0.27804500  1
  H  443  1  0.76032000  0.74605500  0.79684100  1
  H  444  1  0.67762000  0.72066700  0.77264100  1
  H  445  1  0.74934200  0.74058600  0.68418700  1
  H  447  1  0.84312200  0.76608600  0.68026700  1
  H  448  1  0.88262400  0.77679800  0.71107900  1
  H  455  1  0.76029700  0.80108300  0.24740200  1
  H  456  1  0.67773200  0.77685200  0.27282250  1
  H  457  1  0.74962000  0.68842300  0.25285550  1
  H  459  1  0.84342600  0.68454300  0.22741200  1
  H  460  1  0.88280200  0.71537900  0.21669000  1
  H  467  1  0.76063300  0.19666700  0.74171900  1
  H  468  1  0.67791800  0.22087600  0.71635300  1
  H  469  1  0.74987800  0.30932500  0.73621700  1
  H  471  1  0.84373500  0.31323300  0.76168300  1
  H  472  1  0.88319800  0.28241500  0.77239600  1
  H  479  1  0.24682600  0.75473800  0.18587400  1
  H  480  1  0.32905500  0.72931000  0.21065400  1
  H  481  1  0.25416800  0.74838000  0.29856600  1
  H  483  1  0.16015300  0.77344000  0.30191950  1
  H  484  1  0.12134000  0.78423100  0.27092300  1
  H  491  1  0.24736100  0.24289800  0.80339800  1
  H  492  1  0.32948700  0.26833000  0.77858900  1
  H  493  1  0.25417500  0.24932400  0.69070600  1
  H  495  1  0.16020200  0.22420700  0.68738300  1
  H  496  1  0.12153100  0.21338200  0.71838300  1
  H  503  1  0.24644200  0.19019400  0.23877900  1
  H  504  1  0.32869500  0.21496400  0.26419500  1
  H  505  1  0.25364900  0.30288400  0.24517300  1
  H  507  1  0.15957400  0.30624500  0.22013500  1
  H  508  1  0.12077900  0.27525300  0.20934500  1
  H  515  1  0.24684000  0.80758400  0.75048700  1
  H  516  1  0.32894500  0.78277800  0.72503650  1
  H  517  1  0.25384100  0.69488900  0.74408450  1
  H  519  1  0.15993300  0.69156300  0.76923250  1
  H  520  1  0.12123600  0.72256300  0.78006300  1
  N  338  1  0.99092400  0.02942800  0.11306900  1
  N  350  1  0.99131600  0.96828800  0.87608900  1
  N  362  1  0.99104000  0.88035100  0.02517900  1
  N  374  1  0.99113200  0.11738700  0.96400300  1
  N  386  1  0.43027500  0.52964100  0.62028800  1
  N  398  1  0.43060200  0.46806300  0.36895150  1
  N  410  1  0.43053100  0.37323800  0.52540950  1
  N  422  1  0.43056200  0.62453300  0.46375400  1
  N  434  1  0.84567400  0.22956300  0.28633950  1
  N  446  1  0.84577200  0.76808700  0.70281800  1
  N  458  1  0.84593000  0.70709000  0.22532800  1
  N  470  1  0.84634500  0.29068200  0.76369150  1
  N  482  1  0.15817500  0.77570000  0.27937450  1
  N  494  1  0.15826700  0.22199700  0.70993400  1
  N  506  1  0.15761900  0.28370100  0.21786950  1
  N  518  1  0.15796400  0.71411200  0.77143750  1
  Si  7  1  0.99356300  0.16929400  0.16639800  1
  Si  48  1  0.99394800  0.82843900  0.82279300  1
  Si  89  1  0.99385900  0.82705400  0.16502900  1
  Si  130  1  0.99421000  0.17067900  0.82416950  1
  Si  171  1  0.49414500  0.67030400  0.66570150  1
  Si  212  1  0.49418500  0.32741800  0.32352400  1
  Si  253  1  0.49441800  0.32776500  0.66606000  1
  Si  294  1  0.49447800  0.66995500  0.32316250  1
