# generated using pymatgen
data_H11C17(N2O)2
_symmetry_space_group_name_H-M   'P 1'
_cell_length_a   15.81170000
_cell_length_b   27.38666775
_cell_length_c   47.43510000
_cell_angle_alpha   90.00000000
_cell_angle_beta   90.00000000
_cell_angle_gamma   90.00000000
_symmetry_Int_Tables_number   1
_chemical_formula_structural   H11C17(N2O)2
_chemical_formula_sum   'H132 C204 N48 O24'
_cell_volume   20540.81065764
_cell_formula_units_Z   12
loop_
 _symmetry_equiv_pos_site_id
 _symmetry_equiv_pos_as_xyz
  1  'x, y, z'
loop_
 _atom_site_type_symbol
 _atom_site_label
 _atom_site_symmetry_multiplicity
 _atom_site_fract_x
 _atom_site_fract_y
 _atom_site_fract_z
 _atom_site_occupancy
  C  1  1  0.04775600  0.03045000  0.02614800  1
  C  2  1  0.02973600  0.02850300  0.05570000  1
  C  3  1  0.07303300  0.02926600  0.39591400  1
  C  4  1  0.06496500  0.00769200  0.33801600  1
  C  5  1  0.06046900  0.99692200  0.30854200  1
  C  6  1  0.53489900  0.50394200  0.15075200  1
  C  7  1  0.53034400  0.50178400  0.12108000  1
  C  11  1  0.17597600  0.88719700  0.54302400  1
  C  14  1  0.79367100  0.22358400  0.62958900  1
  C  16  1  0.54111700  0.53170300  0.02471800  1
  C  17  1  0.52306800  0.52772300  0.05421700  1
  C  18  1  0.57272200  0.52962600  0.39543100  1
  C  19  1  0.56490300  0.50780100  0.33753500  1
  C  20  1  0.56046200  0.49696000  0.30805500  1
  C  21  1  0.03845300  0.00426400  0.15150600  1
  C  22  1  0.03598000  0.00229300  0.12184500  1
  C  24  1  0.56363700  0.50263100  0.83389600  1
  C  27  1  0.67644800  0.38702700  0.54299900  1
  C  30  1  0.29293000  0.72393500  0.62932100  1
  C  32  1  0.99850700  0.02906400  0.97628800  1
  C  33  1  0.53494700  0.48499400  0.38755300  1
  C  34  1  0.03882600  0.00829900  0.21097000  1
  C  35  1  0.03197100  0.00463600  0.24059800  1
  C  37  1  0.48068300  0.53163000  0.50128900  1
  C  39  1  0.49250200  0.53360600  0.97470100  1
  C  40  1  0.03497400  0.98474000  0.38797000  1
  C  41  1  0.53822900  0.50809300  0.21031100  1
  C  42  1  0.53224900  0.50449700  0.23999300  1
  C  43  1  0.97928600  0.03169800  0.50142000  1
  C  47  1  0.13339900  0.03559600  0.01699300  1
  C  48  1  0.09624000  0.03188600  0.07598300  1
  C  49  1  0.08312700  0.03631300  0.96788700  1
  C  52  1  0.08735800  0.03192200  0.28815000  1
  C  53  1  0.10413000  0.05212700  0.34691800  1
  C  54  1  0.10425800  0.06241500  0.37604000  1
  C  57  1  0.24188600  0.88030300  0.56659300  1
  C  61  1  0.62673100  0.53802400  0.01581300  1
  C  62  1  0.58947500  0.53068100  0.07463100  1
  C  63  1  0.57626300  0.54519100  0.96701400  1
  C  66  1  0.58748100  0.53186000  0.28759700  1
  C  67  1  0.60400800  0.55226400  0.34640200  1
  C  68  1  0.60387000  0.56271100  0.37551100  1
  C  71  1  0.74215300  0.38008900  0.56662500  1
  C  75  1  0.09576400  0.03716700  0.19467800  1
  C  76  1  0.59439400  0.53689200  0.19367000  1
  C  77  1  0.49826600  0.51474200  0.78768300  1
  C  78  1  0.17905000  0.04048100  0.06611000  1
  C  79  1  0.14792300  0.04126300  0.98777100  1
  C  80  1  0.12788600  0.07454900  0.29784900  1
  C  81  1  0.14014300  0.08464700  0.32670600  1
  C  84  1  0.91754900  0.26393500  0.61645100  1
  C  86  1  0.67243200  0.53943300  0.06488900  1
  C  87  1  0.64113100  0.54794500  0.98701400  1
  C  88  1  0.62801900  0.57449400  0.29730500  1
  C  89  1  0.64016400  0.58468500  0.32616400  1
  C  92  1  0.41718900  0.76417400  0.61640500  1
  C  94  1  0.15394900  0.06980000  0.20519900  1
  C  97  1  0.65298000  0.56953500  0.20395100  1
  C  100  1  0.03140100  0.01079200  0.84169600  1
  C  101  1  0.49520900  0.51528300  0.90660300  1
  C  102  1  0.99538300  0.01432100  0.79066600  1
  C  104  1  0.69346100  0.53953200  0.03598600  1
  C  105  1  0.94397200  0.02665800  0.06382700  1
  C  107  1  0.98031600  0.02834700  0.00581300  1
  C  109  1  0.93265100  0.02549300  0.95592600  1
  C  110  1  0.84848500  0.02272900  0.96594800  1
  C  111  1  0.82735600  0.02591400  0.99472800  1
  C  112  1  0.89418600  0.02650200  0.01486700  1
  C  114  1  0.87862700  0.02403900  0.04407700  1
  C  121  1  0.95173900  0.00529500  0.69162100  1
  C  122  1  0.89837200  0.04462200  0.68289100  1
  C  123  1  0.86421500  0.07760100  0.70315100  1
  C  124  1  0.87702200  0.06745600  0.73198400  1
  C  125  1  0.93232300  0.03047100  0.74144500  1
  C  126  1  0.96996300  0.99908000  0.72097300  1
  C  127  1  0.87404900  0.04625100  0.65427800  1
  C  128  1  0.50976900  0.45618100  0.72895600  1
  C  130  1  0.48137800  0.47087100  0.67103100  1
  C  131  1  0.46767400  0.47849500  0.64153600  1
  C  132  1  0.50648000  0.44740300  0.62113700  1
  C  133  1  0.54973200  0.40570400  0.63093000  1
  C  134  1  0.55883300  0.39460700  0.65980700  1
  C  135  1  0.52829800  0.42903300  0.67997400  1
  C  136  1  0.90901700  0.01472300  0.63421400  1
  C  138  1  0.54384300  0.42396500  0.70909600  1
  C  147  1  0.53242100  0.47384700  0.35806000  1
  C  148  1  0.49922300  0.42785400  0.34914300  1
  C  149  1  0.46756300  0.39389500  0.36930500  1
  C  150  1  0.47740600  0.40457600  0.39821000  1
  C  151  1  0.50585900  0.45039400  0.40796400  1
  C  153  1  0.50737200  0.41554800  0.32038100  1
  C  155  1  0.53622300  0.44923300  0.30040000  1
  C  164  1  0.47886700  0.47605900  0.16738200  1
  C  170  1  0.11217000  0.15111100  0.20694500  1
  C  171  1  0.08047200  0.18949000  0.22819000  1
  C  180  1  0.48641800  0.51622100  0.87693100  1
  C  181  1  0.97385600  0.01895800  0.81937300  1
  C  183  1  0.41464000  0.52937000  0.86038900  1
  C  184  1  0.33634600  0.54183600  0.87078000  1
  C  187  1  0.23540000  0.48015600  0.87277000  1
  C  188  1  0.19582900  0.44413500  0.89392700  1
  C  196  1  0.99595300  0.98469700  0.54398400  1
  C  199  1  0.49311400  0.49000000  0.48430000  1
  C  201  1  0.01007500  0.94241000  0.52708000  1
  C  202  1  0.02851500  0.89659200  0.53775000  1
  C  206  1  0.99306900  0.98907500  0.57368900  1
  C  208  1  0.49257000  0.49403900  0.45465300  1
  C  210  1  0.91814300  0.53033800  0.01026700  1
  C  212  1  0.54504000  0.05499300  0.03869300  1
  C  213  1  0.60052400  0.03985600  0.01709200  1
  C  215  1  0.97391200  0.51622900  0.98815500  1
  C  216  1  0.94694500  0.49670400  0.96292300  1
  C  220  1  0.94373800  0.41390900  0.95130000  1
  C  221  1  0.92732600  0.39037600  0.98040500  1
  C  227  1  0.82931600  0.52624100  0.00894900  1
  C  229  1  0.68869200  0.04382200  0.01993900  1
  C  231  1  0.76131700  0.19344900  0.67746700  1
  C  233  1  0.66508300  0.24154500  0.70505900  1
  C  234  1  0.65640600  0.27580600  0.68301400  1
  C  236  1  0.75256200  0.22776200  0.65510200  1
  C  239  1  0.96334200  0.26845300  0.64512000  1
  C  243  1  0.81274000  0.15141000  0.67614100  1
  C  245  1  0.60566400  0.31770900  0.68573300  1
  C  247  1  0.34224000  0.28587200  0.34362300  1
  C  249  1  0.31804900  0.21396000  0.37138600  1
  C  250  1  0.26996500  0.19270800  0.34953300  1
  C  252  1  0.29385300  0.26465100  0.32147300  1
  C  253  1  0.27904000  0.28746100  0.29599200  1
  C  257  1  0.15878000  0.33148300  0.28309600  1
  C  258  1  0.13345200  0.35503300  0.31147600  1
  C  264  1  0.38052900  0.33230100  0.34217300  1
  C  266  1  0.23222800  0.14651700  0.35244800  1
  C  268  1  0.19999000  0.03882100  0.03719700  1
  C  269  1  0.43720900  0.52445500  0.06209900  1
  C  271  1  0.47397100  0.53070600  0.00418600  1
  C  273  1  0.42667000  0.52939900  0.95424800  1
  C  274  1  0.34242900  0.52831800  0.96394700  1
  C  275  1  0.32100200  0.52964400  0.99279500  1
  C  276  1  0.38770000  0.52808800  0.01304800  1
  C  278  1  0.37205300  0.52314800  0.04217200  1
  C  285  1  0.44658500  0.50417900  0.69149300  1
  C  286  1  0.39427600  0.54378200  0.68252200  1
  C  287  1  0.35881500  0.57654600  0.70265500  1
  C  288  1  0.36979000  0.56632600  0.73157500  1
  C  289  1  0.42444300  0.52929000  0.74135900  1
  C  290  1  0.46187900  0.49740200  0.72099400  1
  C  291  1  0.37217200  0.54587100  0.65372100  1
  C  292  1  0.02133200  0.95922800  0.72874600  1
  C  294  1  0.98492800  0.97168700  0.67108200  1
  C  295  1  0.96882000  0.97880300  0.64168100  1
  C  296  1  0.00627400  0.94746700  0.62115200  1
  C  297  1  0.04968500  0.90574200  0.63078400  1
  C  298  1  0.06084700  0.89518600  0.65964100  1
  C  299  1  0.03274000  0.93011900  0.67988700  1
  C  300  1  0.40849000  0.51458500  0.63379300  1
  C  302  1  0.05266200  0.92624100  0.70879200  1
  C  311  1  0.03244400  0.97366600  0.35847900  1
  C  312  1  0.99921500  0.92770600  0.34951100  1
  C  313  1  0.96742900  0.89370000  0.36962300  1
  C  314  1  0.97717500  0.90431800  0.39853600  1
  C  315  1  0.00565900  0.95011100  0.40831600  1
  C  317  1  0.00750100  0.91545500  0.32075000  1
  C  319  1  0.03636400  0.94920500  0.30081800  1
  C  328  1  0.98152000  0.97633100  0.16775400  1
  C  334  1  0.61199600  0.65094000  0.20642400  1
  C  335  1  0.58083300  0.68887400  0.22802300  1
  C  344  1  0.92337700  0.02613200  0.87625300  1
  C  345  1  0.49329900  0.51620700  0.81736400  1
  C  347  1  0.86467500  0.03279300  0.85381100  1
  C  348  1  0.77928700  0.03984200  0.85784200  1
  C  351  1  0.66629000  0.98522200  0.86378900  1
  C  352  1  0.70313800  0.95168400  0.88696600  1
  C  358  1  0.89920500  0.02945200  0.90487300  1
  C  360  1  0.49743400  0.48458200  0.54384900  1
  C  363  1  0.99216200  0.99006400  0.48447700  1
  C  365  1  0.51097500  0.44227300  0.52690800  1
  C  366  1  0.52906200  0.39640800  0.53757300  1
  C  370  1  0.49471600  0.48898500  0.57357100  1
  C  372  1  0.99178500  0.99397500  0.45484300  1
  C  374  1  0.42476500  0.02916700  0.01178200  1
  C  376  1  0.03851600  0.55483100  0.03766000  1
  C  377  1  0.09416300  0.54090500  0.01583000  1
  C  379  1  0.48020200  0.01457000  0.98969400  1
  C  380  1  0.45247300  0.99549000  0.96443200  1
  C  384  1  0.44599400  0.91335900  0.95172600  1
  C  385  1  0.42780500  0.88896400  0.98047500  1
  C  391  1  0.33616100  0.02417200  0.01070800  1
  C  393  1  0.18237800  0.54518400  0.01855100  1
  C  395  1  0.25926400  0.69326700  0.67700800  1
  C  397  1  0.16422600  0.74175800  0.70483500  1
  C  398  1  0.15639000  0.77631100  0.68292700  1
  C  400  1  0.25147100  0.72792600  0.65479000  1
  C  403  1  0.46284900  0.76833300  0.64511300  1
  C  407  1  0.30980200  0.65091100  0.67556100  1
  C  409  1  0.10697100  0.81868200  0.68577700  1
  C  411  1  0.84215900  0.78583400  0.34367000  1
  C  413  1  0.81792600  0.71366400  0.37120800  1
  C  414  1  0.77000500  0.69257700  0.34926300  1
  C  416  1  0.79392500  0.76477600  0.32143100  1
  C  417  1  0.77923400  0.78775800  0.29599200  1
  C  421  1  0.65890400  0.83171000  0.28308800  1
  C  422  1  0.63339700  0.85510500  0.31149300  1
  C  428  1  0.88041200  0.83228700  0.34236700  1
  C  430  1  0.73230400  0.64634300  0.35200300  1
  H  9  1  0.09331100  0.00239100  0.83783200  1
  H  10  1  0.05479400  0.00279700  0.78548000  1
  H  12  1  0.68034900  0.35599300  0.52852000  1
  H  13  1  0.72915700  0.34652000  0.57824900  1
  H  25  1  0.61979100  0.49238800  0.82499100  1
  H  26  1  0.55471000  0.50463500  0.77899700  1
  H  28  1  0.17962700  0.85607600  0.52860300  1
  H  29  1  0.22886900  0.84681600  0.57829400  1
  H  36  1  0.55184100  0.50339000  0.91433800  1
  H  38  1  0.46952800  0.56531100  0.49276200  1
  H  44  1  0.96794100  0.06533100  0.49286300  1
  H  50  1  0.09847900  0.04061800  0.94707600  1
  H  55  1  0.08343900  0.03783000  0.41643900  1
  H  58  1  0.19105400  0.92062500  0.53142300  1
  H  59  1  0.23984700  0.91120100  0.58113300  1
  H  60  1  0.93991100  0.23143600  0.60524600  1
  H  64  1  0.59051600  0.55628400  0.94708600  1
  H  69  1  0.58293700  0.53833400  0.41594300  1
  H  72  1  0.69153700  0.42053600  0.53147600  1
  H  73  1  0.73984800  0.41090400  0.58122000  1
  H  74  1  0.43940900  0.73173100  0.60511300  1
  H  82  1  0.12477400  0.09493900  0.38361700  1
  H  83  1  0.30519200  0.87790400  0.55752400  1
  H  85  1  0.95223700  0.23600400  0.65795200  1
  H  90  1  0.62410300  0.59533300  0.38304100  1
  H  91  1  0.80555600  0.37782600  0.55761900  1
  H  93  1  0.45138000  0.73582400  0.65785100  1
  H  95  1  0.06461600  0.14691000  0.19033100  1
  H  96  1  0.02127000  0.17737100  0.23776900  1
  H  98  1  0.56419900  0.64723700  0.18985100  1
  H  99  1  0.52169100  0.67664900  0.23759800  1
  H  103  1  0.83768400  0.03791400  0.90874700  1
  H  106  1  0.22732600  0.04163300  0.08058800  1
  H  113  1  0.79990100  0.02034100  0.95183600  1
  H  115  1  0.20517100  0.05193500  0.98022000  1
  H  116  1  0.81956700  0.01872800  0.05186600  1
  H  117  1  0.92610000  0.02960800  0.08434200  1
  H  129  1  0.85219700  0.09116700  0.74658700  1
  H  137  1  0.57476500  0.38201700  0.61636000  1
  H  139  1  0.88420600  0.01603400  0.61440600  1
  H  140  1  0.82586900  0.06812900  0.64769000  1
  H  141  1  0.58236600  0.39745600  0.71668900  1
  H  142  1  0.51749200  0.44675300  0.74949600  1
  H  154  1  0.45384200  0.38014800  0.41265000  1
  H  156  1  0.15066700  0.09891800  0.28323800  1
  H  157  1  0.54607000  0.43649600  0.28049900  1
  H  158  1  0.49859200  0.38062600  0.31361000  1
  H  167  1  0.43506800  0.45324200  0.15855800  1
  H  173  1  0.17118300  0.16422400  0.19753700  1
  H  175  1  0.06955600  0.22420800  0.21749700  1
  H  176  1  0.12738600  0.19497000  0.24477700  1
  H  178  1  0.98533900  0.98254600  0.24829500  1
  H  179  1  0.48678400  0.47863700  0.11248200  1
  H  189  1  0.26404300  0.45925600  0.85555900  1
  H  190  1  0.18527300  0.50340100  0.86419400  1
  H  191  1  0.24459800  0.42029900  0.90267800  1
  H  192  1  0.14838200  0.42167200  0.88339100  1
  H  193  1  0.16557700  0.46406500  0.91111500  1
  H  207  1  0.98393000  0.02332600  0.58165000  1
  H  209  1  0.48067500  0.52770500  0.44630700  1
  H  217  1  0.56700300  0.06980000  0.05706900  1
  H  222  1  0.98182300  0.38841800  0.93896400  1
  H  223  1  0.88383200  0.41881600  0.94005800  1
  H  224  1  0.98685200  0.38603000  0.99177900  1
  H  225  1  0.89826900  0.35453300  0.97769000  1
  H  226  1  0.88480500  0.41312000  0.99289000  1
  H  228  1  0.80296600  0.51062400  0.99153400  1
  H  230  1  0.71185600  0.06045700  0.03753600  1
  H  237  1  0.63399300  0.24570700  0.72379800  1
  H  240  1  0.93504100  0.29557300  0.60371200  1
  H  241  1  0.94032900  0.30046500  0.65647000  1
  H  242  1  0.03130500  0.27227400  0.64175700  1
  H  244  1  0.84824500  0.14588500  0.65849400  1
  H  246  1  0.57169600  0.32185900  0.70382900  1
  H  254  1  0.32787600  0.19630000  0.39008500  1
  H  259  1  0.10092000  0.32499500  0.27109900  1
  H  260  1  0.19742500  0.35699000  0.27083100  1
  H  261  1  0.09570100  0.32946100  0.32384500  1
  H  262  1  0.09618900  0.38792900  0.30767100  1
  H  263  1  0.18962500  0.36506200  0.32352000  1
  H  265  1  0.37083100  0.35303200  0.32462500  1
  H  267  1  0.24337700  0.12742800  0.37051100  1
  H  270  1  0.72075700  0.53993300  0.07936200  1
  H  277  1  0.29451700  0.52742700  0.94932500  1
  H  279  1  0.69799300  0.56080900  0.98018600  1
  H  280  1  0.31296400  0.51711200  0.04972300  1
  H  281  1  0.41901900  0.52545600  0.08261400  1
  H  293  1  0.34502800  0.59035900  0.74601300  1
  H  301  1  0.07344000  0.88173800  0.61615200  1
  H  303  1  0.38506100  0.51623600  0.61381400  1
  H  304  1  0.32452500  0.56787000  0.64684800  1
  H  305  1  0.09320500  0.90019200  0.71599800  1
  H  306  1  0.03482200  0.95202400  0.74932700  1
  H  318  1  0.95346500  0.87989800  0.41295400  1
  H  320  1  0.65091700  0.59882000  0.28269000  1
  H  321  1  0.04628200  0.93653800  0.28090400  1
  H  322  1  0.99877900  0.88054400  0.31394500  1
  H  331  1  0.93821000  0.95353600  0.15864000  1
  H  337  1  0.67097800  0.66414300  0.19703300  1
  H  339  1  0.56997600  0.72386600  0.21762400  1
  H  340  1  0.62800700  0.69386900  0.24457900  1
  H  342  1  0.48574200  0.48242400  0.24778500  1
  H  343  1  0.99323200  0.97907700  0.11283200  1
  H  353  1  0.62593200  0.96286500  0.85032400  1
  H  354  1  0.62592200  0.01313500  0.87341100  1
  H  355  1  0.74962800  0.92672300  0.87788200  1
  H  356  1  0.65253500  0.93029800  0.89663000  1
  H  357  1  0.73332300  0.97330400  0.90335300  1
  H  371  1  0.48570400  0.52327200  0.58149800  1
  H  373  1  0.97976200  0.02756600  0.44641000  1
  H  381  1  0.06035400  0.56900600  0.05621700  1
  H  386  1  0.48318800  0.88779200  0.93915300  1
  H  387  1  0.38658300  0.91960300  0.94039500  1
  H  388  1  0.48684100  0.88329000  0.99193500  1
  H  389  1  0.39722000  0.85368800  0.97722200  1
  H  390  1  0.38602100  0.91185100  0.99314900  1
  H  392  1  0.31044100  0.00649400  0.99388100  1
  H  394  1  0.20567100  0.56074300  0.03645800  1
  H  401  1  0.13318400  0.74592800  0.72358300  1
  H  404  1  0.43494000  0.79589000  0.60377300  1
  H  405  1  0.44005600  0.80032600  0.65653100  1
  H  406  1  0.53087300  0.77198400  0.64180400  1
  H  408  1  0.34565400  0.64542300  0.65799200  1
  H  410  1  0.07391400  0.82362200  0.70403000  1
  H  418  1  0.82766300  0.69584900  0.38986300  1
  H  423  1  0.60111000  0.82521400  0.27105900  1
  H  424  1  0.69751300  0.85731400  0.27087800  1
  H  425  1  0.59569500  0.82943500  0.32381100  1
  H  426  1  0.59603100  0.88797500  0.30772400  1
  H  427  1  0.68949400  0.86515000  0.32357300  1
  H  429  1  0.87078600  0.85314000  0.32486300  1
  H  431  1  0.74341700  0.62708500  0.37000900  1
  N  8  1  0.00452900  0.01523300  0.86887600  1
  N  23  1  0.55721000  0.50353300  0.86235100  1
  N  45  1  0.07772700  0.03046900  0.25955500  1
  N  46  1  0.57797300  0.53038500  0.25896500  1
  N  51  1  0.09155900  0.02511300  0.10453000  1
  N  56  1  0.09274100  0.03363400  0.16596800  1
  N  65  1  0.58516600  0.52388600  0.10320000  1
  N  70  1  0.58997000  0.53329500  0.16494500  1
  N  118  1  0.77837800  0.53754900  0.03098300  1
  N  119  1  0.74250100  0.03032500  0.99917800  1
  N  120  1  0.95086500  0.02552900  0.92764500  1
  N  143  1  0.94311200  0.03047600  0.76999800  1
  N  144  1  0.82349100  0.12074100  0.69828700  1
  N  145  1  0.59548800  0.35023100  0.66448300  1
  N  146  1  0.50955200  0.45295700  0.59250900  1
  N  159  1  0.49763700  0.45588900  0.43652900  1
  N  160  1  0.42231400  0.35239200  0.36426000  1
  N  161  1  0.18829800  0.12518600  0.33127400  1
  N  163  1  0.48337500  0.47916700  0.19582600  1
  N  182  1  0.42175700  0.52877800  0.83165500  1
  N  197  1  0.98125200  0.02708500  0.52982100  1
  N  200  1  0.50799700  0.44729700  0.49817200  1
  N  211  1  0.46056300  0.04893500  0.03523600  1
  N  214  1  0.05867200  0.52212900  0.99210100  1
  N  232  1  0.71654500  0.20237700  0.70143300  1
  N  235  1  0.70101200  0.26705000  0.65906300  1
  N  248  1  0.35170800  0.25903800  0.36757000  1
  N  251  1  0.26024400  0.21938000  0.32559500  1
  N  282  1  0.28494800  0.03692600  0.03237400  1
  N  283  1  0.23609500  0.53350300  0.99736300  1
  N  284  1  0.43362800  0.52512700  0.92562700  1
  N  307  1  0.43725200  0.53084100  0.76989900  1
  N  308  1  0.31915400  0.61992500  0.69761700  1
  N  309  1  0.09675800  0.85067900  0.66430200  1
  N  310  1  0.00840900  0.95299200  0.59253200  1
  N  323  1  0.99717100  0.95566800  0.43685400  1
  N  324  1  0.92215300  0.85222700  0.36451100  1
  N  325  1  0.68838300  0.62520100  0.33075700  1
  N  327  1  0.98460500  0.97937300  0.19622100  1
  N  346  1  0.89287100  0.02926500  0.82678500  1
  N  361  1  0.48290800  0.52699700  0.52968800  1
  N  364  1  0.00729200  0.94740900  0.49835300  1
  N  375  1  0.95399700  0.54904400  0.03401800  1
  N  378  1  0.56499400  0.02044000  0.99352900  1
  N  396  1  0.21465700  0.70221300  0.70100900  1
  N  399  1  0.20077400  0.76750700  0.65893000  1
  N  412  1  0.85153200  0.75879900  0.36754700  1
  N  415  1  0.76037400  0.71945100  0.32539800  1
  O  15  1  0.82659000  0.26449400  0.61870700  1
  O  31  1  0.32622000  0.76489300  0.61861400  1
  O  168  1  0.21945100  0.05097200  0.21351100  1
  O  169  1  0.12532500  0.10576600  0.22163100  1
  O  185  1  0.32972400  0.58366300  0.87946300  1
  O  186  1  0.29799400  0.50892600  0.88722800  1
  O  204  1  0.50116800  0.36012800  0.52572500  1
  O  205  1  0.09324500  0.89037400  0.55563500  1
  O  218  1  0.92705300  0.52650400  0.94492700  1
  O  219  1  0.99104400  0.45887200  0.95274200  1
  O  238  1  0.75836900  0.19783300  0.61214400  1
  O  255  1  0.33425100  0.28109100  0.27835300  1
  O  256  1  0.19988800  0.28476700  0.28614100  1
  O  332  1  0.71895400  0.55070500  0.21184100  1
  O  333  1  0.62505500  0.60522100  0.22072300  1
  O  349  1  0.75480100  0.08211300  0.85652700  1
  O  350  1  0.72857800  0.00708700  0.84548000  1
  O  368  1  0.00076500  0.86024900  0.52592900  1
  O  369  1  0.59357700  0.39002100  0.55552400  1
  O  382  1  0.43155300  0.02554200  0.94669800  1
  O  383  1  0.49533700  0.95750800  0.95390800  1
  O  402  1  0.25780300  0.69839700  0.61173300  1
  O  419  1  0.83457100  0.78152500  0.27838300  1
  O  420  1  0.70015900  0.78503000  0.28607500  1
