# generated using pymatgen
data_Zn3H38C60(N3O7)2
_symmetry_space_group_name_H-M   'P 1'
_cell_length_a   14.47341000
_cell_length_b   16.24655368
_cell_length_c   16.63280000
_cell_angle_alpha   63.47150291
_cell_angle_beta   89.89802000
_cell_angle_gamma   63.65225874
_symmetry_Int_Tables_number   1
_chemical_formula_structural   Zn3H38C60(N3O7)2
_chemical_formula_sum   'Zn6 H76 C120 N12 O28'
_cell_volume   3040.19586161
_cell_formula_units_Z   2
loop_
 _symmetry_equiv_pos_site_id
 _symmetry_equiv_pos_as_xyz
  1  'x, y, z'
loop_
 _atom_site_type_symbol
 _atom_site_label
 _atom_site_symmetry_multiplicity
 _atom_site_fract_x
 _atom_site_fract_y
 _atom_site_fract_z
 _atom_site_occupancy
  Zn  Zn1  1  0.83458000  0.72085000  0.31676000  1.0
  Zn  Zn2  1  0.55402000  0.28149000  0.18273000  1.0
  Zn  Zn3  1  0.16542000  0.27916000  0.68324000  1.0
  Zn  Zn4  1  0.44599000  0.71851000  0.81726000  1.0
  Zn  Zn5  1  0.77761000  0.99987000  0.75008000  1.0
  Zn  Zn6  1  0.22239000  0.00013000  0.24991000  1.0
  H  H1  1  0.80622000  0.70163000  0.80124000  1.0
  H  H2  1  0.83485000  0.54991000  0.77772000  1.0
  H  H3  1  0.73937000  0.89992000  0.50794000  1.0
  H  H4  1  0.62088000  0.60435000  0.61908000  1.0
  H  H5  1  0.56108000  0.48058000  0.72493000  1.0
  H  H6  1  0.69644000  0.29425000  0.83953000  1.0
  H  H7  1  0.88924000  0.23424000  0.85022000  1.0
  H  H8  1  0.67025000  0.66059000  0.35180000  1.0
  H  H9  1  0.65813000  0.49652000  0.44404000  1.0
  H  H10  1  0.00264000  0.31936000  0.51563000  1.0
  H  H11  1  0.99995000  0.48891000  0.41747000  1.0
  H  H12  1  0.70764000  0.32260000  0.44025000  1.0
  H  H13  1  0.70908000  0.15307000  0.54531000  1.0
  H  H14  1  0.92727000  0.08032000  0.76046000  1.0
  H  H15  1  0.94306000  0.24148000  0.66296000  1.0
  H  H16  1  0.61559000  0.90103000  0.26631000  1.0
  H  H17  1  0.46445000  0.03111000  0.12672000  1.0
  H  H18  1  0.65160000  0.87021000  0.98594000  1.0
  H  H19  1  0.79815000  0.75379000  0.12926000  1.0
  H  H20  1  0.50847000  0.29673000  0.69931000  1.0
  H  H21  1  0.38409000  0.44867000  0.72205000  1.0
  H  H22  1  0.63917000  0.10082000  0.99262000  1.0
  H  H23  1  0.22484000  0.39400000  0.88131000  1.0
  H  H24  1  0.04198000  0.51741000  0.77568000  1.0
  H  H25  1  0.99158000  0.70384000  0.66096000  1.0
  H  H26  1  0.12352000  0.76491000  0.65047000  1.0
  H  H27  1  0.33133000  0.33998000  0.14772000  1.0
  H  H28  1  0.15501000  0.50274000  0.05635000  1.0
  H  H29  1  0.31939000  0.68352000  0.98374000  1.0
  H  H30  1  0.48658000  0.51529000  0.08089000  1.0
  H  H31  1  0.02916000  0.67808000  0.05991000  1.0
  H  H32  1  0.86176000  0.84722000  0.95494000  1.0
  H  H33  1  0.00714000  0.91994000  0.73895000  1.0
  H  H34  1  0.18352000  0.75924000  0.83619000  1.0
  H  H35  1  0.51559000  0.10113000  0.23286000  1.0
  H  H36  1  0.49527000  0.96978000  0.37278000  1.0
  H  H37  1  0.52151000  0.13021000  0.51401000  1.0
  H  H38  1  0.55062000  0.24808000  0.37020000  1.0
  H  H39  1  0.19378000  0.29837000  0.19876000  1.0
  H  H40  1  0.16516000  0.45009000  0.22228000  1.0
  H  H41  1  0.26062000  0.10009000  0.49206000  1.0
  H  H42  1  0.37911000  0.39566000  0.38092000  1.0
  H  H43  1  0.43893000  0.51942000  0.27506000  1.0
  H  H44  1  0.30355000  0.70576000  0.16047000  1.0
  H  H45  1  0.11075000  0.76577000  0.14977000  1.0
  H  H46  1  0.32975000  0.33941000  0.64820000  1.0
  H  H47  1  0.34187000  0.50349000  0.55596000  1.0
  H  H48  1  0.99736000  0.68064000  0.48437000  1.0
  H  H49  1  0.00004000  0.51110000  0.58253000  1.0
  H  H50  1  0.29236000  0.67740000  0.55975000  1.0
  H  H51  1  0.29091000  0.84694000  0.45469000  1.0
  H  H52  1  0.07272000  0.91969000  0.23954000  1.0
  H  H53  1  0.05694000  0.75853000  0.33704000  1.0
  H  H54  1  0.38441000  0.09897000  0.73369000  1.0
  H  H55  1  0.53554000  0.96890000  0.87328000  1.0
  H  H56  1  0.34839000  0.12980000  0.01406000  1.0
  H  H57  1  0.20185000  0.24622000  0.87073000  1.0
  H  H58  1  0.49154000  0.70327000  0.30069000  1.0
  H  H59  1  0.61592000  0.55133000  0.27795000  1.0
  H  H60  1  0.36083000  0.89918000  0.00737000  1.0
  H  H61  1  0.77516000  0.60600000  0.11869000  1.0
  H  H62  1  0.95802000  0.48260000  0.22432000  1.0
  H  H63  1  0.00842000  0.29616000  0.33904000  1.0
  H  H64  1  0.87647000  0.23510000  0.34953000  1.0
  H  H65  1  0.66866000  0.66003000  0.85228000  1.0
  H  H66  1  0.84499000  0.49726000  0.94364000  1.0
  H  H67  1  0.68062000  0.31648000  0.01626000  1.0
  H  H68  1  0.51342000  0.48471000  0.91910000  1.0
  H  H69  1  0.97084000  0.32193000  0.94009000  1.0
  H  H70  1  0.13824000  0.15278000  0.04506000  1.0
  H  H71  1  0.99285000  0.08007000  0.26105000  1.0
  H  H72  1  0.81649000  0.24076000  0.16380000  1.0
  H  H73  1  0.48440000  0.89888000  0.76714000  1.0
  H  H74  1  0.50473000  0.03022000  0.62722000  1.0
  H  H75  1  0.47850000  0.86979000  0.48598000  1.0
  H  H76  1  0.44937000  0.75193000  0.62979000  1.0
  C  C1  1  0.75406000  0.90054000  0.66793000  1.0
  C  C2  1  0.76923000  0.81020000  0.65565000  1.0
  C  C3  1  0.79587000  0.71160000  0.73213000  1.0
  C  C4  1  0.81148000  0.62772000  0.71944000  1.0
  C  C5  1  0.79871000  0.64257000  0.62984000  1.0
  C  C6  1  0.77125000  0.74083000  0.55226000  1.0
  C  C7  1  0.75892000  0.82327000  0.56644000  1.0
  C  C8  1  0.75131000  0.75824000  0.45576000  1.0
  C  C9  1  0.78626000  0.48826000  0.67623000  1.0
  C  C10  1  0.67800000  0.52282000  0.67001000  1.0
  C  C11  1  0.64548000  0.45299000  0.72891000  1.0
  C  C12  1  0.72166000  0.34878000  0.79351000  1.0
  C  C13  1  0.82980000  0.31498000  0.79941000  1.0
  C  C14  1  0.86359000  0.38472000  0.74093000  1.0
  C  C15  1  0.98017000  0.34996000  0.74948000  1.0
  C  C16  1  0.74112000  0.58293000  0.38750000  1.0
  C  C17  1  0.73527000  0.49140000  0.43900000  1.0
  C  C18  1  0.82942000  0.39384000  0.48678000  1.0
  C  C19  1  0.92660000  0.39249000  0.47994000  1.0
  C  C20  1  0.92609000  0.48703000  0.42561000  1.0
  C  C21  1  0.82604000  0.29536000  0.54402000  1.0
  C  C22  1  0.75806000  0.27121000  0.51067000  1.0
  C  C23  1  0.75759000  0.17764000  0.56824000  1.0
  C  C24  1  0.88212000  0.13473000  0.68850000  1.0
  C  C25  1  0.89051000  0.22428000  0.63452000  1.0
  C  C26  1  0.62031000  0.90041000  0.20124000  1.0
  C  C27  1  0.53585000  0.97091000  0.12322000  1.0
  C  C28  1  0.54409000  0.96313000  0.04232000  1.0
  C  C29  1  0.63969000  0.88232000  0.04511000  1.0
  C  C30  1  0.72176000  0.81586000  0.12482000  1.0
  C  C31  1  0.65599000  0.09944000  0.83308000  1.0
  C  C32  1  0.57970000  0.18956000  0.84492000  1.0
  C  C33  1  0.50768000  0.28752000  0.76820000  1.0
  C  C34  1  0.43862000  0.37133000  0.78057000  1.0
  C  C35  1  0.44032000  0.35688000  0.87008000  1.0
  C  C36  1  0.51122000  0.25922000  0.94784000  1.0
  C  C37  1  0.58189000  0.17690000  0.93398000  1.0
  C  C38  1  0.50820000  0.24213000  0.04423000  1.0
  C  C39  1  0.27402000  0.51069000  0.82396000  1.0
  C  C40  1  0.20055000  0.47567000  0.83040000  1.0
  C  C41  1  0.09866000  0.54529000  0.77160000  1.0
  C  C42  1  0.07092000  0.64961000  0.70704000  1.0
  C  C43  1  0.14497000  0.68394000  0.70119000  1.0
  C  C44  1  0.24815000  0.61442000  0.75947000  1.0
  C  C45  1  0.33031000  0.64904000  0.75163000  1.0
  C  C46  1  0.32394000  0.41809000  0.11190000  1.0
  C  C47  1  0.22644000  0.50892000  0.06083000  1.0
  C  C48  1  0.22214000  0.60716000  0.01288000  1.0
  C  C49  1  0.31727000  0.60977000  0.01936000  1.0
  C  C50  1  0.41151000  0.51590000  0.07319000  1.0
  C  C51  1  0.12037000  0.70519000  0.95565000  1.0
  C  C52  1  0.02837000  0.72924000  0.98927000  1.0
  C  C53  1  0.93466000  0.82257000  0.93174000  1.0
  C  C54  1  0.01625000  0.86549000  0.81100000  1.0
  C  C55  1  0.11389000  0.77621000  0.86489000  1.0
  C  C56  1  0.51994000  0.10119000  0.29818000  1.0
  C  C57  1  0.50648000  0.02997000  0.37644000  1.0
  C  C58  1  0.50707000  0.03723000  0.45757000  1.0
  C  C59  1  0.52158000  0.11837000  0.45474000  1.0
  C  C60  1  0.53665000  0.18563000  0.37479000  1.0
  C  C61  1  0.24593000  0.09947000  0.33206000  1.0
  C  C62  1  0.23077000  0.18981000  0.34434000  1.0
  C  C63  1  0.20414000  0.28840000  0.26786000  1.0
  C  C64  1  0.18851000  0.37229000  0.28055000  1.0
  C  C65  1  0.20129000  0.35744000  0.37015000  1.0
  C  C66  1  0.22875000  0.25917000  0.44773000  1.0
  C  C67  1  0.24107000  0.17674000  0.43356000  1.0
  C  C68  1  0.24868000  0.24177000  0.54424000  1.0
  C  C69  1  0.21374000  0.51174000  0.32376000  1.0
  C  C70  1  0.32200000  0.47718000  0.32999000  1.0
  C  C71  1  0.35452000  0.54701000  0.27109000  1.0
  C  C72  1  0.27835000  0.65122000  0.20648000  1.0
  C  C73  1  0.17021000  0.68502000  0.20059000  1.0
  C  C74  1  0.13642000  0.61528000  0.25906000  1.0
  C  C75  1  0.01984000  0.65004000  0.25051000  1.0
  C  C76  1  0.25889000  0.41707000  0.61249000  1.0
  C  C77  1  0.26474000  0.50860000  0.56100000  1.0
  C  C78  1  0.17058000  0.60616000  0.51322000  1.0
  C  C79  1  0.07339000  0.60752000  0.52005000  1.0
  C  C80  1  0.07391000  0.51297000  0.57439000  1.0
  C  C81  1  0.17396000  0.70464000  0.45598000  1.0
  C  C82  1  0.24193000  0.72880000  0.48933000  1.0
  C  C83  1  0.24241000  0.82237000  0.43176000  1.0
  C  C84  1  0.11789000  0.86527000  0.31150000  1.0
  C  C85  1  0.10948000  0.77573000  0.36548000  1.0
  C  C86  1  0.37969000  0.09959000  0.79876000  1.0
  C  C87  1  0.46414000  0.02910000  0.87678000  1.0
  C  C88  1  0.45591000  0.03687000  0.95767000  1.0
  C  C89  1  0.36030000  0.11769000  0.95489000  1.0
  C  C90  1  0.27825000  0.18414000  0.87517000  1.0
  C  C91  1  0.34401000  0.90057000  0.16692000  1.0
  C  C92  1  0.42029000  0.81045000  0.15507000  1.0
  C  C93  1  0.49231000  0.71249000  0.23180000  1.0
  C  C94  1  0.56137000  0.62868000  0.21943000  1.0
  C  C95  1  0.55968000  0.64313000  0.12992000  1.0
  C  C96  1  0.48879000  0.74078000  0.05216000  1.0
  C  C97  1  0.41812000  0.82310000  0.06601000  1.0
  C  C98  1  0.49181000  0.75787000  0.95577000  1.0
  C  C99  1  0.72598000  0.48932000  0.17604000  1.0
  C  C100  1  0.79945000  0.52434000  0.16960000  1.0
  C  C101  1  0.90135000  0.45471000  0.22840000  1.0
  C  C102  1  0.92908000  0.35039000  0.29295000  1.0
  C  C103  1  0.85503000  0.31606000  0.29880000  1.0
  C  C104  1  0.75185000  0.38558000  0.24052000  1.0
  C  C105  1  0.66970000  0.35096000  0.24837000  1.0
  C  C106  1  0.67606000  0.58192000  0.88810000  1.0
  C  C107  1  0.77356000  0.49109000  0.93917000  1.0
  C  C108  1  0.77786000  0.39285000  0.98712000  1.0
  C  C109  1  0.68273000  0.39023000  0.98064000  1.0
  C  C110  1  0.58848000  0.48411000  0.92681000  1.0
  C  C111  1  0.87963000  0.29481000  0.04435000  1.0
  C  C112  1  0.97162000  0.27077000  0.01073000  1.0
  C  C113  1  0.06534000  0.17744000  0.06825000  1.0
  C  C114  1  0.98374000  0.13452000  0.18900000  1.0
  C  C115  1  0.88611000  0.22379000  0.13511000  1.0
  C  C116  1  0.48007000  0.89881000  0.70182000  1.0
  C  C117  1  0.49351000  0.97004000  0.62356000  1.0
  C  C118  1  0.49293000  0.96277000  0.54243000  1.0
  C  C119  1  0.47843000  0.88163000  0.54526000  1.0
  C  C120  1  0.46336000  0.81437000  0.62521000  1.0
  N  N1  1  0.83489000  0.58090000  0.38038000  1.0
  N  N2  1  0.71268000  0.82441000  0.20210000  1.0
  N  N3  1  0.81785000  0.11051000  0.65624000  1.0
  N  N4  1  0.41507000  0.42133000  0.11845000  1.0
  N  N5  1  0.53588000  0.17752000  0.29733000  1.0
  N  N6  1  0.92789000  0.88952000  0.84351000  1.0
  N  N7  1  0.16511000  0.41910000  0.61962000  1.0
  N  N8  1  0.28732000  0.17559000  0.79790000  1.0
  N  N9  1  0.18215000  0.88949000  0.34376000  1.0
  N  N10  1  0.58493000  0.57868000  0.88155000  1.0
  N  N11  1  0.46413000  0.82248000  0.70266000  1.0
  N  N12  1  0.07211000  0.11048000  0.15649000  1.0
  O  O1  1  0.73650000  0.98652000  0.59925000  1.0
  O  O2  1  0.76208000  0.88350000  0.75252000  1.0
  O  O3  1  0.02253000  0.30660000  0.69971000  1.0
  O  O4  1  0.02752000  0.36321000  0.80126000  1.0
  O  O5  1  0.81753000  0.55917000  0.61511000  1.0
  O  O6  1  0.82913000  0.75677000  0.41583000  1.0
  O  O7  1  0.66553000  0.77303000  0.42058000  1.0
  O  O8  1  0.72461000  0.01428000  0.90180000  1.0
  O  O9  1  0.64746000  0.11608000  0.74862000  1.0
  O  O10  1  0.32792000  0.69415000  0.80010000  1.0
  O  O11  1  0.39307000  0.63366000  0.70171000  1.0
  O  O12  1  0.37570000  0.44009000  0.88487000  1.0
  O  O13  1  0.58361000  0.24481000  0.08381000  1.0
  O  O14  1  0.43740000  0.22644000  0.07957000  1.0
  O  O15  1  0.26350000  0.01348000  0.40075000  1.0
  O  O16  1  0.23791000  0.11651000  0.24747000  1.0
  O  O17  1  0.97746000  0.69341000  0.30029000  1.0
  O  O18  1  0.97249000  0.63679000  0.19873000  1.0
  O  O19  1  0.18246000  0.44084000  0.38489000  1.0
  O  O20  1  0.17087000  0.24324000  0.58417000  1.0
  O  O21  1  0.33446000  0.22698000  0.57942000  1.0
  O  O22  1  0.27540000  0.98572000  0.09820000  1.0
  O  O23  1  0.35255000  0.88392000  0.25138000  1.0
  O  O24  1  0.67208000  0.30585000  0.19990000  1.0
  O  O25  1  0.60693000  0.36635000  0.29828000  1.0
  O  O26  1  0.62429000  0.55992000  0.11513000  1.0
  O  O27  1  0.41639000  0.75520000  0.91619000  1.0
  O  O28  1  0.56260000  0.77356000  0.92043000  1.0
