# generated using pymatgen
data_Cr6H25C58(NO12)3
_symmetry_space_group_name_H-M   'P 1'
_cell_length_a   10.94603000
_cell_length_b   10.98365768
_cell_length_c   18.79607000
_cell_angle_alpha   89.88805967
_cell_angle_beta   89.54906000
_cell_angle_gamma   119.79566336
_symmetry_Int_Tables_number   1
_chemical_formula_structural   Cr6H25C58(NO12)3
_chemical_formula_sum   'Cr6 H25 C58 N3 O36'
_cell_volume   1960.95888647
_cell_formula_units_Z   1
loop_
 _symmetry_equiv_pos_site_id
 _symmetry_equiv_pos_as_xyz
  1  'x, y, z'
loop_
 _atom_site_type_symbol
 _atom_site_label
 _atom_site_symmetry_multiplicity
 _atom_site_fract_x
 _atom_site_fract_y
 _atom_site_fract_z
 _atom_site_occupancy
  Cr  Cr0  1  0.40141000  0.79166000  0.49993000  1
  Cr  Cr1  1  0.39023000  0.09852000  0.50054000  1
  Cr  Cr2  1  0.70834000  0.10977000  0.49948000  1
  Cr  Cr3  1  0.94890000  0.87479000  0.00007000  1
  Cr  Cr4  1  0.62545000  0.57412000  0.99930000  1
  Cr  Cr5  1  0.92610000  0.55142000  0.00092000  1
  H  H6  1  0.43152000  0.24489000  0.69041000  1
  H  H7  1  0.14349000  0.21541000  0.79327000  1
  H  H8  1  0.14331000  0.17871000  0.66299000  1
  H  H9  1  0.93535000  0.07771000  0.86438000  1
  H  H10  1  0.93155000  0.00731000  0.60476000  1
  H  H11  1  0.40894000  0.66797000  0.86429000  1
  H  H12  1  0.30248000  0.39142000  0.68853000  1
  H  H13  1  0.51476000  0.55904000  0.62479000  1
  H  H14  1  0.24939000  0.44649000  0.80780000  1
  H  H15  1  0.40147000  0.87486000  0.70633000  1
  H  H16  1  0.35363000  0.85251000  0.83525000  1
  H  H17  1  0.93038000  0.76581000  0.79510000  1
  H  H18  1  0.97999000  0.79466000  0.66666667  1
  H  H19  1  0.77624000  0.20713000  0.29786000  1
  H  H20  1  0.48426000  0.35784000  0.32272000  1
  H  H21  1  0.42957000  0.75607000  0.29658000  1
  H  H22  1  0.45900000  0.74589000  0.16930000  1
  H  H23  1  0.91080000  0.95388000  0.19597000  1
  H  H24  1  0.88057000  0.96875000  0.32412000  1
  H  H25  1  0.29416000  0.06896000  0.29798000  1
  H  H26  1  0.26090000  0.04083000  0.17151000  1
  H  H27  1  0.07312000  0.59091000  0.19629000  1
  H  H28  1  0.11381000  0.62063000  0.32478000  1
  H  H29  1  0.31852000  0.46810000  0.19986000  1
  H  H30  1  0.12553000  0.54330000  0.83171000  1
  C  C31  1  0.23054000  0.86686000  0.60447000  1
  C  C32  1  0.63895000  0.27500000  0.60209000  1
  C  C33  1  0.63848000  0.85794000  0.60027000  1
  C  C34  1  0.23347000  0.87019000  0.39564000  1
  C  C35  1  0.63517000  0.26549000  0.39443000  1
  C  C36  1  0.62980000  0.86463000  0.39435000  1
  C  C37  1  0.53506000  0.29618000  0.71411000  1
  C  C38  1  0.54393000  0.30951000  0.78775000  1
  C  C39  1  0.67579000  0.35786000  0.81976000  1
  C  C40  1  0.79632000  0.38940000  0.77617000  1
  C  C41  1  0.78894000  0.39813000  0.70268000  1
  C  C42  1  0.65604000  0.33776000  0.67183000  1
  C  C43  1  0.68920000  0.84198000  0.81845000  1
  C  C44  1  0.93029000  0.05217000  0.80879000  1
  C  C45  1  0.04990000  0.13658000  0.76781000  1
  C  C46  1  0.04943000  0.11855000  0.69470000  1
  C  C47  1  0.92745000  0.02065000  0.66163000  1
  C  C48  1  0.80617000  0.93272000  0.70200000  1
  C  C49  1  0.80820000  0.94254000  0.77758000  1
  C  C50  1  0.58688000  0.71531000  0.70871000  1
  C  C51  1  0.57070000  0.73723000  0.78073000  1
  C  C52  1  0.49479000  0.58494000  0.67762000  1
  C  C53  1  0.37390000  0.48878000  0.71345000  1
  C  C54  1  0.34364000  0.52108000  0.78011000  1
  C  C55  1  0.43867000  0.64579000  0.81299000  1
  C  C56  1  0.68704000  0.82786000  0.66801000  1
  C  C57  1  0.29771000  0.84897000  0.72569000  1
  C  C58  1  0.27143000  0.83645000  0.79847000  1
  C  C59  1  0.13942000  0.80751000  0.82310000  1
  C  C60  1  0.03359000  0.79031000  0.77565000  1
  C  C61  1  0.06081000  0.80567000  0.70316000  1
  C  C62  1  0.19279000  0.83527000  0.67836000  1
  C  C63  1  0.71661000  0.25194000  0.27506000  1
  C  C64  1  0.70860000  0.25603000  0.20173000  1
  C  C65  1  0.63376000  0.31661000  0.17097000  1
  C  C66  1  0.54273000  0.34325000  0.21460000  1
  C  C67  1  0.55164000  0.33660000  0.28853000  1
  C  C68  1  0.64239000  0.29640000  0.31877000  1
  C  C69  1  0.53517000  0.79922000  0.27501000  1
  C  C70  1  0.55161000  0.79588000  0.20242000  1
  C  C71  1  0.68629000  0.84819000  0.17360000  1
  C  C72  1  0.80546000  0.91385000  0.21743000  1
  C  C73  1  0.78888000  0.91978000  0.29037000  1
  C  C74  1  0.65334000  0.85712000  0.31934000  1
  C  C75  1  0.24494000  0.96375000  0.27664000  1
  C  C76  1  0.22917000  0.94826000  0.20411000  1
  C  C77  1  0.16293000  0.81407000  0.17468000  1
  C  C78  1  0.12493000  0.69584000  0.21813000  1
  C  C79  1  0.14419000  0.71192000  0.29133000  1
  C  C80  1  0.19942000  0.84570000  0.32088000  1
  C  C81  1  0.70474000  0.80781000  0.89403000  1
  C  C82  1  0.69762000  0.39818000  0.89513000  1
  C  C83  1  0.10663000  0.79755000  0.89766000  1
  C  C84  1  0.70141000  0.80765000  0.10240000  1
  C  C85  1  0.68651000  0.38993000  0.10233000  1
  C  C86  1  0.10412000  0.79713000  0.10410000  1
  C  C87  1  0.43414000  0.37295000  0.18584000  1
  C  C88  1  0.92856000  0.40525000  0.80526000  1
  N  N89  1  0.78000000  0.20180000  0.15892000  1
  N  N90  1  0.41591000  0.25002000  0.82894000  1
  N  N91  1  0.91407000  0.45487000  0.65856000  1
  O  O92  1  0.51646000  0.76650000  0.57979000  1
  O  O93  1  0.28179000  0.79857000  0.57478000  1
  O  O94  1  0.25105000  0.98400000  0.58109000  1
  O  O95  1  0.51771000  0.21860000  0.57476000  1
  O  O96  1  0.73404000  0.24939000  0.57994000  1
  O  O97  1  0.70189000  0.98279000  0.57370000  1
  O  O98  1  0.51547000  0.76660000  0.41926000  1
  O  O99  1  0.28087000  0.79866000  0.42598000  1
  O  O100  1  0.25006000  0.98410000  0.42057000  1
  O  O101  1  0.51679000  0.21869000  0.42596000  1
  O  O102  1  0.73305000  0.24949000  0.41942000  1
  O  O103  1  0.70097000  0.98288000  0.42489000  1
  O  O104  1  0.49999000  0.99998000  0.49998000  1
  O  O105  1  0.08825000  0.89511000  0.92043000  1
  O  O106  1  0.82529000  0.87226000  0.92500000  1
  O  O107  1  0.60637000  0.69143000  0.91855000  1
  O  O108  1  0.62903000  0.45149000  0.92525000  1
  O  O109  1  0.80997000  0.41333000  0.92044000  1
  O  O110  1  0.04986000  0.67611000  0.92675000  1
  O  O111  1  0.08548000  0.89535000  0.08095000  1
  O  O112  1  0.82273000  0.87249000  0.07380000  1
  O  O113  1  0.60361000  0.69168000  0.07907000  1
  O  O114  1  0.62647000  0.45172000  0.07405000  1
  O  O115  1  0.80721000  0.41358000  0.08096000  1
  O  O116  1  0.04730000  0.67634000  0.07555000  1
  O  O117  1  0.83349000  0.66678000  0.00009000  1
  O  O118  1  0.90116000  0.21849000  0.17846000  1
  O  O119  1  0.72268000  0.13295000  0.10097000  1
  O  O120  1  0.37364000  0.31809000  0.13061000  1
  O  O121  1  0.39537000  0.45779000  0.22407000  1
  O  O122  1  0.38760000  0.32738000  0.87047000  1
  O  O123  1  0.31651000  0.12342000  0.81532000  1
  O  O124  1  0.92659000  0.31039000  0.84016000  1
  O  O125  1  0.05424000  0.52908000  0.79414000  1
  O  O126  1  0.92950000  0.53978000  0.60649000  1
  O  O127  1  0.99705000  0.40174000  0.66109000  1
