# generated using pymatgen
data_H13C20(NO)2
_symmetry_space_group_name_H-M   'P 1'
_cell_length_a   13.08410000
_cell_length_b   28.09540000
_cell_length_c   36.10200000
_cell_angle_alpha   90.00000000
_cell_angle_beta   90.00000000
_cell_angle_gamma   90.00000000
_symmetry_Int_Tables_number   1
_chemical_formula_structural   H13C20(NO)2
_chemical_formula_sum   'H104 C160 N16 O16'
_cell_volume   13271.20434140
_cell_formula_units_Z   8
loop_
 _symmetry_equiv_pos_site_id
 _symmetry_equiv_pos_as_xyz
  1  'x, y, z'
loop_
 _atom_site_type_symbol
 _atom_site_label
 _atom_site_symmetry_multiplicity
 _atom_site_fract_x
 _atom_site_fract_y
 _atom_site_fract_z
 _atom_site_occupancy
  C  1  1  0.06494700  0.00073900  0.01969200  1
  C  2  1  0.15599300  0.02146100  0.00972600  1
  C  3  1  0.22334600  0.03924000  0.03548900  1
  C  4  1  0.19753200  0.04084900  0.07244500  1
  C  5  1  0.09151700  0.02962300  0.08305700  1
  C  6  1  0.02651500  0.00709200  0.05478400  1
  C  9  1  0.00183300  0.98196600  0.99217600  1
  C  10  1  0.94334700  0.01160600  0.96848100  1
  C  11  1  0.88032600  0.99122200  0.94067400  1
  C  12  1  0.87275100  0.94099100  0.93770400  1
  C  13  1  0.93102000  0.91144000  0.96140300  1
  C  14  1  0.99543600  0.93203100  0.98829000  1
  C  23  1  0.92600700  0.86514800  0.95885200  1
  C  24  1  0.05274900  0.07311000  0.09754400  1
  C  25  1  0.30472400  0.06525200  0.02376700  1
  C  26  1  0.82610100  0.01936900  0.91611700  1
  C  31  1  0.95460500  0.50148000  0.02272200  1
  C  32  1  0.85742900  0.48712900  0.01324900  1
  C  33  1  0.79278500  0.46455200  0.03750300  1
  C  34  1  0.81624700  0.46376200  0.07452800  1
  C  35  1  0.92247500  0.47240800  0.08588000  1
  C  36  1  0.99125700  0.49328700  0.05795300  1
  C  39  1  0.02476100  0.51072700  0.99428900  1
  C  40  1  0.05267300  0.47545400  0.96795200  1
  C  41  1  0.12022100  0.48662000  0.93842300  1
  C  42  1  0.16498500  0.53255300  0.93671600  1
  C  43  1  0.13942300  0.56768300  0.96327000  1
  C  44  1  0.06819500  0.55667400  0.99135600  1
  C  53  1  0.18405400  0.61219900  0.96158300  1
  C  54  1  0.95588400  0.42783400  0.10010300  1
  C  55  1  0.72320400  0.43289200  0.02378900  1
  C  56  1  0.14183500  0.45412700  0.91059900  1
  C  61  1  0.53363600  0.49704900  0.48402100  1
  C  62  1  0.62307700  0.47443300  0.49710000  1
  C  63  1  0.68969800  0.45036100  0.47276600  1
  C  64  1  0.66749600  0.44975600  0.43433900  1
  C  65  1  0.57776100  0.47192700  0.42055600  1
  C  66  1  0.51062500  0.49514100  0.44561800  1
  C  69  1  0.47069100  0.52255800  0.50943200  1
  C  70  1  0.42591100  0.50005600  0.54068200  1
  C  71  1  0.36794800  0.52676200  0.56662300  1
  C  72  1  0.35117200  0.57605500  0.56021900  1
  C  73  1  0.39601300  0.59863800  0.52920100  1
  C  74  1  0.45546600  0.57188700  0.50418300  1
  C  83  1  0.38347300  0.64412900  0.52333400  1
  C  84  1  0.55786700  0.47024400  0.38283200  1
  C  85  1  0.77668100  0.42908400  0.48693500  1
  C  86  1  0.32724400  0.50447700  0.59757100  1
  C  91  1  0.48497600  0.00779400  0.48020900  1
  C  92  1  0.39272700  0.02969800  0.49149900  1
  C  93  1  0.32655500  0.05182200  0.46590000  1
  C  94  1  0.34973700  0.04908500  0.42758600  1
  C  95  1  0.44072200  0.02661500  0.41529600  1
  C  96  1  0.50912900  0.00714200  0.44181800  1
  C  99  1  0.55143000  0.98740800  0.50747900  1
  C  100  1  0.58275800  0.01331400  0.53940500  1
  C  101  1  0.64363300  0.99152200  0.56714600  1
  C  102  1  0.67962200  0.94441600  0.56154500  1
  C  103  1  0.65045900  0.91852200  0.52966600  1
  C  104  1  0.58557000  0.93989300  0.50330500  1
  C  113  1  0.68586900  0.87276700  0.52469700  1
  C  114  1  0.46170200  0.02554400  0.37757800  1
  C  115  1  0.24302600  0.07704700  0.47902900  1
  C  116  1  0.66895600  0.01601600  0.59923000  1
  C  121  1  0.34288600  0.14587000  0.01302200  1
  C  122  1  0.35669800  0.16741400  0.04796800  1
  C  123  1  0.41605200  0.20892300  0.05141300  1
  C  124  1  0.46294800  0.23014000  0.02010200  1
  C  125  1  0.44666300  0.20866700  0.98506500  1
  C  126  1  0.38678000  0.16726500  0.98151100  1
  C  129  1  0.52540000  0.27161300  0.02394400  1
  C  130  1  0.59718900  0.27532500  0.05316900  1
  C  131  1  0.65809500  0.31620400  0.05740500  1
  C  132  1  0.64934300  0.35473000  0.03259400  1
  C  133  1  0.57842400  0.35130200  0.00316900  1
  C  134  1  0.51761700  0.31028800  0.99890900  1
  C  143  1  0.82127000  0.34959700  0.49801200  1
  C  144  1  0.82938600  0.32653000  0.46342600  1
  C  145  1  0.89360900  0.28680100  0.45922100  1
  C  146  1  0.95070000  0.26888300  0.48950000  1
  C  147  1  0.93950600  0.29140600  0.52437600  1
  C  148  1  0.87515000  0.33121000  0.52863600  1
  C  151  1  0.01967900  0.23012200  0.48453000  1
  C  152  1  0.08845700  0.22974800  0.45425800  1
  C  153  1  0.15722000  0.19190600  0.44912500  1
  C  154  1  0.15871800  0.15313100  0.47388000  1
  C  155  1  0.09069300  0.15322700  0.50429900  1
  C  156  1  0.02238400  0.19137200  0.50960100  1
  C  165  1  0.65223100  0.85592500  0.01728800  1
  C  166  1  0.58124500  0.85781500  0.98800000  1
  C  167  1  0.50988500  0.82082200  0.98320500  1
  C  168  1  0.50754600  0.78124800  0.00755700  1
  C  169  1  0.57937200  0.78004000  0.03694300  1
  C  170  1  0.65103300  0.81690000  0.04177400  1
  C  173  1  0.43646700  0.74323800  0.00218300  1
  C  174  1  0.41965000  0.72389700  0.96647300  1
  C  175  1  0.35248700  0.68539800  0.96116000  1
  C  176  1  0.29903900  0.66531300  0.99140400  1
  C  177  1  0.31588500  0.68416000  0.02707700  1
  C  178  1  0.38303400  0.72273400  0.03236500  1
  C  187  1  0.14558300  0.62733000  0.47023200  1
  C  188  1  0.07288500  0.62667200  0.49898900  1
  C  189  1  0.00749200  0.66585600  0.50434400  1
  C  190  1  0.01306700  0.70651000  0.48114800  1
  C  191  1  0.08714200  0.70660700  0.45248800  1
  C  192  1  0.15277100  0.66751900  0.44706400  1
  C  195  1  0.94656800  0.74626900  0.48667400  1
  C  196  1  0.92701500  0.76393800  0.52273900  1
  C  197  1  0.86278500  0.80342800  0.52831200  1
  C  198  1  0.81525400  0.82617000  0.49795600  1
  C  199  1  0.83560800  0.80946900  0.46190800  1
  C  200  1  0.89948800  0.76975600  0.45638800  1
  C  209  1  0.36706100  0.00425200  0.32400200  1
  C  210  1  0.38193200  0.04579600  0.30251300  1
  C  211  1  0.33364800  0.05096400  0.26790300  1
  C  212  1  0.26891900  0.01491900  0.25367300  1
  C  213  1  0.25521700  0.97327300  0.27523500  1
  C  214  1  0.30338000  0.96809100  0.30985000  1
  C  217  1  0.21612300  0.02100200  0.21933200  1
  C  218  1  0.16585600  0.06434400  0.21090900  1
  C  219  1  0.10975000  0.06973300  0.17791900  1
  C  220  1  0.10435400  0.03238100  0.15179300  1
  C  221  1  0.15175100  0.98864600  0.16054000  1
  C  222  1  0.20809800  0.98327000  0.19346900  1
  C  231  1  0.64899100  0.49236800  0.32847000  1
  C  232  1  0.63071000  0.45172800  0.30629900  1
  C  233  1  0.67638500  0.44728300  0.27116000  1
  C  234  1  0.74179200  0.48316000  0.25706700  1
  C  235  1  0.75861300  0.52397500  0.27929800  1
  C  236  1  0.71308500  0.52843500  0.31443500  1
  C  239  1  0.79309700  0.47752900  0.22236200  1
  C  240  1  0.84114100  0.43394900  0.21304400  1
  C  241  1  0.89728400  0.42911200  0.18001600  1
  C  242  1  0.90492000  0.46727200  0.15466800  1
  C  243  1  0.85947000  0.51115400  0.16426800  1
  C  244  1  0.80303200  0.51599100  0.19723600  1
  C  253  1  0.67327300  0.00699600  0.66583300  1
  C  254  1  0.64702100  0.97225800  0.69236100  1
  C  255  1  0.67435000  0.97799200  0.72975100  1
  C  256  1  0.72872000  0.01873500  0.74172700  1
  C  257  1  0.75220800  0.05421800  0.71519600  1
  C  258  1  0.72542900  0.04834800  0.67767700  1
  C  261  1  0.76380100  0.02240500  0.77901000  1
  C  262  1  0.81539100  0.98377000  0.79594400  1
  C  263  1  0.85239900  0.98723900  0.83240600  1
  C  264  1  0.83705300  0.02919200  0.85309100  1
  C  265  1  0.78712100  0.06816300  0.83639300  1
  C  266  1  0.75084900  0.06476700  0.79975200  1
  C  275  1  0.31343300  0.50950600  0.66392700  1
  C  276  1  0.32718100  0.54373600  0.69205900  1
  C  277  1  0.29444500  0.53471000  0.72849600  1
  C  278  1  0.24820100  0.49083800  0.73797200  1
  C  279  1  0.23713900  0.45601000  0.70992500  1
  C  280  1  0.26885000  0.46526100  0.67334500  1
  C  283  1  0.21030300  0.48281900  0.77443700  1
  C  284  1  0.14522000  0.51658900  0.79150100  1
  C  285  1  0.10545900  0.50860200  0.82715200  1
  C  286  1  0.13191400  0.46724700  0.84705300  1
  C  287  1  0.19662600  0.43326200  0.83027000  1
  C  288  1  0.23481000  0.44086500  0.79427200  1
  H  7  1  0.18299100  0.01481300  0.98437500  1
  H  16  1  0.03771600  0.91059700  0.00552700  1
  H  19  1  0.89955700  0.99133600  0.07528200  1
  H  20  1  0.90104400  0.06960500  0.99023500  1
  H  21  1  0.28376000  0.05643500  0.11159600  1
  H  22  1  0.74326400  0.91803700  0.92250700  1
  H  27  1  0.92233800  0.83244200  0.95706700  1
  H  28  1  0.98971200  0.08732300  0.08711800  1
  H  29  1  0.37052200  0.06098000  0.03731400  1
  H  30  1  0.78309300  0.04445100  0.92774900  1
  H  37  1  0.82908100  0.49793100  0.98901700  1
  H  46  1  0.04809500  0.58250100  0.01007800  1
  H  49  1  0.12020900  0.50342300  0.07886300  1
  H  50  1  0.05133500  0.41308800  0.98773200  1
  H  51  1  0.72296000  0.45426900  0.11267300  1
  H  52  1  0.30001100  0.53425800  0.91781500  1
  H  57  1  0.17988900  0.63046600  0.93803400  1
  H  58  1  0.01824900  0.41245100  0.09015400  1
  H  59  1  0.68420200  0.44138500  0.00109200  1
  H  60  1  0.14598500  0.42006100  0.91777400  1
  H  67  1  0.64089100  0.47624800  0.52474100  1
  H  76  1  0.48930000  0.58848400  0.48199900  1
  H  79  1  0.36806000  0.49432200  0.43667100  1
  H  80  1  0.38933300  0.43600300  0.53120600  1
  H  81  1  0.78329800  0.44890900  0.40279800  1
  H  82  1  0.22215300  0.59859900  0.57627600  1
  H  87  1  0.37443800  0.67624700  0.51917100  1
  H  88  1  0.48538800  0.46835700  0.37484100  1
  H  89  1  0.84063600  0.43423100  0.47253600  1
  H  90  1  0.28669600  0.47488800  0.59425800  1
  H  97  1  0.37438300  0.03049100  0.51911300  1
  H  106  1  0.56233500  0.92034500  0.48085200  1
  H  109  1  0.65155200  0.01178700  0.43327800  1
  H  110  1  0.60063400  0.07891600  0.52928700  1
  H  111  1  0.22974300  0.04695700  0.39816900  1
  H  112  1  0.81238300  0.93286100  0.58050600  1
  H  117  1  0.66368200  0.84768100  0.54243300  1
  H  118  1  0.53460900  0.02740900  0.37003800  1
  H  119  1  0.19941900  0.06311600  0.49879000  1
  H  120  1  0.70095500  0.04798500  0.59741300  1
  H  127  1  0.48013700  0.22240900  0.96178700  1
  H  128  1  0.37732600  0.15222700  0.95591700  1
  H  135  1  0.60689700  0.24794400  0.07153100  1
  H  136  1  0.70902500  0.31761700  0.07893000  1
  H  137  1  0.56971100  0.37866300  0.98479200  1
  H  138  1  0.32361200  0.15297800  0.07107100  1
  H  139  1  0.46566200  0.30946300  0.97773200  1
  H  140  1  0.42370900  0.22381500  0.07713200  1
  H  149  1  0.98053900  0.27992800  0.54679300  1
  H  150  1  0.86998600  0.34745500  0.55394200  1
  H  157  1  0.09055100  0.25753600  0.43593700  1
  H  158  1  0.20632900  0.19292700  0.42704000  1
  H  159  1  0.09071500  0.12582400  0.52291600  1
  H  160  1  0.78932300  0.33877400  0.44104200  1
  H  161  1  0.97333100  0.19017600  0.53166100  1
  H  162  1  0.89808800  0.27100100  0.43372400  1
  H  171  1  0.58177300  0.75169900  0.05472900  1
  H  172  1  0.70246300  0.81487500  0.06310000  1
  H  179  1  0.45915800  0.73650800  0.94406100  1
  H  180  1  0.34539200  0.67125100  0.93518700  1
  H  181  1  0.27960400  0.66974800  0.04956300  1
  H  182  1  0.58088600  0.88601100  0.97002500  1
  H  183  1  0.39247400  0.73573400  0.05862100  1
  H  184  1  0.45857000  0.82343100  0.96190900  1
  H  193  1  0.09524700  0.73556200  0.43554700  1
  H  194  1  0.20559100  0.66864700  0.42615100  1
  H  201  1  0.96192900  0.74912100  0.54533000  1
  H  202  1  0.85272600  0.81616800  0.55461800  1
  H  203  1  0.80367400  0.82600600  0.43945000  1
  H  204  1  0.06647900  0.59766000  0.51600500  1
  H  205  1  0.91090400  0.75802600  0.42987700  1
  H  206  1  0.95418000  0.66394100  0.52502900  1
  H  215  1  0.20706700  0.94683600  0.26653400  1
  H  216  1  0.28961500  0.93801100  0.32507900  1
  H  223  1  0.16618900  0.09191800  0.22942800  1
  H  224  1  0.07137500  0.10088000  0.17327300  1
  H  225  1  0.14533500  0.96035600  0.14284600  1
  H  226  1  0.42668900  0.07294700  0.31215200  1
  H  227  1  0.24270500  0.95124600  0.19846600  1
  H  228  1  0.34628000  0.08151400  0.25316100  1
  H  237  1  0.80748100  0.55020300  0.27074700  1
  H  238  1  0.72925800  0.55784900  0.33013500  1
  H  245  1  0.83972000  0.40582400  0.23105100  1
  H  246  1  0.93443900  0.39777600  0.17485000  1
  H  247  1  0.86779200  0.54002000  0.14725600  1
  H  248  1  0.58563900  0.42464200  0.31585600  1
  H  249  1  0.77028200  0.54824900  0.20292800  1
  H  250  1  0.66163300  0.41729900  0.25598100  1
  H  259  1  0.79357300  0.08363200  0.72260600  1
  H  260  1  0.74747700  0.07367600  0.65900000  1
  H  267  1  0.82901900  0.95305300  0.78151900  1
  H  268  1  0.89103200  0.95908200  0.84369000  1
  H  269  1  0.77694000  0.09916100  0.85081600  1
  H  270  1  0.61060100  0.94161800  0.68446600  1
  H  271  1  0.71391000  0.09341600  0.78846800  1
  H  272  1  0.65555800  0.95161100  0.74808400  1
  H  281  1  0.20258400  0.42414700  0.71560300  1
  H  282  1  0.25796600  0.43961900  0.65365900  1
  H  289  1  0.12401900  0.54687200  0.77773000  1
  H  290  1  0.05787000  0.53347500  0.83865700  1
  H  291  1  0.21537400  0.40264500  0.84402200  1
  H  292  1  0.35920500  0.57609700  0.68605600  1
  H  293  1  0.28191900  0.41575100  0.78286100  1
  H  294  1  0.30462500  0.56061400  0.74809100  1
  N  141  1  0.70878000  0.39209900  0.03914500  1
  N  142  1  0.28694100  0.10679600  0.00928000  1
  N  163  1  0.22671600  0.11935700  0.46696300  1
  N  164  1  0.76264000  0.38771800  0.50205000  1
  N  185  1  0.24079500  0.62672100  0.98835800  1
  N  186  1  0.71600500  0.88875800  0.02153700  1
  N  207  1  0.76070900  0.86557600  0.50235800  1
  N  208  1  0.20311900  0.59227400  0.46516800  1
  N  229  1  0.03958800  0.03514700  0.12038700  1
  N  230  1  0.40442700  0.99797000  0.35789500  1
  N  251  1  0.97107700  0.46500100  0.12358400  1
  N  252  1  0.61474200  0.49778600  0.36287500  1
  N  273  1  0.87485200  0.03262700  0.88690400  1
  N  274  1  0.65443300  0.99601600  0.63078500  1
  N  295  1  0.09151400  0.46121400  0.88033300  1
  N  296  1  0.34218300  0.52198900  0.63000100  1
  O  8  1  0.27121200  0.02838400  0.09596500  1
  O  15  1  0.81141700  0.92098000  0.91127000  1
  O  17  1  0.96106500  0.97416400  0.06715500  1
  O  18  1  0.95123700  0.05991600  0.97142500  1
  O  38  1  0.74238100  0.48061200  0.09619200  1
  O  45  1  0.23186000  0.54348000  0.90886200  1
  O  47  1  0.06263900  0.52316700  0.07049300  1
  O  48  1  0.01005600  0.43114500  0.96983200  1
  O  68  1  0.73093900  0.42591200  0.41064500  1
  O  75  1  0.29348200  0.60220500  0.58437800  1
  O  77  1  0.42449700  0.51680300  0.43249400  1
  O  78  1  0.44082500  0.45248300  0.54634100  1
  O  98  1  0.28574800  0.06970100  0.40226900  1
  O  105  1  0.74234100  0.92337200  0.58706500  1
  O  107  1  0.59864100  0.98728300  0.43001500  1
  O  108  1  0.55313300  0.05955000  0.54406400  1
