# generated using pymatgen
data_H21C29N3
_symmetry_space_group_name_H-M   'P 1'
_cell_length_a   9.92293333
_cell_length_b   37.42402963
_cell_length_c   37.43170000
_cell_angle_alpha   119.94831666
_cell_angle_beta   90.00000000
_cell_angle_gamma   90.00000000
_symmetry_Int_Tables_number   1
_chemical_formula_structural   H21C29N3
_chemical_formula_sum   'H63 C87 N9'
_cell_volume   12044.44376532
_cell_formula_units_Z   3
loop_
 _symmetry_equiv_pos_site_id
 _symmetry_equiv_pos_as_xyz
  1  'x, y, z'
loop_
 _atom_site_type_symbol
 _atom_site_label
 _atom_site_symmetry_multiplicity
 _atom_site_fract_x
 _atom_site_fract_y
 _atom_site_fract_z
 _atom_site_occupancy
  C  1  1  0.98977800  0.54504800  0.46056400  1
  C  2  1  0.97299900  0.52638800  0.41734900  1
  C  3  1  0.97105900  0.55027400  0.39782200  1
  C  4  1  0.98643800  0.59363700  0.42093800  1
  C  5  1  0.00438500  0.61227400  0.46408700  1
  C  6  1  0.00709100  0.58832800  0.48354800  1
  C  7  1  0.97530800  0.61822400  0.40283100  1
  C  8  1  0.04430700  0.61187400  0.36915800  1
  C  9  1  0.03451700  0.63646800  0.35088200  1
  C  10  1  0.03534900  0.68011100  0.37447900  1
  C  11  1  0.03467500  0.70483200  0.35563600  1
  C  12  1  0.03570700  0.68482400  0.31199600  1
  C  13  1  0.03492600  0.64128900  0.28731900  1
  C  14  1  0.03561100  0.61765100  0.30735600  1
  C  15  1  0.04479300  0.62303500  0.24448500  1
  C  16  1  0.97611300  0.58929600  0.21717700  1
  C  17  1  0.98733500  0.57121200  0.17452300  1
  C  18  1  0.00567600  0.52807300  0.15006000  1
  C  19  1  0.97139200  0.59432400  0.15425900  1
  C  20  1  0.97333800  0.57480800  0.11088300  1
  C  21  1  0.99054000  0.53160000  0.08637500  1
  C  22  1  0.00846300  0.50862500  0.10669000  1
  C  23  1  0.04432400  0.74767800  0.38022200  1
  C  24  1  0.97621800  0.77503000  0.37367800  1
  C  25  1  0.98716400  0.81768500  0.39833900  1
  C  26  1  0.96953800  0.83781100  0.44161000  1
  C  27  1  0.00694600  0.84228200  0.37984100  1
  C  28  1  0.00944500  0.88565500  0.40384000  1
  C  29  1  0.98993700  0.90584600  0.44703100  1
  C  30  1  0.97133100  0.88118700  0.46554400  1
  C  52  1  0.98099700  0.44920400  0.54141100  1
  C  53  1  0.00160400  0.46741300  0.58442600  1
  C  54  1  0.99793600  0.44344100  0.60389000  1
  C  55  1  0.97561500  0.40031500  0.58086700  1
  C  56  1  0.95700600  0.38209600  0.53777400  1
  C  57  1  0.96024200  0.40606400  0.51837600  1
  C  58  1  0.96403000  0.37587900  0.59924100  1
  C  59  1  0.04463000  0.37843700  0.62938800  1
  C  60  1  0.03365600  0.35301200  0.64659900  1
  C  61  1  0.03450800  0.30948700  0.62170100  1
  C  62  1  0.03368700  0.28367600  0.63930900  1
  C  63  1  0.03463300  0.30227000  0.68283500  1
  C  64  1  0.03374800  0.34566100  0.70860200  1
  C  65  1  0.03459800  0.37059500  0.68998100  1
  C  66  1  0.04485400  0.36282800  0.75120000  1
  C  67  1  0.96451000  0.39303600  0.77878800  1
  C  68  1  0.97623400  0.41138200  0.82155600  1
  C  69  1  0.95782200  0.45449200  0.84639400  1
  C  70  1  0.99831300  0.38832100  0.84166500  1
  C  71  1  0.00199700  0.40776300  0.88506300  1
  C  72  1  0.98166700  0.45079600  0.90982700  1
  C  73  1  0.96109300  0.47386600  0.88972200  1
  C  74  1  0.04479300  0.24107200  0.61389700  1
  C  75  1  0.96484700  0.21342800  0.61660000  1
  C  76  1  0.97650600  0.17066300  0.59210100  1
  C  77  1  0.99745200  0.15069100  0.54892300  1
  C  78  1  0.95902700  0.14569600  0.61030600  1
  C  79  1  0.96218100  0.10236700  0.58627700  1
  C  80  1  0.98180700  0.08240800  0.54310500  1
  C  81  1  0.00110000  0.10729300  0.52489200  1
  C  103  1  0.97975700  0.47046500  0.95381000  1
  C  104  1  0.87019200  0.49534700  0.97751300  1
  C  105  1  0.87291300  0.51571700  0.02136700  1
  C  106  1  0.98514800  0.51149400  0.04241500  1
  C  107  1  0.09208600  0.48561300  0.01847800  1
  C  108  1  0.08937200  0.46550300  0.97509400  1
  C  110  1  0.65239500  0.54270800  0.02354400  1
  C  111  1  0.64789900  0.52220300  0.98018500  1
  C  117  1  0.41847700  0.50063400  0.95831000  1
  C  122  1  0.97907200  0.47353900  0.52172400  1
  C  123  1  0.86952600  0.47237500  0.49682500  1
  C  124  1  0.87224700  0.49588200  0.47644000  1
  C  125  1  0.98445300  0.52115800  0.48066400  1
  C  126  1  0.09136200  0.52309100  0.50656300  1
  C  127  1  0.08867600  0.49978400  0.52667500  1
  C  129  1  0.65175000  0.47110200  0.44945100  1
  C  130  1  0.64724000  0.44822600  0.46997400  1
  C  136  1  0.41782700  0.44793300  0.49157100  1
  C  141  1  0.97974100  0.03843600  0.51872600  1
  C  142  1  0.87003100  0.01472900  0.51984200  1
  C  143  1  0.87247400  0.97087200  0.49624200  1
  C  144  1  0.98465800  0.94982300  0.47096200  1
  C  145  1  0.09178900  0.97379300  0.46912700  1
  C  146  1  0.08928400  0.01718000  0.49247400  1
  C  148  1  0.65180400  0.96871300  0.52098600  1
  C  149  1  0.64768300  0.01207800  0.54399000  1
  C  155  1  0.41846600  0.03422400  0.54449100  1
  H  31  1  0.96068600  0.49513200  0.39967800  1
  H  32  1  0.95508600  0.53576100  0.36665400  1
  H  33  1  0.01728500  0.60300800  0.51494100  1
  H  34  1  0.01400000  0.64363100  0.48190000  1
  H  35  1  0.04030800  0.58612100  0.28993200  1
  H  36  1  0.03977400  0.69418300  0.40600800  1
  H  37  1  0.04039400  0.70227200  0.29789300  1
  H  38  1  0.95222900  0.82109400  0.45601400  1
  H  39  1  0.01568600  0.51025800  0.16361700  1
  H  40  1  0.01881700  0.47723100  0.09001600  1
  H  41  1  0.96059900  0.59247900  0.09729000  1
  H  42  1  0.95509700  0.62548000  0.17087400  1
  H  43  1  0.95758500  0.89466500  0.49673600  1
  H  44  1  0.02101900  0.90242300  0.38923700  1
  H  45  1  0.01824100  0.82882600  0.34854200  1
  H  46  1  0.91433100  0.57569300  0.22771600  1
  H  47  1  0.10636700  0.63641600  0.23362600  1
  H  48  1  0.91338600  0.64231400  0.41637000  1
  H  49  1  0.10604900  0.58768900  0.35584500  1
  H  50  1  0.91505200  0.76454400  0.34942300  1
  H  51  1  0.10522300  0.75852200  0.40459800  1
  H  82  1  0.01483200  0.49861800  0.60223000  1
  H  83  1  0.00856800  0.45802800  0.63525700  1
  H  84  1  0.94677300  0.39162500  0.48710700  1
  H  85  1  0.94006100  0.35103900  0.51997400  1
  H  86  1  0.03913800  0.40205300  0.70830200  1
  H  87  1  0.03897600  0.29638300  0.59024500  1
  H  88  1  0.03927900  0.28392200  0.69596300  1
  H  89  1  0.00730800  0.16754200  0.53435900  1
  H  90  1  0.94100700  0.47231900  0.83313400  1
  H  91  1  0.94776900  0.50514900  0.90652500  1
  H  92  1  0.01517000  0.38993500  0.89846800  1
  H  93  1  0.00881400  0.35694200  0.82491300  1
  H  94  1  0.01361600  0.09398100  0.49366900  1
  H  95  1  0.94948300  0.08545600  0.60069100  1
  H  96  1  0.94294300  0.15885800  0.64139200  1
  H  97  1  0.89318500  0.40405300  0.76816300  1
  H  98  1  0.11704900  0.35172000  0.76141300  1
  H  99  1  0.89261000  0.35427800  0.58828900  1
  H  100  1  0.11691200  0.39971600  0.64042500  1
  H  101  1  0.89380000  0.22399400  0.63830700  1
  H  102  1  0.11662500  0.23089300  0.59248200  1
  H  113  1  0.57366600  0.56038900  0.04100300  1
  H  114  1  0.17040000  0.44778300  0.95911100  1
  H  115  1  0.17492000  0.48178300  0.03253700  1
  H  118  1  0.56055600  0.51684600  0.92933800  1
  H  119  1  0.38355700  0.51037300  0.98954000  1
  H  120  1  0.44440100  0.46785100  0.94284900  1
  H  121  1  0.33548100  0.50483000  0.94158000  1
  H  132  1  0.57305200  0.47088400  0.43175100  1
  H  133  1  0.16967500  0.50151900  0.54441200  1
  H  134  1  0.17415800  0.54099700  0.51040000  1
  H  137  1  0.55984000  0.40275200  0.47537500  1
  H  138  1  0.38293300  0.46943600  0.48181800  1
  H  139  1  0.44379200  0.46521700  0.52434500  1
  H  140  1  0.33480200  0.42702900  0.48740100  1
  H  151  1  0.57293000  0.95125700  0.52115400  1
  H  152  1  0.17039000  0.03318100  0.49078900  1
  H  153  1  0.17463300  0.95975200  0.45125300  1
  H  156  1  0.56077800  0.06287600  0.58961900  1
  H  157  1  0.38328000  0.00305700  0.52292100  1
  H  158  1  0.44455100  0.04983700  0.52730600  1
  H  159  1  0.33560400  0.05094000  0.56545900  1
  N  109  1  0.76321400  0.53842000  0.04221300  1
  N  112  1  0.75745400  0.49962500  0.95925500  1
  N  116  1  0.53486700  0.52589800  0.95926600  1
  N  128  1  0.76257400  0.49404600  0.45372500  1
  N  131  1  0.75677700  0.44985200  0.49256200  1
  N  135  1  0.53417400  0.42363700  0.46630700  1
  N  147  1  0.76253700  0.95004100  0.49800900  1
  N  150  1  0.75742800  0.03300300  0.54241800  1
  N  154  1  0.53482400  0.03300200  0.56866300  1
