# generated using pymatgen
data_DyH7(C5O2)3
_symmetry_space_group_name_H-M   'P 1'
_cell_length_a   14.41100000
_cell_length_b   14.42678000
_cell_length_c   33.08310000
_cell_angle_alpha   102.40746000
_cell_angle_beta   102.40471000
_cell_angle_gamma   90.05084000
_symmetry_Int_Tables_number   1
_chemical_formula_structural   DyH7(C5O2)3
_chemical_formula_sum   'Dy12 H84 C180 O72'
_cell_volume   6552.67040672
_cell_formula_units_Z   12
loop_
 _symmetry_equiv_pos_site_id
 _symmetry_equiv_pos_as_xyz
  1  'x, y, z'
loop_
 _atom_site_type_symbol
 _atom_site_label
 _atom_site_symmetry_multiplicity
 _atom_site_fract_x
 _atom_site_fract_y
 _atom_site_fract_z
 _atom_site_occupancy
  Dy  Dy0  1  0.15950000  0.95042000  0.88122000  1
  Dy  Dy1  1  0.71617000  0.93543000  0.88016000  1
  Dy  Dy2  1  0.06427000  0.83752000  0.12014000  1
  Dy  Dy3  1  0.05213000  0.27833000  0.11825000  1
  Dy  Dy4  1  0.08900000  0.81678000  0.61907000  1
  Dy  Dy5  1  0.53242000  0.80365000  0.61893000  1
  Dy  Dy6  1  0.18291000  0.46832000  0.38102000  1
  Dy  Dy7  1  0.19413000  0.91336000  0.38100000  1
  Dy  Dy8  1  0.45435000  0.95791000  0.91349000  1
  Dy  Dy9  1  0.04650000  0.54497000  0.08667000  1
  Dy  Dy10  1  0.79258000  0.79530000  0.58573000  1
  Dy  Dy11  1  0.20802000  0.20636000  0.41513000  1
  H  H12  1  0.20121000  0.16756000  0.00332000  1
  H  H13  1  0.22825000  0.47158000  0.02338000  1
  H  H14  1  0.31399000  0.45461000  0.96471000  1
  H  H15  1  0.47795000  0.38614000  0.95050000  1
  H  H16  1  0.55468000  0.37147000  0.88942000  1
  H  H17  1  0.48214000  0.26472000  0.82023000  1
  H  H18  1  0.24765000  0.19651000  0.87169000  1
  H  H19  1  0.29238000  0.25216000  0.76159000  1
  H  H20  1  0.21397000  0.13135000  0.69708000  1
  H  H21  1  0.25332000  0.91459000  0.76912000  1
  H  H22  1  0.80114000  0.83594000  0.00308000  1
  H  H23  1  0.79575000  0.55152000  0.02338000  1
  H  H24  1  0.65208000  0.51072000  0.96519000  1
  H  H25  1  0.47248000  0.56413000  0.95112000  1
  H  H26  1  0.33549000  0.51795000  0.89036000  1
  H  H27  1  0.33920000  0.55570000  0.82080000  1
  H  H28  1  0.62392000  0.67565000  0.87154000  1
  H  H29  1  0.46952000  0.51017000  0.76207000  1
  H  H30  1  0.48317000  0.56693000  0.69716000  1
  H  H31  1  0.51570000  0.85484000  0.76880000  1
  H  H32  1  0.16439000  0.79905000  0.99688000  1
  H  H33  1  0.44823000  0.77238000  0.97610000  1
  H  H34  1  0.48965000  0.68662000  0.03462000  1
  H  H35  1  0.43567000  0.52191000  0.04918000  1
  H  H36  1  0.48189000  0.44550000  0.11018000  1
  H  H37  1  0.44458000  0.51808000  0.17965000  1
  H  H38  1  0.32476000  0.75242000  0.12840000  1
  H  H39  1  0.49070000  0.70751000  0.23841000  1
  H  H40  1  0.43377000  0.78611000  0.30311000  1
  H  H41  1  0.14580000  0.74750000  0.23144000  1
  H  H42  1  0.83324000  0.19822000  0.99676000  1
  H  H43  1  0.52921000  0.20534000  0.97698000  1
  H  H44  1  0.54659000  0.34896000  0.03526000  1
  H  H45  1  0.61356000  0.52746000  0.04922000  1
  H  H46  1  0.62807000  0.66451000  0.11002000  1
  H  H47  1  0.73510000  0.66104000  0.17933000  1
  H  H48  1  0.80410000  0.37596000  0.12840000  1
  H  H49  1  0.74845000  0.53058000  0.23816000  1
  H  H50  1  0.86909000  0.51683000  0.30281000  1
  H  H51  1  0.08589000  0.48408000  0.23080000  1
  H  H52  1  0.04882000  0.91429000  0.49691000  1
  H  H53  1  0.02212000  0.19838000  0.47638000  1
  H  H54  1  0.93628000  0.23926000  0.53496000  1
  H  H55  1  0.77176000  0.18560000  0.54911000  1
  H  H56  1  0.69502000  0.23219000  0.61013000  1
  H  H57  1  0.76800000  0.19460000  0.67964000  1
  H  H58  1  0.00209000  0.07475000  0.62842000  1
  H  H59  1  0.95696000  0.24076000  0.73779000  1
  H  H60  1  0.03580000  0.18369000  0.80266000  1
  H  H61  1  0.99667000  0.89567000  0.73097000  1
  H  H62  1  0.44850000  0.58297000  0.49675000  1
  H  H63  1  0.45510000  0.27870000  0.47683000  1
  H  H64  1  0.59860000  0.29599000  0.53517000  1
  H  H65  1  0.77753000  0.36349000  0.54928000  1
  H  H66  1  0.91461000  0.37818000  0.61009000  1
  H  H67  1  0.91099000  0.48515000  0.67936000  1
  H  H68  1  0.62584000  0.55389000  0.62837000  1
  H  H69  1  0.78066000  0.49807000  0.73835000  1
  H  H70  1  0.76694000  0.61893000  0.80303000  1
  H  H71  1  0.73399000  0.83565000  0.73091000  1
  H  H72  1  0.08560000  0.55094000  0.50305000  1
  H  H73  1  0.80129000  0.54585000  0.52354000  1
  H  H74  1  0.76017000  0.40238000  0.46530000  1
  H  H75  1  0.81401000  0.22240000  0.45112000  1
  H  H76  1  0.76796000  0.08549000  0.39033000  1
  H  H77  1  0.80575000  0.08934000  0.32078000  1
  H  H78  1  0.92551000  0.37404000  0.37161000  1
  H  H79  1  0.76052000  0.21939000  0.26221000  1
  H  H80  1  0.81692000  0.23322000  0.19726000  1
  H  H81  1  0.10502000  0.26597000  0.26883000  1
  H  H82  1  0.41769000  0.95139000  0.50333000  1
  H  H83  1  0.72190000  0.97822000  0.52341000  1
  H  H84  1  0.70458000  0.06381000  0.46470000  1
  H  H85  1  0.63614000  0.22798000  0.45050000  1
  H  H86  1  0.62149000  0.30473000  0.38941000  1
  H  H87  1  0.51468000  0.23216000  0.32020000  1
  H  H88  1  0.44631000  0.99775000  0.37177000  1
  H  H89  1  0.50185000  0.04217000  0.26161000  1
  H  H90  1  0.38119000  0.96399000  0.19710000  1
  H  H91  1  0.16437000  0.00349000  0.26917000  1
  H  H92  1  0.92497000  0.92607000  0.85286000  1
  H  H93  1  0.07379000  0.07291000  0.14696000  1
  H  H94  1  0.32390000  0.82403000  0.64755000  1
  H  H95  1  0.17678000  0.67692000  0.35304000  1
  C  C96  1  0.30099000  0.12242000  0.94481000  1
  C  C97  1  0.28051000  0.22161000  0.96430000  1
  C  C98  1  0.22769000  0.23105000  0.99583000  1
  C  C99  1  0.20923000  0.32104000  0.01758000  1
  C  C100  1  0.24232000  0.40154000  0.00647000  1
  C  C101  1  0.29153000  0.39171000  0.97397000  1
  C  C102  1  0.31112000  0.30190000  0.95192000  1
  C  C103  1  0.15869000  0.33181000  0.05318000  1
  C  C104  1  0.35778000  0.29237000  0.91559000  1
  C  C105  1  0.44404000  0.34213000  0.91983000  1
  C  C106  1  0.48752000  0.33283000  0.88549000  1
  C  C107  1  0.44637000  0.27365000  0.84649000  1
  C  C108  1  0.36053000  0.22239000  0.84166000  1
  C  C109  1  0.31628000  0.23343000  0.87613000  1
  C  C110  1  0.31810000  0.15223000  0.80202000  1
  C  C111  1  0.28510000  0.17801000  0.76310000  1
  C  C112  1  0.24074000  0.11070000  0.72701000  1
  C  C113  1  0.22871000  0.01520000  0.72874000  1
  C  C114  1  0.26138000  0.98848000  0.76736000  1
  C  C115  1  0.30523000  0.05595000  0.80344000  1
  C  C116  1  0.18130000  0.94311000  0.69022000  1
  C  C117  1  0.34665000  0.02116000  0.84225000  1
  C  C118  1  0.64354000  0.82353000  0.94458000  1
  C  C119  1  0.68329000  0.74352000  0.96432000  1
  C  C120  1  0.76722000  0.76521000  0.99582000  1
  C  C121  1  0.80813000  0.69713000  0.01766000  1
  C  C122  1  0.76479000  0.60528000  0.00670000  1
  C  C123  1  0.68309000  0.58302000  0.97434000  1
  C  C124  1  0.64082000  0.65077000  0.95226000  1
  C  C125  1  0.89500000  0.72238000  0.05273000  1
  C  C126  1  0.55807000  0.62345000  0.91598000  1
  C  C127  1  0.47619000  0.57772000  0.92042000  1
  C  C128  1  0.39863000  0.55255000  0.88617000  1
  C  C129  1  0.40089000  0.57282000  0.84705000  1
  C  C130  1  0.48160000  0.61950000  0.84199000  1
  C  C131  1  0.56012000  0.64293000  0.87635000  1
  C  C132  1  0.48394000  0.65030000  0.80218000  1
  C  C133  1  0.47831000  0.58568000  0.76338000  1
  C  C134  1  0.48640000  0.61696000  0.72716000  1
  C  C135  1  0.50041000  0.71404000  0.72878000  1
  C  C136  1  0.50568000  0.77933000  0.76715000  1
  C  C137  1  0.49747000  0.74790000  0.80330000  1
  C  C138  1  0.50893000  0.74700000  0.68996000  1
  C  C139  1  0.49369000  0.82151000  0.84182000  1
  C  C140  1  0.17779000  0.70040000  0.05584000  1
  C  C141  1  0.25748000  0.72086000  0.03616000  1
  C  C142  1  0.23530000  0.77268000  0.00434000  1
  C  C143  1  0.30310000  0.79077000  0.98208000  1
  C  C144  1  0.39484000  0.75805000  0.99302000  1
  C  C145  1  0.41745000  0.70886000  0.02553000  1
  C  C146  1  0.35006000  0.68969000  0.04808000  1
  C  C147  1  0.27764000  0.84306000  0.94711000  1
  C  C148  1  0.37680000  0.64243000  0.08425000  1
  C  C149  1  0.42218000  0.55610000  0.07989000  1
  C  C150  1  0.44716000  0.51260000  0.11422000  1
  C  C151  1  0.42727000  0.55385000  0.15339000  1
  C  C152  1  0.38104000  0.63971000  0.15832000  1
  C  C153  1  0.35743000  0.68390000  0.12385000  1
  C  C154  1  0.35072000  0.68235000  0.19813000  1
  C  C155  1  0.41517000  0.71524000  0.23696000  1
  C  C156  1  0.38378000  0.75946000  0.27311000  1
  C  C157  1  0.28663000  0.77186000  0.27140000  1
  C  C158  1  0.22139000  0.73919000  0.23295000  1
  C  C159  1  0.25305000  0.69512000  0.19685000  1
  C  C160  1  0.25313000  0.81858000  0.31019000  1
  C  C161  1  0.18014000  0.65230000  0.15827000  1
  C  C162  1  0.87907000  0.35667000  0.05524000  1
  C  C163  1  0.77974000  0.31648000  0.03575000  1
  C  C164  1  0.76999000  0.23241000  0.00428000  1
  C  C165  1  0.67992000  0.19188000  0.98252000  1
  C  C166  1  0.59951000  0.23604000  0.99365000  1
  C  C167  1  0.60955000  0.31740000  0.02606000  1
  C  C168  1  0.69929000  0.35943000  0.04797000  1
  C  C169  1  0.66887000  0.10548000  0.94705000  1
  C  C170  1  0.70796000  0.44205000  0.08423000  1
  C  C171  1  0.65778000  0.52379000  0.07988000  1
  C  C172  1  0.66676000  0.60135000  0.11412000  1
  C  C173  1  0.72621000  0.59917000  0.15316000  1
  C  C174  1  0.77798000  0.51854000  0.15810000  1
  C  C175  1  0.76696000  0.43997000  0.12377000  1
  C  C176  1  0.84856000  0.51595000  0.19774000  1
  C  C177  1  0.82254000  0.52163000  0.23662000  1
  C  C178  1  0.88952000  0.51363000  0.27282000  1
  C  C179  1  0.98487000  0.49970000  0.27104000  1
  C  C180  1  0.01206000  0.49407000  0.23258000  1
  C  C181  1  0.94490000  0.50160000  0.19635000  1
  C  C182  1  0.05613000  0.49125000  0.30977000  1
  C  C183  1  0.98054000  0.50515000  0.15775000  1
  C  C184  1  0.94919000  0.92706000  0.55551000  1
  C  C185  1  0.96938000  0.00677000  0.53586000  1
  C  C186  1  0.02226000  0.98502000  0.50442000  1
  C  C187  1  0.04099000  0.05324000  0.48249000  1
  C  C188  1  0.00798000  0.14487000  0.49327000  1
  C  C189  1  0.95865000  0.16718000  0.52574000  1
  C  C190  1  0.93901000  0.09942000  0.54797000  1
  C  C191  1  0.09182000  0.02763000  0.44706000  1
  C  C192  1  0.89202000  0.12656000  0.58416000  1
  C  C193  1  0.80574000  0.17216000  0.57983000  1
  C  C194  1  0.76221000  0.19750000  0.61414000  1
  C  C195  1  0.80346000  0.17753000  0.65327000  1
  C  C196  1  0.88917000  0.13101000  0.65812000  1
  C  C197  1  0.93353000  0.10738000  0.62374000  1
  C  C198  1  0.93157000  0.10045000  0.69782000  1
  C  C199  1  0.96441000  0.16527000  0.73652000  1
  C  C200  1  0.00884000  0.13392000  0.77262000  1
  C  C201  1  0.02112000  0.03677000  0.77093000  1
  C  C202  1  0.98840000  0.97127000  0.73258000  1
  C  C203  1  0.94411000  0.00282000  0.69650000  1
  C  C204  1  0.06816000  0.00413000  0.80968000  1
  C  C205  1  0.90163000  0.93010000  0.65767000  1
  C  C206  1  0.60639000  0.62875000  0.55489000  1
  C  C207  1  0.56634000  0.52924000  0.53561000  1
  C  C208  1  0.48229000  0.51942000  0.50408000  1
  C  C209  1  0.44184000  0.42949000  0.48224000  1
  C  C210  1  0.48570000  0.34903000  0.49351000  1
  C  C211  1  0.56731000  0.35904000  0.52592000  1
  C  C212  1  0.60924000  0.44884000  0.54787000  1
  C  C213  1  0.35476000  0.41948000  0.44723000  1
  C  C214  1  0.69192000  0.45776000  0.58421000  1
  C  C215  1  0.77380000  0.40768000  0.57991000  1
  C  C216  1  0.85142000  0.41685000  0.61416000  1
  C  C217  1  0.84913000  0.47614000  0.65318000  1
  C  C218  1  0.76828000  0.52756000  0.65815000  1
  C  C219  1  0.68979000  0.51663000  0.62375000  1
  C  C220  1  0.76547000  0.59787000  0.69787000  1
  C  C221  1  0.77173000  0.57216000  0.73686000  1
  C  C222  1  0.76365000  0.63945000  0.77302000  1
  C  C223  1  0.74942000  0.73480000  0.77122000  1
  C  C224  1  0.74375000  0.76172000  0.73265000  1
  C  C225  1  0.75150000  0.69428000  0.69647000  1
  C  C226  1  0.74057000  0.80646000  0.80989000  1
  C  C227  1  0.75553000  0.72905000  0.65759000  1
  C  C228  1  0.07370000  0.39430000  0.44506000  1
  C  C229  1  0.99309000  0.43370000  0.46442000  1
  C  C230  1  0.01464000  0.51754000  0.49597000  1
  C  C231  1  0.94643000  0.55845000  0.51781000  1
  C  C232  1  0.85478000  0.51475000  0.50675000  1
  C  C233  1  0.83258000  0.43312000  0.47443000  1
  C  C234  1  0.90033000  0.39093000  0.45229000  1
  C  C235  1  0.97148000  0.64521000  0.55299000  1
  C  C236  1  0.87322000  0.30813000  0.41603000  1
  C  C237  1  0.82760000  0.22619000  0.42042000  1
  C  C238  1  0.80255000  0.14864000  0.38617000  1
  C  C239  1  0.82287000  0.15097000  0.34706000  1
  C  C240  1  0.86952000  0.23177000  0.34209000  1
  C  C241  1  0.89277000  0.31027000  0.37641000  1
  C  C242  1  0.90057000  0.23436000  0.30235000  1
  C  C243  1  0.83604000  0.22853000  0.26350000  1
  C  C244  1  0.86716000  0.23647000  0.22721000  1
  C  C245  1  0.96424000  0.25069000  0.22882000  1
  C  C246  1  0.02949000  0.25600000  0.26727000  1
  C  C247  1  0.99835000  0.24809000  0.30360000  1
  C  C248  1  0.99730000  0.25782000  0.18988000  1
  C  C249  1  0.07137000  0.24485000  0.34262000  1
  C  C250  1  0.37014000  0.04954000  0.44457000  1
  C  C251  1  0.47031000  0.03051000  0.46424000  1
  C  C252  1  0.48096000  0.97840000  0.49597000  1
  C  C253  1  0.57109000  0.95943000  0.51767000  1
  C  C254  1  0.65168000  0.99219000  0.50650000  1
  C  C255  1  0.64144000  0.04152000  0.47401000  1
  C  C256  1  0.55123000  0.06134000  0.45205000  1
  C  C257  1  0.58062000  0.90835000  0.55300000  1
  C  C258  1  0.54233000  0.10781000  0.41562000  1
  C  C259  1  0.59213000  0.19404000  0.41981000  1
  C  C260  1  0.58287000  0.23757000  0.38548000  1
  C  C261  1  0.52361000  0.19640000  0.34647000  1
  C  C262  1  0.47219000  0.11069000  0.34169000  1
  C  C263  1  0.48336000  0.06631000  0.37613000  1
  C  C264  1  0.40178000  0.06853000  0.30204000  1
  C  C265  1  0.42770000  0.03516000  0.26318000  1
  C  C266  1  0.36066000  0.99075000  0.22706000  1
  C  C267  1  0.26521000  0.97870000  0.22885000  1
  C  C268  1  0.23815000  0.01191000  0.26730000  1
  C  C269  1  0.30531000  0.05614000  0.30343000  1
  C  C270  1  0.19386000  0.93140000  0.19017000  1
  C  C271  1  0.27013000  0.09776000  0.34217000  1
  C  C272  1  0.94128000  0.94534000  0.88804000  1
  C  C273  1  0.05510000  0.05419000  0.11179000  1
  C  C274  1  0.30719000  0.80587000  0.61253000  1
  C  C275  1  0.19329000  0.69437000  0.38818000  1
  O  O276  1  0.22705000  0.06591000  0.93214000  1
  O  O277  1  0.38480000  0.09725000  0.94346000  1
  O  O278  1  0.15228000  0.26154000  0.07056000  1
  O  O279  1  0.12272000  0.41166000  0.06544000  1
  O  O280  1  0.14848000  0.96967000  0.65537000  1
  O  O281  1  0.17272000  0.85494000  0.69171000  1
  O  O282  1  0.29454000  0.97078000  0.85774000  1
  O  O283  1  0.43434000  0.03779000  0.85887000  1
  O  O284  1  0.02742000  0.96527000  0.90723000  1
  O  O285  1  0.70452000  0.86732000  0.93148000  1
  O  O286  1  0.55830000  0.84684000  0.94324000  1
  O  O287  1  0.91688000  0.80965000  0.07067000  1
  O  O288  1  0.94525000  0.65496000  0.06423000  1
  O  O289  1  0.50607000  0.68505000  0.65553000  1
  O  O290  1  0.51942000  0.83651000  0.69091000  1
  O  O291  1  0.55990000  0.88869000  0.85660000  1
  O  O292  1  0.42342000  0.82069000  0.85896000  1
  O  O293  1  0.87338000  0.94484000  0.90667000  1
  O  O294  1  0.13261000  0.77294000  0.06864000  1
  O  O295  1  0.15587000  0.61550000  0.05685000  1
  O  O296  1  0.19024000  0.84997000  0.93024000  1
  O  O297  1  0.34557000  0.88110000  0.93551000  1
  O  O298  1  0.31443000  0.84960000  0.34486000  1
  O  O299  1  0.16335000  0.82826000  0.30869000  1
  O  O300  1  0.11360000  0.70372000  0.14298000  1
  O  O301  1  0.18092000  0.56492000  0.14139000  1
  O  O302  1  0.05459000  0.96740000  0.09354000  1
  O  O303  1  0.93551000  0.29540000  0.06825000  1
  O  O304  1  0.90398000  0.44146000  0.05640000  1
  O  O305  1  0.73876000  0.08285000  0.92934000  1
  O  O306  1  0.58915000  0.05641000  0.93521000  1
  O  O307  1  0.02873000  0.49479000  0.34445000  1
  O  O308  1  0.14461000  0.48098000  0.30861000  1
  O  O309  1  0.03258000  0.43870000  0.14308000  1
  O  O310  1  0.96264000  0.57538000  0.14066000  1
  O  O311  1  0.03424000  0.12042000  0.09238000  1
  O  O312  1  0.02261000  0.88223000  0.56785000  1
  O  O313  1  0.86496000  0.90430000  0.55691000  1
  O  O314  1  0.09690000  0.94029000  0.42961000  1
  O  O315  1  0.13023000  0.09413000  0.43487000  1
  O  O316  1  0.09850000  0.06666000  0.84419000  1
  O  O317  1  0.07839000  0.91488000  0.80886000  1
  O  O318  1  0.95259000  0.86275000  0.64243000  1
  O  O319  1  0.81445000  0.93210000  0.64078000  1
  O  O320  1  0.22090000  0.80471000  0.59359000  1
  O  O321  1  0.54565000  0.68574000  0.56773000  1
  O  O322  1  0.69145000  0.65354000  0.55589000  1
  O  O323  1  0.33253000  0.48934000  0.42962000  1
  O  O324  1  0.30543000  0.33995000  0.43520000  1
  O  O325  1  0.74193000  0.77924000  0.84436000  1
  O  O326  1  0.73028000  0.89483000  0.80840000  1
  O  O327  1  0.68973000  0.78174000  0.64252000  1
  O  O328  1  0.82504000  0.70980000  0.64017000  1
  O  O329  1  0.37537000  0.78896000  0.59399000  1
  O  O330  1  0.11898000  0.45581000  0.43299000  1
  O  O331  1  0.09639000  0.30870000  0.44317000  1
  O  O332  1  0.05904000  0.66733000  0.57047000  1
  O  O333  1  0.90441000  0.69549000  0.56485000  1
  O  O334  1  0.93494000  0.25541000  0.15548000  1
  O  O335  1  0.08715000  0.26748000  0.19096000  1
  O  O336  1  0.13858000  0.31106000  0.35762000  1
  O  O337  1  0.06988000  0.17481000  0.35972000  1
  O  O338  1  0.19424000  0.62650000  0.40705000  1
  O  O339  1  0.31277000  0.97646000  0.43232000  1
  O  O340  1  0.34677000  0.13389000  0.44319000  1
  O  O341  1  0.51004000  0.90297000  0.57016000  1
  O  O342  1  0.65974000  0.87060000  0.56529000  1
  O  O343  1  0.22089000  0.90014000  0.15554000  1
  O  O344  1  0.10545000  0.92141000  0.19168000  1
  O  O345  1  0.21775000  0.04586000  0.35697000  1
  O  O346  1  0.28802000  0.18468000  0.35956000  1
  O  O347  1  0.21237000  0.78074000  0.40687000  1
