# generated using pymatgen
data_Cd5H14C28(N2O11)2
_symmetry_space_group_name_H-M   'P 1'
_cell_length_a   11.13003000
_cell_length_b   11.30421000
_cell_length_c   17.20184000
_cell_angle_alpha   98.50475000
_cell_angle_beta   108.82901000
_cell_angle_gamma   91.11171000
_symmetry_Int_Tables_number   1
_chemical_formula_structural   Cd5H14C28(N2O11)2
_chemical_formula_sum   'Cd10 H28 C56 N8 O44'
_cell_volume   2020.70892749
_cell_formula_units_Z   2
loop_
 _symmetry_equiv_pos_site_id
 _symmetry_equiv_pos_as_xyz
  1  'x, y, z'
loop_
 _atom_site_type_symbol
 _atom_site_label
 _atom_site_symmetry_multiplicity
 _atom_site_fract_x
 _atom_site_fract_y
 _atom_site_fract_z
 _atom_site_occupancy
  Cd  Cd1  1  0.09867000  0.22342000  0.46510000  1.0
  Cd  Cd2  1  0.78923000  0.28229000  0.43784000  1.0
  Cd  Cd3  1  0.17036000  0.79734000  0.93905000  1.0
  Cd  Cd4  1  0.17859000  0.87655000  0.74868000  1.0
  Cd  Cd5  1  0.26043000  0.09717000  0.96297000  1.0
  Cd  Cd6  1  0.90134000  0.77658000  0.53490000  1.0
  Cd  Cd7  1  0.21078000  0.71771000  0.56216000  1.0
  Cd  Cd8  1  0.82965000  0.20266000  0.06095000  1.0
  Cd  Cd9  1  0.82142000  0.12344000  0.25132000  1.0
  Cd  Cd10  1  0.73958000  0.90283000  0.03703000  1.0
  H  H1  1  0.38649000  0.38824000  0.85991000  1.0
  H  H2  1  0.43130000  0.54983000  0.78653000  1.0
  H  H3  1  0.38955000  0.49846000  0.62934000  1.0
  H  H4  1  0.08251000  0.38774000  0.87180000  1.0
  H  H5  1  0.01225000  0.18134000  0.78689000  1.0
  H  H6  1  0.95904000  0.15903000  0.63003000  1.0
  H  H7  1  0.09943000  0.35697000  0.11106000  1.0
  H  H8  1  0.15067000  0.37840000  0.26803000  1.0
  H  H9  1  0.36599000  0.32571000  0.35330000  1.0
  H  H10  1  0.38691000  0.03304000  0.36685000  1.0
  H  H11  1  0.52978000  0.96053000  0.28703000  1.0
  H  H12  1  0.43779000  0.92502000  0.12743000  1.0
  H  H13  1  0.88455000  0.06460000  0.41114000  1.0
  H  H14  1  0.36671000  0.90044000  0.90567000  1.0
  H  H15  1  0.61351000  0.61176000  0.14009000  1.0
  H  H16  1  0.56870000  0.45017000  0.21346000  1.0
  H  H17  1  0.61045000  0.50153000  0.37066000  1.0
  H  H18  1  0.91749000  0.61225000  0.12819000  1.0
  H  H19  1  0.98776000  0.81866000  0.21311000  1.0
  H  H20  1  0.04096000  0.84097000  0.36997000  1.0
  H  H21  1  0.90058000  0.64302000  0.88894000  1.0
  H  H22  1  0.84933000  0.62160000  0.73196000  1.0
  H  H23  1  0.63402000  0.67429000  0.64670000  1.0
  H  H24  1  0.61310000  0.96696000  0.63315000  1.0
  H  H25  1  0.47023000  0.03947000  0.71296000  1.0
  H  H26  1  0.56221000  0.07497000  0.87256000  1.0
  H  H27  1  0.11546000  0.93539000  0.58885000  1.0
  H  H28  1  0.63330000  0.09955000  0.09433000  1.0
  C  C1  1  0.30512000  0.23221000  0.66243000  1.0
  C  C2  1  0.25883000  0.11128000  0.60550000  1.0
  C  C3  1  0.32685000  0.25655000  0.74852000  1.0
  C  C4  1  0.29467000  0.16072000  0.79201000  1.0
  C  C5  1  0.37274000  0.37075000  0.79352000  1.0
  C  C6  1  0.39866000  0.46003000  0.75229000  1.0
  C  C7  1  0.37541000  0.43484000  0.66751000  1.0
  C  C8  1  0.03723000  0.55099000  0.62548000  1.0
  C  C9  1  0.03236000  0.45380000  0.67749000  1.0
  C  C10  1  0.06379000  0.47126000  0.76435000  1.0
  C  C11  1  0.05591000  0.37338000  0.80424000  1.0
  C  C12  1  0.01692000  0.25931000  0.75725000  1.0
  C  C13  1  0.98619000  0.24441000  0.67159000  1.0
  C  C14  1  0.10316000  0.59534000  0.81356000  1.0
  C  C15  1  0.55869000  0.25662000  0.29828000  1.0
  C  C16  1  0.42737000  0.28109000  0.24666000  1.0
  C  C17  1  0.48167000  0.23547000  0.10826000  1.0
  C  C18  1  0.39414000  0.26886000  0.15963000  1.0
  C  C19  1  0.18977000  0.33686000  0.15323000  1.0
  C  C20  1  0.22053000  0.34924000  0.23868000  1.0
  C  C21  1  0.33984000  0.31991000  0.28618000  1.0
  C  C22  1  0.13617000  0.07428000  0.30394000  1.0
  C  C23  1  0.22261000  0.02469000  0.25722000  1.0
  C  C24  1  0.35045000  0.01062000  0.29922000  1.0
  C  C25  1  0.43012000  0.97105000  0.25412000  1.0
  C  C26  1  0.38235000  0.94977000  0.16817000  1.0
  C  C27  1  0.17526000  0.99806000  0.17034000  1.0
  C  C28  1  0.03835000  0.01192000  0.11799000  1.0
  C  C29  1  0.69488000  0.76779000  0.33757000  1.0
  C  C30  1  0.74118000  0.88871000  0.39449000  1.0
  C  C31  1  0.67316000  0.74345000  0.25147000  1.0
  C  C32  1  0.70534000  0.83927000  0.20799000  1.0
  C  C33  1  0.62727000  0.62924000  0.20648000  1.0
  C  C34  1  0.60134000  0.53996000  0.24771000  1.0
  C  C35  1  0.62460000  0.56515000  0.33248000  1.0
  C  C36  1  0.96277000  0.44900000  0.37452000  1.0
  C  C37  1  0.96765000  0.54620000  0.32250000  1.0
  C  C38  1  0.93622000  0.52873000  0.23565000  1.0
  C  C39  1  0.94410000  0.62662000  0.19576000  1.0
  C  C40  1  0.98309000  0.74068000  0.24275000  1.0
  C  C41  1  0.01382000  0.75558000  0.32841000  1.0
  C  C42  1  0.89685000  0.40466000  0.18644000  1.0
  C  C43  1  0.44131000  0.74338000  0.70172000  1.0
  C  C44  1  0.57264000  0.71891000  0.75333000  1.0
  C  C45  1  0.51834000  0.76453000  0.89173000  1.0
  C  C46  1  0.60586000  0.73113000  0.84036000  1.0
  C  C47  1  0.81024000  0.66313000  0.84676000  1.0
  C  C48  1  0.77948000  0.65076000  0.76132000  1.0
  C  C49  1  0.66017000  0.68009000  0.71382000  1.0
  C  C50  1  0.86384000  0.92572000  0.69605000  1.0
  C  C51  1  0.77740000  0.97531000  0.74278000  1.0
  C  C52  1  0.64955000  0.98938000  0.70077000  1.0
  C  C53  1  0.56989000  0.02895000  0.74587000  1.0
  C  C54  1  0.61765000  0.05022000  0.83182000  1.0
  C  C55  1  0.82475000  0.00193000  0.82965000  1.0
  C  C56  1  0.96165000  0.98807000  0.88200000  1.0
  N  N1  1  0.32580000  0.32441000  0.62353000  1.0
  N  N2  1  0.99296000  0.34110000  0.63371000  1.0
  N  N3  1  0.27366000  0.29433000  0.11473000  1.0
  N  N4  1  0.25732000  0.96393000  0.12856000  1.0
  N  N5  1  0.67421000  0.67559000  0.37647000  1.0
  N  N6  1  0.00705000  0.65890000  0.36628000  1.0
  N  N7  1  0.72634000  0.70566000  0.88527000  1.0
  N  N8  1  0.74269000  0.03606000  0.87144000  1.0
  O  O1  1  0.29681000  0.30889000  0.54140000  1.0
  O  O2  1  0.13736000  0.09580000  0.56664000  1.0
  O  O3  1  0.33970000  0.04053000  0.59820000  1.0
  O  O4  1  0.25415000  0.06022000  0.74613000  1.0
  O  O5  1  0.31024000  0.19118000  0.86885000  1.0
  O  O6  1  0.96556000  0.32694000  0.55095000  1.0
  O  O7  1  0.93876000  0.60763000  0.60469000  1.0
  O  O8  1  0.14014000  0.56024000  0.60949000  1.0
  O  O9  1  0.11620000  0.68006000  0.77654000  1.0
  O  O10  1  0.11651000  0.60625000  0.89182000  1.0
  O  O11  1  0.89692000  0.14337000  0.39472000  1.0
  O  O12  1  0.23644000  0.28002000  0.03235000  1.0
  O  O13  1  0.46634000  0.12557000  0.07055000  1.0
  O  O14  1  0.55726000  0.31566000  0.10582000  1.0
  O  O15  1  0.63111000  0.20845000  0.26209000  1.0
  O  O16  1  0.58709000  0.29174000  0.37775000  1.0
  O  O17  1  0.27498000  0.91646000  0.89014000  1.0
  O  O18  1  0.96463000  0.91805000  0.09425000  1.0
  O  O19  1  0.01831000  0.11870000  0.10541000  1.0
  O  O20  1  0.01789000  0.05340000  0.26556000  1.0
  O  O21  1  0.19274000  0.13095000  0.37645000  1.0
  O  O22  1  0.21278000  0.95194000  0.04513000  1.0
  O  O23  1  0.70320000  0.69110000  0.45859000  1.0
  O  O24  1  0.86265000  0.90420000  0.43335000  1.0
  O  O25  1  0.66031000  0.95947000  0.40180000  1.0
  O  O26  1  0.74586000  0.93977000  0.25387000  1.0
  O  O27  1  0.68977000  0.80882000  0.13115000  1.0
  O  O28  1  0.03445000  0.67306000  0.44905000  1.0
  O  O29  1  0.06124000  0.39236000  0.39530000  1.0
  O  O30  1  0.85987000  0.43975000  0.39051000  1.0
  O  O31  1  0.88380000  0.31993000  0.22346000  1.0
  O  O32  1  0.88349000  0.39375000  0.10817000  1.0
  O  O33  1  0.10309000  0.85662000  0.60528000  1.0
  O  O34  1  0.76357000  0.71997000  0.96764000  1.0
  O  O35  1  0.53367000  0.87443000  0.92944000  1.0
  O  O36  1  0.44275000  0.68433000  0.89418000  1.0
  O  O37  1  0.36890000  0.79155000  0.73790000  1.0
  O  O38  1  0.41291000  0.70826000  0.62225000  1.0
  O  O39  1  0.72503000  0.08354000  0.10986000  1.0
  O  O40  1  0.03538000  0.08195000  0.90575000  1.0
  O  O41  1  0.98170000  0.88130000  0.89459000  1.0
  O  O42  1  0.98212000  0.94660000  0.73444000  1.0
  O  O43  1  0.80727000  0.86904000  0.62354000  1.0
  O  O44  1  0.78723000  0.04806000  0.95487000  1.0
