# generated using pymatgen
data_H28C43(N2O)2
_symmetry_space_group_name_H-M   'P 1'
_cell_length_a   32.68380000
_cell_length_b   32.68380000
_cell_length_c   42.53370000
_cell_angle_alpha   90.00000000
_cell_angle_beta   90.00000000
_cell_angle_gamma   90.00000000
_symmetry_Int_Tables_number   1
_chemical_formula_structural   H28C43(N2O)2
_chemical_formula_sum   'H224 C344 N32 O16'
_cell_volume   45435.80763107
_cell_formula_units_Z   8
loop_
 _symmetry_equiv_pos_site_id
 _symmetry_equiv_pos_as_xyz
  1  'x, y, z'
loop_
 _atom_site_type_symbol
 _atom_site_label
 _atom_site_symmetry_multiplicity
 _atom_site_fract_x
 _atom_site_fract_y
 _atom_site_fract_z
 _atom_site_occupancy
  H  26  1  0.17849700  0.09859000  0.17342100  1
  H  27  1  0.21889700  0.04803800  0.14887500  1
  H  28  1  0.24325300  0.08087500  0.25808700  1
  H  29  1  0.28566600  0.03188600  0.23283700  1
  H  30  1  0.29716400  0.95109900  0.22693000  1
  H  31  1  0.25537900  0.90176600  0.25243700  1
  H  32  1  0.16260800  0.92135100  0.18527600  1
  H  33  1  0.20478300  0.96982700  0.15914800  1
  H  34  1  0.27223000  0.93346100  0.13146900  1
  H  35  1  0.27274900  0.93272900  0.07572500  1
  H  36  1  0.29880300  0.05909700  0.07474500  1
  H  37  1  0.29755500  0.06005500  0.13061300  1
  H  38  1  0.33653100  0.06277300  0.18365700  1
  H  39  1  0.33571100  0.93449500  0.17337200  1
  H  40  1  0.40783300  0.93332600  0.17815600  1
  H  41  1  0.40881200  0.06194800  0.18613900  1
  H  67  1  0.82743500  0.90146900  0.17373600  1
  H  68  1  0.78665100  0.95120900  0.14869600  1
  H  69  1  0.76894200  0.92680900  0.25994400  1
  H  70  1  0.72579500  0.97468600  0.23428800  1
  H  71  1  0.70757200  0.05522800  0.22437400  1
  H  72  1  0.74895300  0.10509200  0.24958500  1
  H  73  1  0.84486600  0.08002800  0.18621300  1
  H  74  1  0.80319400  0.03092500  0.16037100  1
  H  75  1  0.73753800  0.06701600  0.13025500  1
  H  76  1  0.73748300  0.06587600  0.07462500  1
  H  77  1  0.70678200  0.94057400  0.07594200  1
  H  78  1  0.70751700  0.94147100  0.13187200  1
  H  79  1  0.67341700  0.93865000  0.18929800  1
  H  80  1  0.66928700  0.06481400  0.16869600  1
  H  81  1  0.59670600  0.06345000  0.17278900  1
  H  82  1  0.60116100  0.93739800  0.19340200  1
  H  108  1  0.90659100  0.17520200  0.67406000  1
  H  109  1  0.95690300  0.21557700  0.64923300  1
  H  110  1  0.92468600  0.24038200  0.75848300  1
  H  111  1  0.97345300  0.28275600  0.73294500  1
  H  112  1  0.05417500  0.29435300  0.72669100  1
  H  113  1  0.10357000  0.25271600  0.75223100  1
  H  114  1  0.08376700  0.15959600  0.68539200  1
  H  115  1  0.03521700  0.20163700  0.65923000  1
  H  116  1  0.07105200  0.26872800  0.63103100  1
  H  117  1  0.07113400  0.26887100  0.57527500  1
  H  118  1  0.94485500  0.29534900  0.57505700  1
  H  119  1  0.94453300  0.29441700  0.63093200  1
  H  120  1  0.94231200  0.33347500  0.68390200  1
  H  121  1  0.07046100  0.33261200  0.67283300  1
  H  122  1  0.07171400  0.40472700  0.67759400  1
  H  123  1  0.94317800  0.40575800  0.68633300  1
  H  149  1  0.10363600  0.82422600  0.67311800  1
  H  150  1  0.05365800  0.78342300  0.64836100  1
  H  151  1  0.07876200  0.76609300  0.75955000  1
  H  152  1  0.03068200  0.72291000  0.73417300  1
  H  153  1  0.95005900  0.70478100  0.72467000  1
  H  154  1  0.90027900  0.74632500  0.74986800  1
  H  155  1  0.92506200  0.84186800  0.68609300  1
  H  156  1  0.97406800  0.80005200  0.66027600  1
  H  157  1  0.93743800  0.73399100  0.63068300  1
  H  158  1  0.93790000  0.73353600  0.57505700  1
  H  159  1  0.06336900  0.70345900  0.57561100  1
  H  160  1  0.06312700  0.70451200  0.63153900  1
  H  161  1  0.06650200  0.67039100  0.68899000  1
  H  162  1  0.94009700  0.66621200  0.66925500  1
  H  163  1  0.94154100  0.59363700  0.67332400  1
  H  164  1  0.06782200  0.59812900  0.69309000  1
  H  190  1  0.84565200  0.07908600  0.81841200  1
  H  191  1  0.80392500  0.03014100  0.84432500  1
  H  192  1  0.74931700  0.10514100  0.75565900  1
  H  193  1  0.70786500  0.05537500  0.78091900  1
  H  194  1  0.72582200  0.97422700  0.77081600  1
  H  195  1  0.76825900  0.92558800  0.74522000  1
  H  196  1  0.82727000  0.90057000  0.83127000  1
  H  197  1  0.78703000  0.95079900  0.85627800  1
  H  198  1  0.70773400  0.94134800  0.87322200  1
  H  199  1  0.70696600  0.94046700  0.92914300  1
  H  200  1  0.73875800  0.06549400  0.93045200  1
  H  201  1  0.73884700  0.06663000  0.87482600  1
  H  202  1  0.66994400  0.06472400  0.83668900  1
  H  203  1  0.67357900  0.93862200  0.81576400  1
  H  204  1  0.60132900  0.93760300  0.81185400  1
  H  205  1  0.59731200  0.06355800  0.83284500  1
  H  231  1  0.16329600  0.92048500  0.82011400  1
  H  232  1  0.20541800  0.96897700  0.84630000  1
  H  233  1  0.25538800  0.90250600  0.75214200  1
  H  234  1  0.29721400  0.95165600  0.77783700  1
  H  235  1  0.28599300  0.03176200  0.77225300  1
  H  236  1  0.24301900  0.08003700  0.74681900  1
  H  237  1  0.17806500  0.09757700  0.83142000  1
  H  238  1  0.21887200  0.04750200  0.85609500  1
  H  239  1  0.29743200  0.06013100  0.87443100  1
  H  240  1  0.29858300  0.05932200  0.93031300  1
  H  241  1  0.27333200  0.93279100  0.92948600  1
  H  242  1  0.27303600  0.93336000  0.87373700  1
  H  243  1  0.33605400  0.93436000  0.83136600  1
  H  244  1  0.33675700  0.06271700  0.82169800  1
  H  245  1  0.40905900  0.06196500  0.81922300  1
  H  246  1  0.40814500  0.93327100  0.82645500  1
  H  272  1  0.08219400  0.15945100  0.31762600  1
  H  273  1  0.03331400  0.20096400  0.34380200  1
  H  274  1  0.10783100  0.25617700  0.25511300  1
  H  275  1  0.05811100  0.29742100  0.28065000  1
  H  276  1  0.97686400  0.27935400  0.27087200  1
  H  277  1  0.92807000  0.23700700  0.24538600  1
  H  278  1  0.90355300  0.17777000  0.33142900  1
  H  279  1  0.95399100  0.21789300  0.35631200  1
  H  280  1  0.94495900  0.29683500  0.37367500  1
  H  281  1  0.94487000  0.29740100  0.42960000  1
  H  282  1  0.07001400  0.26602100  0.42980700  1
  H  283  1  0.07034300  0.26608800  0.37418300  1
  H  284  1  0.06776600  0.33508400  0.33637500  1
  H  285  1  0.94146800  0.33134500  0.31617000  1
  H  286  1  0.94034500  0.40361000  0.31230500  1
  H  287  1  0.06649200  0.40771600  0.33259000  1
  H  313  1  0.92349800  0.84173600  0.32094300  1
  H  314  1  0.97207300  0.79940000  0.34684000  1
  H  315  1  0.90526000  0.75016500  0.25259700  1
  H  316  1  0.95446800  0.70813500  0.27800500  1
  H  317  1  0.03447500  0.71915500  0.27216300  1
  H  318  1  0.08261400  0.76221000  0.24663200  1
  H  319  1  0.10053600  0.82702200  0.33125000  1
  H  320  1  0.05063000  0.78611800  0.35604000  1
  H  321  1  0.06378400  0.70729300  0.37395000  1
  H  322  1  0.06372800  0.70592200  0.42983100  1
  H  323  1  0.93720300  0.73123200  0.43006100  1
  H  324  1  0.93701000  0.73172700  0.37429800  1
  H  325  1  0.93739200  0.66901100  0.33153200  1
  H  326  1  0.06566900  0.66817300  0.32126700  1
  H  327  1  0.06481900  0.59587700  0.31877100  1
  H  328  1  0.93617400  0.59693600  0.32655500  1
  H  339  1  0.15307000  0.95448000  0.03132900  1
  H  340  1  0.34504300  0.01721000  0.97456100  1
  H  341  1  0.34496300  0.01712300  0.03067500  1
  H  344  1  0.09467700  0.97607500  0.94559500  1
  H  345  1  0.13943100  0.00610000  0.94225700  1
  H  346  1  0.11058000  0.00609500  0.97792700  1
  H  357  1  0.85622700  0.04120800  0.03183500  1
  H  358  1  0.66348900  0.98201700  0.97434900  1
  H  359  1  0.66321900  0.98208700  0.03044800  1
  H  362  1  0.91477500  0.01939200  0.94609100  1
  H  363  1  0.86966100  0.98996600  0.94245700  1
  H  364  1  0.89837600  0.98921300  0.97818800  1
  H  375  1  0.04799500  0.14879700  0.53168400  1
  H  376  1  0.98650500  0.34089700  0.47435500  1
  H  377  1  0.98684200  0.34114200  0.53045200  1
  H  380  1  0.02568300  0.08984400  0.44627900  1
  H  381  1  0.99576700  0.13466500  0.44286300  1
  H  382  1  0.99591400  0.10606700  0.47865500  1
  H  393  1  0.96067000  0.85183000  0.53138300  1
  H  394  1  0.02184000  0.65939500  0.47453900  1
  H  395  1  0.02203000  0.65949000  0.53065600  1
  H  398  1  0.98141100  0.90975200  0.44517100  1
  H  399  1  0.01101700  0.86475400  0.44154800  1
  H  400  1  0.01208800  0.89379300  0.47712000  1
  H  411  1  0.06524500  0.05775000  0.20145500  1
  H  412  1  0.18210000  0.20543200  0.28127800  1
  H  413  1  0.22615900  0.15956500  0.25366700  1
  H  416  1  0.95614500  0.13051700  0.21170600  1
  H  417  1  0.99905900  0.13921400  0.18728100  1
  H  418  1  0.99316900  0.16695800  0.22317800  1
  H  429  1  0.94409600  0.93780800  0.19449300  1
  H  430  1  0.82721200  0.80265600  0.28645000  1
  H  431  1  0.78316900  0.84854700  0.25889600  1
  H  434  1  0.04995900  0.86108800  0.20210300  1
  H  435  1  0.00477500  0.85475200  0.17975600  1
  H  436  1  0.01183700  0.82697000  0.21551400  1
  H  447  1  0.94767600  0.06212100  0.70232300  1
  H  448  1  0.80002100  0.17923000  0.78194900  1
  H  449  1  0.84591600  0.22320200  0.75427700  1
  H  452  1  0.87489000  0.95306100  0.71273800  1
  H  453  1  0.86617300  0.99591100  0.68825400  1
  H  454  1  0.83845000  0.99010600  0.72416900  1
  H  465  1  0.06759700  0.94098100  0.69369200  1
  H  466  1  0.20283700  0.82435100  0.78576500  1
  H  467  1  0.15698100  0.78022900  0.75825900  1
  H  470  1  0.14426000  0.04686500  0.70109800  1
  H  471  1  0.15056600  0.00161700  0.67881900  1
  H  472  1  0.17840700  0.00878700  0.71453900  1
  H  483  1  0.94373200  0.93791200  0.80834200  1
  H  484  1  0.82547400  0.80000900  0.71986900  1
  H  485  1  0.78183200  0.84632300  0.74744400  1
  H  488  1  0.05000100  0.86118300  0.79961000  1
  H  489  1  0.00541400  0.85398100  0.82250700  1
  H  490  1  0.01193000  0.82689400  0.78637800  1
  H  501  1  0.06476900  0.05728700  0.80475700  1
  H  502  1  0.18090100  0.20344500  0.72271100  1
  H  503  1  0.22524000  0.15788400  0.75032200  1
  H  506  1  0.95585400  0.12989400  0.79519900  1
  H  507  1  0.99919400  0.13809600  0.81927400  1
  H  508  1  0.99287500  0.16628500  0.78362300  1
  H  519  1  0.05989700  0.94034500  0.30459800  1
  H  520  1  0.20623100  0.82434500  0.22262000  1
  H  521  1  0.16059100  0.77996200  0.25011700  1
  H  524  1  0.13248800  0.04922800  0.29540600  1
  H  525  1  0.14034500  0.00582800  0.31948500  1
  H  526  1  0.16894700  0.01216600  0.28403100  1
  H  537  1  0.94038500  0.06134000  0.30850300  1
  H  538  1  0.80278100  0.17980500  0.21992500  1
  H  539  1  0.84901200  0.22338300  0.24763400  1
  H  542  1  0.86360300  0.95505200  0.29935800  1
  H  543  1  0.85612600  0.99956100  0.32229200  1
  H  544  1  0.82941200  0.99313200  0.28599400  1
  H  555  1  0.47057600  0.91469000  0.09825900  1
  H  556  1  0.53940600  0.03953900  0.22187300  1
  H  557  1  0.46659600  0.03771800  0.22138300  1
  H  560  1  0.58561500  0.85708900  0.08819100  1
  H  561  1  0.54479700  0.85103100  0.11505100  1
  H  562  1  0.58994400  0.87812700  0.12631600  1
  H  573  1  0.08990200  0.46773700  0.59786200  1
  H  574  1  0.96585900  0.53625400  0.72205700  1
  H  575  1  0.96767300  0.46345300  0.72145300  1
  H  578  1  0.14740700  0.58288600  0.58777100  1
  H  579  1  0.15367000  0.54206400  0.61460200  1
  H  580  1  0.12654500  0.58715700  0.62595500  1
  H  591  1  0.54564100  0.91429200  0.90482800  1
  H  592  1  0.46713100  0.03827300  0.78408400  1
  H  593  1  0.53994100  0.04012400  0.78385100  1
  H  596  1  0.43307400  0.85451600  0.91948000  1
  H  597  1  0.47257400  0.84963900  0.89134200  1
  H  598  1  0.42603400  0.87528500  0.88151000  1
  H  609  1  0.91749900  0.45960100  0.40509500  1
  H  610  1  0.04089500  0.53775000  0.28385900  1
  H  611  1  0.04273900  0.46494700  0.28374400  1
  H  614  1  0.85782700  0.57227800  0.41968800  1
  H  615  1  0.85281500  0.53276900  0.39157400  1
  H  616  1  0.87851600  0.57925400  0.38168300  1
  C  1  1  0.41612100  0.99754700  0.18262400  1
  C  2  1  0.39330200  0.96098500  0.17957100  1
  C  3  1  0.35034200  0.96163700  0.17741800  1
  C  4  1  0.32745300  0.99843200  0.18016300  1
  C  5  1  0.35070000  0.03491400  0.18357700  1
  C  6  1  0.39378000  0.03452800  0.18486200  1
  C  7  1  0.28142500  0.99891200  0.17346900  1
  C  8  1  0.28164100  0.99754100  0.13745900  1
  C  9  1  0.29174000  0.03290100  0.11956300  1
  C  10  1  0.29284800  0.03241800  0.08649700  1
  C  11  1  0.28476200  0.99603900  0.06973600  1
  C  12  1  0.27728100  0.95997800  0.08707600  1
  C  13  1  0.27656800  0.96067300  0.12014800  1
  C  14  1  0.25711300  0.96395600  0.18864000  1
  C  15  1  0.25877900  0.03577800  0.18741500  1
  C  16  1  0.22631700  0.05588800  0.17139400  1
  C  17  1  0.20143600  0.08524600  0.18619500  1
  C  18  1  0.20668200  0.09501000  0.21829700  1
  C  19  1  0.23899400  0.07558400  0.23459400  1
  C  20  1  0.26412500  0.04656200  0.21954600  1
  C  21  1  0.26996100  0.94374400  0.21657200  1
  C  22  1  0.24517400  0.91475100  0.23198300  1
  C  23  1  0.20569500  0.90572500  0.22057100  1
  C  24  1  0.19164400  0.92624900  0.19350500  1
  C  25  1  0.21678800  0.95481700  0.17810700  1
  C  42  1  0.59185400  0.00052100  0.18436000  1
  C  43  1  0.61274200  0.03730000  0.17766500  1
  C  44  1  0.65571400  0.03795600  0.17526900  1
  C  45  1  0.68006300  0.00254700  0.18062400  1
  C  46  1  0.65830900  0.96586800  0.18729400  1
  C  47  1  0.61531800  0.96481600  0.18923900  1
  C  48  1  0.72603300  0.00311500  0.17360100  1
  C  49  1  0.72577000  0.00352200  0.13755200  1
  C  50  1  0.71438200  0.96800700  0.12028900  1
  C  51  1  0.71360800  0.96740100  0.08720100  1
  C  52  1  0.72332900  0.00284100  0.06976300  1
  C  53  1  0.73187400  0.03917700  0.08645700  1
  C  54  1  0.73234200  0.03956500  0.11952200  1
  C  55  1  0.74952500  0.03915100  0.18805200  1
  C  56  1  0.74960800  0.96715300  0.18811900  1
  C  57  1  0.78057100  0.94521300  0.17177100  1
  C  58  1  0.80580100  0.91636300  0.18683300  1
  C  59  1  0.80255200  0.90899600  0.21947300  1
  C  60  1  0.77187300  0.93041900  0.23614400  1
  C  61  1  0.74629100  0.95878500  0.22084800  1
  C  62  1  0.73539000  0.06153400  0.21460400  1
  C  63  1  0.75995500  0.09085900  0.22987800  1
  C  64  1  0.80026900  0.09836000  0.21958200  1
  C  65  1  0.81528300  0.07623600  0.19359400  1
  C  66  1  0.79043800  0.04728000  0.17836700  1
  C  83  1  0.00754400  0.41305200  0.68245400  1
  C  84  1  0.04406000  0.39021500  0.67916400  1
  C  85  1  0.04336500  0.34725500  0.67703000  1
  C  86  1  0.00660400  0.32436000  0.68004100  1
  C  87  1  0.97017000  0.34764400  0.68362200  1
  C  88  1  0.97058600  0.39072000  0.68493400  1
  C  89  1  0.00607100  0.27831400  0.67344200  1
  C  90  1  0.00707900  0.27837100  0.63742300  1
  C  91  1  0.97155000  0.28848300  0.61972200  1
  C  92  1  0.97165100  0.28939300  0.58665000  1
  C  93  1  0.00780200  0.28106900  0.56967300  1
  C  94  1  0.04403700  0.27358700  0.58679800  1
  C  95  1  0.04373000  0.27309500  0.61987700  1
  C  96  1  0.04118500  0.25413600  0.68852600  1
  C  97  1  0.96932900  0.25569600  0.68759500  1
  C  98  1  0.94919300  0.22308800  0.67176300  1
  C  99  1  0.91994300  0.19824200  0.68672100  1
  C  100  1  0.91037000  0.20360500  0.71884400  1
  C  101  1  0.92987500  0.23599800  0.73499100  1
  C  102  1  0.95875100  0.26111700  0.71976500  1
  C  103  1  0.06146900  0.26708900  0.71640300  1
  C  104  1  0.09051600  0.24239000  0.73183800  1
  C  105  1  0.09951200  0.20285800  0.72053400  1
  C  106  1  0.07890200  0.18867300  0.69354400  1
  C  107  1  0.05029500  0.21374900  0.67811600  1
  C  124  1  0.00461000  0.58880300  0.68445400  1
  C  125  1  0.96774100  0.60967900  0.67803400  1
  C  126  1  0.96703400  0.65265400  0.67565200  1
  C  127  1  0.00251000  0.67700900  0.68074200  1
  C  128  1  0.03927200  0.65526400  0.68714200  1
  C  129  1  0.04035700  0.61227700  0.68911000  1
  C  130  1  0.00185700  0.72295500  0.67362100  1
  C  131  1  0.00107200  0.72255800  0.63757900  1
  C  132  1  0.03642700  0.71119100  0.62011700  1
  C  133  1  0.03664500  0.71024300  0.58702800  1
  C  134  1  0.00095000  0.71967200  0.56980000  1
  C  135  1  0.96477300  0.72814800  0.58671800  1
  C  136  1  0.96478800  0.72885400  0.61977600  1
  C  137  1  0.96596000  0.74654500  0.68817600  1
  C  138  1  0.03795000  0.74653900  0.68792500  1
  C  139  1  0.05982000  0.77741100  0.67142000  1
  C  140  1  0.08880200  0.80265600  0.68631600  1
  C  141  1  0.09639700  0.79949800  0.71893100  1
  C  142  1  0.07506800  0.76888600  0.73574800  1
  C  143  1  0.04656100  0.74329600  0.72061900  1
  C  144  1  0.94371600  0.73255300  0.71483700  1
  C  145  1  0.91449400  0.75722900  0.73012200  1
  C  146  1  0.90690600  0.79746000  0.71967400  1
  C  147  1  0.92892000  0.81233900  0.69358600  1
  C  148  1  0.95782100  0.78741600  0.67838200  1
  C  165  1  0.59222100  0.00067400  0.82120200  1
  C  166  1  0.61557200  0.96495300  0.81609100  1
  C  167  1  0.65857500  0.96588000  0.81791600  1
  C  168  1  0.68047900  0.00246500  0.82461100  1
  C  169  1  0.65625300  0.03791500  0.83013900  1
  C  170  1  0.61325300  0.03735900  0.82794800  1
  C  171  1  0.72650800  0.00285500  0.83147200  1
  C  172  1  0.72643400  0.00326100  0.86752600  1
  C  173  1  0.73343800  0.03921900  0.88555800  1
  C  174  1  0.73296000  0.03883200  0.91862400  1
  C  175  1  0.72401400  0.00259400  0.93532800  1
  C  176  1  0.71404600  0.96722700  0.91788600  1
  C  177  1  0.71485000  0.96781700  0.88480100  1
  C  178  1  0.74984300  0.96675200  0.81692300  1
  C  179  1  0.75007600  0.03878000  0.81692100  1
  C  180  1  0.79112700  0.04660300  0.82640500  1
  C  181  1  0.81601700  0.07545000  0.81110700  1
  C  182  1  0.80096700  0.09780400  0.78523100  1
  C  183  1  0.76044200  0.09068800  0.77522900  1
  C  184  1  0.73582700  0.06142000  0.79054000  1
  C  185  1  0.74622700  0.95819500  0.78424600  1
  C  186  1  0.77138900  0.92941600  0.76898500  1
  C  187  1  0.80194300  0.90783300  0.78565900  1
  C  188  1  0.80559300  0.91548500  0.81822600  1
  C  189  1  0.78072400  0.94467100  0.83325600  1
  C  206  1  0.41642400  0.99754100  0.82237600  1
  C  207  1  0.39404600  0.03452400  0.82033500  1
  C  208  1  0.35096300  0.03487400  0.82165100  1
  C  209  1  0.32774700  0.99835800  0.82491900  1
  C  210  1  0.35065400  0.96154800  0.82744700  1
  C  211  1  0.39361100  0.96094200  0.82523700  1
  C  212  1  0.28172900  0.99875300  0.83165100  1
  C  213  1  0.28197400  0.99748900  0.86766200  1
  C  214  1  0.27715900  0.96062700  0.88502200  1
  C  215  1  0.27774700  0.96003300  0.91809500  1
  C  216  1  0.28493100  0.99619200  0.93538500  1
  C  217  1  0.29285500  0.03257500  0.91858600  1
  C  218  1  0.29179600  0.03296600  0.88551600  1
  C  219  1  0.25895600  0.03548200  0.81762900  1
  C  220  1  0.25753800  0.96369300  0.81651200  1
  C  221  1  0.21735600  0.95420800  0.82720500  1
  C  222  1  0.19223400  0.92564000  0.81177700  1
  C  223  1  0.20613700  0.90561500  0.78445500  1
  C  224  1  0.24533700  0.91516700  0.77276100  1
  C  225  1  0.27015200  0.94401300  0.78829200  1
  C  226  1  0.26427800  0.04625300  0.78549700  1
  C  227  1  0.23878200  0.07484300  0.77032700  1
  C  228  1  0.20620800  0.09398900  0.78652200  1
  C  229  1  0.20111600  0.08439200  0.81867300  1
  C  230  1  0.22625800  0.05532900  0.83356200  1
  C  247  1  0.00349600  0.41276500  0.32130300  1
  C  248  1  0.96773800  0.38938600  0.31641500  1
  C  249  1  0.96871700  0.34638600  0.31822500  1
  C  250  1  0.00539900  0.32450700  0.32464100  1
  C  251  1  0.04088400  0.34875400  0.32998500  1
  C  252  1  0.04027500  0.39175700  0.32779200  1
  C  253  1  0.00595700  0.27844600  0.33137700  1
  C  254  1  0.00683200  0.27831800  0.36742800  1
  C  255  1  0.04306400  0.27136000  0.38515100  1
  C  256  1  0.04315500  0.27173400  0.41821900  1
  C  257  1  0.00713600  0.28051500  0.43524700  1
  C  258  1  0.97148600  0.29040300  0.41811100  1
  C  259  1  0.97161100  0.28975000  0.38501900  1
  C  260  1  0.96972900  0.25516200  0.31696000  1
  C  261  1  0.04174500  0.25497200  0.31654400  1
  C  262  1  0.04966800  0.21388100  0.32587500  1
  C  263  1  0.07846800  0.18911200  0.31041000  1
  C  264  1  0.10068600  0.20434600  0.28452900  1
  C  265  1  0.09343600  0.24489700  0.27465500  1
  C  266  1  0.06419400  0.26937900  0.29011800  1
  C  267  1  0.96094500  0.25887900  0.28432000  1
  C  268  1  0.93203800  0.23379900  0.26913200  1
  C  269  1  0.91054100  0.20320400  0.28582700  1
  C  270  1  0.91840400  0.19946800  0.31836400  1
  C  271  1  0.94771500  0.22426600  0.33333333  1
  C  288  1  0.00040800  0.58857700  0.32222200  1
  C  289  1  0.03740100  0.61091200  0.32001900  1
  C  290  1  0.03781500  0.65399200  0.32137100  1
  C  291  1  0.00135400  0.67725100  0.32482200  1
  C  292  1  0.96453100  0.65438300  0.32746700  1
  C  293  1  0.96385500  0.61143200  0.32522000  1
  C  294  1  0.00186900  0.72322800  0.33169700  1
  C  295  1  0.00104500  0.72276300  0.36771300  1
  C  296  1  0.96441500  0.72751400  0.38536500  1
  C  297  1  0.96427400  0.72678900  0.41844000  1
  C  298  1  0.00067100  0.71955000  0.43542400  1
  C  299  1  0.03682300  0.71167800  0.41832900  1
  C  300  1  0.03675500  0.71283100  0.38525900  1
  C  301  1  0.03846800  0.74609200  0.31756700  1
  C  302  1  0.96666400  0.74750600  0.31683300  1
  C  303  1  0.95722500  0.78760800  0.32772800  1
  C  304  1  0.92861100  0.81285900  0.31246700  1
  C  305  1  0.90848800  0.79918000  0.28512200  1
  C  306  1  0.91799700  0.76006900  0.27323300  1
  C  307  1  0.94687100  0.73511400  0.28860200  1
  C  308  1  0.04903500  0.74084200  0.28538500  1
  C  309  1  0.07749400  0.76642300  0.27015300  1
  C  310  1  0.09672500  0.79895300  0.28633700  1
  C  311  1  0.08727600  0.80400200  0.31851700  1
  C  312  1  0.05837200  0.77876600  0.33348400  1
  C  329  1  0.28412500  0.99589200  0.96886900  1
  C  330  1  0.24870800  0.98396300  0.98578500  1
  C  331  1  0.24868000  0.98379400  0.01925300  1
  C  332  1  0.28405400  0.99570600  0.03624500  1
  C  333  1  0.31890500  0.00836700  0.01912900  1
  C  334  1  0.31895700  0.00842400  0.98605300  1
  C  336  1  0.17861100  0.96237100  0.01890500  1
  C  337  1  0.17831900  0.96322200  0.98587600  1
  C  343  1  0.12134000  0.98728200  0.95833600  1
  C  347  1  0.72488300  0.00201400  0.96884000  1
  C  348  1  0.76044200  0.01315900  0.98591900  1
  C  349  1  0.76026100  0.01331300  0.01938400  1
  C  350  1  0.72453100  0.00218800  0.03626300  1
  C  351  1  0.68958400  0.99012500  0.01900600  1
  C  352  1  0.68975200  0.99006400  0.98592300  1
  C  354  1  0.83067300  0.03364600  0.01930800  1
  C  355  1  0.83115300  0.03284800  0.98628500  1
  C  361  1  0.88792700  0.00837400  0.95869800  1
  C  365  1  0.00707400  0.27969600  0.46876900  1
  C  366  1  0.01876300  0.24428100  0.48581700  1
  C  367  1  0.01918100  0.24448900  0.51928700  1
  C  368  1  0.00772100  0.28008200  0.53618400  1
  C  369  1  0.99521600  0.31490900  0.51897600  1
  C  370  1  0.99496200  0.31473700  0.48589700  1
  C  372  1  0.04013300  0.17427900  0.51917600  1
  C  373  1  0.03903600  0.17373500  0.48615500  1
  C  379  1  0.01463300  0.11663000  0.45894900  1
  C  383  1  0.00087000  0.72043400  0.46890100  1
  C  384  1  0.98934800  0.75596300  0.48583600  1
  C  385  1  0.98944900  0.75604200  0.51929800  1
  C  386  1  0.00117600  0.72058700  0.53629200  1
  C  387  1  0.01353400  0.68565200  0.51913900  1
  C  388  1  0.01339200  0.68557300  0.48605700  1
  C  390  1  0.96834900  0.82623000  0.51895300  1
  C  391  1  0.96889700  0.82643800  0.48592300  1
  C  397  1  0.99272500  0.88307500  0.45783400  1
  C  401  1  0.12642600  0.17780200  0.26698300  1
  C  402  1  0.10992800  0.14545100  0.24885900  1
  C  403  1  0.13609000  0.11783800  0.23256500  1
  C  404  1  0.17930700  0.12236300  0.23408000  1
  C  405  1  0.19522000  0.15507800  0.25217600  1
  C  406  1  0.16931200  0.18244200  0.26820800  1
  C  408  1  0.07693400  0.08160600  0.21409000  1
  C  409  1  0.05110400  0.10975800  0.22923100  1
  C  415  1  0.98878200  0.13735000  0.21170400  1
  C  419  1  0.88275700  0.82613200  0.26807400  1
  C  420  1  0.89928200  0.85611600  0.24774700  1
  C  421  1  0.87314900  0.88383700  0.23151900  1
  C  422  1  0.82996900  0.88169200  0.23529300  1
  C  423  1  0.81409200  0.85136500  0.25573100  1
  C  424  1  0.83994300  0.82401800  0.27180800  1
  C  426  1  0.93233500  0.91554300  0.20870400  1
  C  427  1  0.95798300  0.88728200  0.22391700  1
  C  433  1  0.01704000  0.85618700  0.20364900  1
  C  437  1  0.82765000  0.12350800  0.76776900  1
  C  438  1  0.86000200  0.10695300  0.74967300  1
  C  439  1  0.88761800  0.13306300  0.73333300  1
  C  440  1  0.88310500  0.17628500  0.73477400  1
  C  441  1  0.85041000  0.19225800  0.75285900  1
  C  442  1  0.82302700  0.16640100  0.76891900  1
  C  444  1  0.92382300  0.07385000  0.71493600  1
  C  445  1  0.89565300  0.04806500  0.73010300  1
  C  451  1  0.86805200  0.98569400  0.71269100  1
  C  455  1  0.17933600  0.87984100  0.76731100  1
  C  456  1  0.14934300  0.89631100  0.74696700  1
  C  457  1  0.12163000  0.87013200  0.73077800  1
  C  458  1  0.12378800  0.82696100  0.73461700  1
  C  459  1  0.15415300  0.81114000  0.75504800  1
  C  460  1  0.18149200  0.83703700  0.77108400  1
  C  462  1  0.08986500  0.92925700  0.70791800  1
  C  463  1  0.11812400  0.95494800  0.72309200  1
  C  469  1  0.14917100  0.01395100  0.70269600  1
  C  473  1  0.88133400  0.82424700  0.73706400  1
  C  474  1  0.89815600  0.85482800  0.75673800  1
  C  475  1  0.87227100  0.88272000  0.77301000  1
  C  476  1  0.82904200  0.88023200  0.76987100  1
  C  477  1  0.81281400  0.84932100  0.75013600  1
  C  478  1  0.83843200  0.82170500  0.73409700  1
  C  480  1  0.93177500  0.91528600  0.79457200  1
  C  481  1  0.95723100  0.88686300  0.77935300  1
  C  487  1  0.01710300  0.85595700  0.79846700  1
  C  491  1  0.12539500  0.17613700  0.73772500  1
  C  492  1  0.10904600  0.14411900  0.75624000  1
  C  493  1  0.13538000  0.11665800  0.77253300  1
  C  494  1  0.17860300  0.12104900  0.77063800  1
  C  495  1  0.19432000  0.15343100  0.75208100  1
  C  496  1  0.16825900  0.18059600  0.73601100  1
  C  498  1  0.07635700  0.08091700  0.79182100  1
  C  499  1  0.05040200  0.10892500  0.77664200  1
  C  505  1  0.98852200  0.13656700  0.79493600  1
  C  509  1  0.17892100  0.87982800  0.23768900  1
  C  510  1  0.14685300  0.89615500  0.25616400  1
  C  511  1  0.11934600  0.86979300  0.27238100  1
  C  512  1  0.12373500  0.82657600  0.27043700  1
  C  513  1  0.15613500  0.81088000  0.25189400  1
  C  514  1  0.18335600  0.83696600  0.23590700  1
  C  516  1  0.08355800  0.92877600  0.29168400  1
  C  517  1  0.11161000  0.95475900  0.27658000  1
  C  523  1  0.13910900  0.01655000  0.29515200  1
  C  527  1  0.82697300  0.12390700  0.23707500  1
  C  528  1  0.85748100  0.10705100  0.25680100  1
  C  529  1  0.88533000  0.13289700  0.27315500  1
  C  530  1  0.88287300  0.17613600  0.27006100  1
  C  531  1  0.85199200  0.19239700  0.25030700  1
  C  532  1  0.82442200  0.16681600  0.23418700  1
  C  534  1  0.91780400  0.07333100  0.29470500  1
  C  535  1  0.88940200  0.04791400  0.27942500  1
  C  541  1  0.85835600  0.98794900  0.29824600  1
  C  545  1  0.54825400  0.99886000  0.18363400  1
  C  546  1  0.52698700  0.97513900  0.16105100  1
  C  547  1  0.48339300  0.97469500  0.16024900  1
  C  548  1  0.46011200  0.99741300  0.18247000  1
  C  549  1  0.48197600  0.02110000  0.20475800  1
  C  550  1  0.52504100  0.02211500  0.20518900  1
  C  552  1  0.48602400  0.93066100  0.11513300  1
  C  553  1  0.52895100  0.93020200  0.11649700  1
  C  559  1  0.56867400  0.87202300  0.10703400  1
  C  563  1  0.00627500  0.54519700  0.68366900  1
  C  564  1  0.02985700  0.52398200  0.66097000  1
  C  565  1  0.03028500  0.48039200  0.66009500  1
  C  566  1  0.00770100  0.45705300  0.68236200  1
  C  567  1  0.98418600  0.47886800  0.70478600  1
  C  568  1  0.98317000  0.52192900  0.70528300  1
  C  570  1  0.07404500  0.48314200  0.61482500  1
  C  571  1  0.07453900  0.52606300  0.61626400  1
  C  577  1  0.13259600  0.56590800  0.60665000  1
  C  581  1  0.46043700  0.99747100  0.82265800  1
  C  582  1  0.48363200  0.97450500  0.84477400  1
  C  583  1  0.52723400  0.97510200  0.84426400  1
  C  584  1  0.54860600  0.99909900  0.82190100  1
  C  585  1  0.52549000  0.02252600  0.80038600  1
  C  586  1  0.48242000  0.02148800  0.80065600  1
  C  588  1  0.52876400  0.93023300  0.88876000  1
  C  589  1  0.48581600  0.92926600  0.88930800  1
  C  595  1  0.44851000  0.86990900  0.90009700  1
  C  599  1  0.00029200  0.54456400  0.32254400  1
  C  600  1  0.97744300  0.52143000  0.34477300  1
  C  601  1  0.97803600  0.47782800  0.34433600  1
  C  602  1  0.00192200  0.45638600  0.32194000  1
  C  603  1  0.02522900  0.47944000  0.30031000  1
  C  604  1  0.02419400  0.52251000  0.30050700  1
  C  606  1  0.93336600  0.47642900  0.38895500  1
  C  607  1  0.93241100  0.51937700  0.38943400  1
  C  613  1  0.87314600  0.55680300  0.40028900  1
  N  335  1  0.21342300  0.97296000  0.03418600  1
  N  338  1  0.21338100  0.97363000  0.97076100  1
  N  353  1  0.79559400  0.02360000  0.03444400  1
  N  356  1  0.79601900  0.02300300  0.97104600  1
  N  371  1  0.02989600  0.20928000  0.53433800  1
  N  374  1  0.02875800  0.20875600  0.47093000  1
  N  389  1  0.97890500  0.79139900  0.53422300  1
  N  392  1  0.97900900  0.79128900  0.47081000  1
  N  407  1  0.11800600  0.08680200  0.21627900  1
  N  410  1  0.06874400  0.14000300  0.24639000  1
  N  425  1  0.89132300  0.91264900  0.21303200  1
  N  428  1  0.94040300  0.85925900  0.24320700  1
  N  443  1  0.91864600  0.11492900  0.71706900  1
  N  446  1  0.86542700  0.06576100  0.74725200  1
  N  461  1  0.09279200  0.88825800  0.71228600  1
  N  464  1  0.14617000  0.93742300  0.74239000  1
  N  479  1  0.89068400  0.91204000  0.79087600  1
  N  482  1  0.93935300  0.85832800  0.76067600  1
  N  497  1  0.11741500  0.08593200  0.78923700  1
  N  500  1  0.06787800  0.13885800  0.75906600  1
  N  515  1  0.08857700  0.88772500  0.28906000  1
  N  518  1  0.14159100  0.93731900  0.25903200  1
  N  533  1  0.91458900  0.11442900  0.29104700  1
  N  536  1  0.86094800  0.06584400  0.26070600  1
  N  551  1  0.46522200  0.95268700  0.13688600  1
  N  554  1  0.54754700  0.95302400  0.13898500  1
  N  569  1  0.05214100  0.46228500  0.63661900  1
  N  572  1  0.05184200  0.54459800  0.63885500  1
  N  587  1  0.54764200  0.95302100  0.86645800  1
  N  590  1  0.46530500  0.95188900  0.86769500  1
  N  605  1  0.95605300  0.45748400  0.36662400  1
  N  608  1  0.95493900  0.53982500  0.36772500  1
  O  342  1  0.14420700  0.95250700  0.96927800  1
  O  360  1  0.86545700  0.04330600  0.96982100  1
  O  378  1  0.04954300  0.13947000  0.46966700  1
  O  396  1  0.95805400  0.86052800  0.46934300  1
  O  414  1  0.00953900  0.10515900  0.22834900  1
  O  432  1  0.99955800  0.88967100  0.22098700  1
  O  450  1  0.90024800  0.00649800  0.72929600  1
  O  468  1  0.11572000  0.99651300  0.72009900  1
  O  486  1  0.99885700  0.88954600  0.78171800  1
  O  504  1  0.00884100  0.10446800  0.77787400  1
  O  522  1  0.10716900  0.99631700  0.27785500  1
  O  540  1  0.89209400  0.00628200  0.28173200  1
  O  558  1  0.55147300  0.90923800  0.09478000  1
  O  576  1  0.09535300  0.54864300  0.59449500  1
  O  594  1  0.46518800  0.90768000  0.91175900  1
  O  612  1  0.91091700  0.54006900  0.41190600  1
