# generated using pymatgen
data_H9C20(N3O4)2
_symmetry_space_group_name_H-M   'P 1'
_cell_length_a   42.46410000
_cell_length_b   42.46410000
_cell_length_c   52.30760000
_cell_angle_alpha   90.00000000
_cell_angle_beta   90.00000000
_cell_angle_gamma   90.00000000
_symmetry_Int_Tables_number   1
_chemical_formula_structural   H9C20(N3O4)2
_chemical_formula_sum   'H144 C320 N96 O128'
_cell_volume   94321.05327316
_cell_formula_units_Z   16
loop_
 _symmetry_equiv_pos_site_id
 _symmetry_equiv_pos_as_xyz
  1  'x, y, z'
loop_
 _atom_site_type_symbol
 _atom_site_label
 _atom_site_symmetry_multiplicity
 _atom_site_fract_x
 _atom_site_fract_y
 _atom_site_fract_z
 _atom_site_occupancy
  H  7  1  0.09525100  0.25347800  0.06930700  1
  H  8  1  0.00187500  0.28442800  0.07865400  1
  H  9  1  0.02364800  0.21711000  0.02237800  1
  H  16  1  0.08351200  0.25753800  0.11813800  1
  H  17  1  0.08748700  0.34819300  0.15037100  1
  H  18  1  0.03913500  0.33333333  0.08116800  1
  H  23  1  0.06225700  0.39142000  0.12950200  1
  H  24  1  0.96131800  0.26597500  0.04830700  1
  H  25  1  0.07478900  0.19374200  0.02227600  1
  H  26  1  0.11462100  0.26828300  0.15617000  1
  H  33  1  0.90621500  0.74463400  0.07202000  1
  H  34  1  0.00015000  0.71379600  0.07733400  1
  H  35  1  0.97630700  0.78753800  0.02729400  1
  H  42  1  0.91776600  0.73411200  0.11952100  1
  H  43  1  0.92098300  0.64080000  0.14658000  1
  H  44  1  0.96632700  0.66459700  0.07784300  1
  H  49  1  0.95958700  0.60580300  0.12622200  1
  H  50  1  0.03981500  0.73631800  0.04927200  1
  H  51  1  0.92466800  0.81128500  0.03219200  1
  H  52  1  0.88924800  0.71854800  0.15766700  1
  H  59  1  0.25393400  0.90562800  0.92837800  1
  H  60  1  0.28575000  0.99884100  0.91984200  1
  H  61  1  0.21871700  0.97682500  0.97628500  1
  H  68  1  0.25757000  0.91821100  0.87969300  1
  H  69  1  0.34770800  0.91427300  0.84649900  1
  H  70  1  0.33423500  0.96117900  0.91654000  1
  H  75  1  0.39135900  0.93914600  0.86710400  1
  H  76  1  0.26790200  0.03909600  0.95078800  1
  H  77  1  0.19445700  0.92601500  0.97549500  1
  H  78  1  0.26745600  0.88782000  0.84113200  1
  H  85  1  0.74526900  0.09476900  0.92801900  1
  H  86  1  0.71609000  0.00048500  0.92123400  1
  H  87  1  0.79061400  0.02417000  0.97057500  1
  H  94  1  0.73398900  0.08444600  0.88040200  1
  H  95  1  0.64023000  0.08013800  0.85449400  1
  H  96  1  0.66628500  0.03330100  0.92202100  1
  H  101  1  0.60689600  0.03956100  0.87432800  1
  H  102  1  0.74117200  0.96004100  0.94645000  1
  H  103  1  0.81307300  0.07654900  0.96663100  1
  H  104  1  0.71706000  0.11370900  0.84296800  1
  H  111  1  0.59271700  0.24191300  0.56534300  1
  H  112  1  0.49870600  0.21463900  0.57750000  1
  H  113  1  0.52125400  0.27594600  0.51712600  1
  H  120  1  0.58373300  0.24240900  0.61340300  1
  H  121  1  0.58454100  0.15578000  0.65232400  1
  H  122  1  0.53290900  0.16558500  0.58413500  1
  H  127  1  0.55190100  0.11343300  0.63753500  1
  H  128  1  0.45850000  0.23053100  0.54545800  1
  H  129  1  0.57301300  0.29530600  0.51259900  1
  H  130  1  0.61707600  0.23418600  0.65016600  1
  H  137  1  0.40814500  0.75553200  0.56942800  1
  H  138  1  0.50217200  0.78567800  0.57598700  1
  H  139  1  0.47769100  0.71716800  0.52151700  1
  H  146  1  0.41877500  0.76163400  0.61662800  1
  H  147  1  0.42258300  0.85162500  0.65023700  1
  H  148  1  0.46912600  0.83460600  0.58067300  1
  H  153  1  0.46204900  0.88852500  0.63231200  1
  H  154  1  0.54102600  0.76679400  0.54465200  1
  H  155  1  0.42659800  0.69351800  0.52408300  1
  H  156  1  0.38782900  0.77419000  0.65404300  1
  H  163  1  0.75715000  0.59142200  0.43275900  1
  H  164  1  0.78504000  0.49748800  0.42110500  1
  H  165  1  0.72423500  0.52022500  0.48175600  1
  H  172  1  0.75624100  0.58190800  0.38480700  1
  H  173  1  0.84221200  0.58219800  0.34489300  1
  H  174  1  0.83369500  0.53182800  0.41380000  1
  H  179  1  0.88466500  0.54918900  0.35946400  1
  H  180  1  0.76978700  0.45751300  0.45364200  1
  H  181  1  0.70420200  0.57177500  0.48579600  1
  H  182  1  0.76357700  0.61446200  0.34752900  1
  H  189  1  0.24352300  0.40667100  0.43015900  1
  H  190  1  0.21447200  0.50097400  0.42305200  1
  H  191  1  0.28321600  0.47629600  0.47726400  1
  H  198  1  0.23680200  0.41639200  0.38301300  1
  H  199  1  0.14651700  0.42125500  0.35002400  1
  H  200  1  0.16518900  0.46882400  0.41884400  1
  H  205  1  0.11087000  0.46226600  0.36759300  1
  H  206  1  0.23402700  0.53994300  0.45380200  1
  H  207  1  0.30617900  0.42483600  0.47499600  1
  H  208  1  0.22317200  0.38489000  0.34591700  1
  H  215  1  0.02256800  0.41526100  0.05593500  1
  H  222  1  0.01174200  0.58628800  0.08427500  1
  H  223  1  0.91923300  0.55130800  0.08649900  1
  H  224  1  0.02110500  0.43072100  0.13531000  1
  H  245  1  0.41543800  0.97645500  0.94202400  1
  H  252  1  0.58719700  0.98685900  0.91595000  1
  H  253  1  0.55221700  0.07936700  0.91369700  1
  H  254  1  0.43248300  0.97801000  0.86285800  1
  H  275  1  0.52197700  0.08230200  0.56078100  1
  H  282  1  0.51219000  0.91224300  0.59258100  1
  H  283  1  0.41924300  0.94615900  0.59223700  1
  H  284  1  0.51871100  0.06938900  0.64045000  1
  H  305  1  0.91626300  0.52188100  0.43713900  1
  H  312  1  0.08690800  0.51233200  0.40699100  1
  H  313  1  0.05292600  0.41940400  0.40729900  1
  H  314  1  0.93046800  0.51874600  0.35760400  1
  H  335  1  0.15096700  0.28412500  0.19820100  1
  H  342  1  0.15803400  0.35671100  0.32490900  1
  H  343  1  0.20163100  0.41879800  0.27327200  1
  H  344  1  0.06969100  0.33961600  0.20663200  1
  H  365  1  0.85275100  0.70708900  0.19565800  1
  H  372  1  0.82896400  0.64392700  0.32461100  1
  H  373  1  0.78612500  0.58148400  0.27281100  1
  H  374  1  0.92683900  0.64362800  0.20934300  1
  H  395  1  0.28418800  0.84998400  0.80008100  1
  H  402  1  0.35847500  0.83944100  0.67418300  1
  H  403  1  0.42022300  0.79774700  0.72711300  1
  H  404  1  0.33940900  0.93122200  0.79031000  1
  H  425  1  0.70602500  0.14910300  0.80451600  1
  H  432  1  0.64571900  0.16911000  0.67425800  1
  H  433  1  0.58199500  0.21307600  0.72437700  1
  H  434  1  0.64345900  0.07418500  0.79109800  1
  H  455  1  0.17599700  0.04174300  0.99209300  1
  H  462  1  0.11687300  0.19772700  0.98461300  1
  H  463  1  0.15874900  0.18780200  0.05693700  1
  H  464  1  0.25218900  0.09280200  0.96179800  1
  H  485  1  0.82751500  0.95913500  0.99481600  1
  H  492  1  0.88527000  0.80216200  0.98731400  1
  H  493  1  0.84223400  0.81196600  0.05918200  1
  H  494  1  0.75303800  0.90824000  0.96164100  1
  H  515  1  0.04160900  0.82679200  0.00606700  1
  H  522  1  0.19865400  0.88377900  0.01336800  1
  H  523  1  0.18785900  0.84261300  0.94086000  1
  H  524  1  0.09235200  0.75074000  0.03696700  1
  H  545  1  0.95869200  0.17427300  0.00668300  1
  H  552  1  0.80238400  0.11531900  0.01277400  1
  H  553  1  0.81271000  0.15871900  0.94111000  1
  H  554  1  0.90768200  0.25045900  0.03702900  1
  H  575  1  0.67703500  0.45525300  0.49380800  1
  H  582  1  0.61732100  0.29984100  0.48256900  1
  H  583  1  0.65509000  0.30883000  0.55648200  1
  H  584  1  0.75372400  0.40403800  0.46453100  1
  H  605  1  0.32610800  0.54197300  0.49475400  1
  H  612  1  0.38400400  0.69849100  0.48558000  1
  H  613  1  0.34395400  0.68909500  0.55862300  1
  H  614  1  0.24967200  0.59281800  0.46462100  1
  H  635  1  0.54341000  0.67374300  0.50517700  1
  H  642  1  0.69976500  0.61625700  0.51575100  1
  H  643  1  0.68971200  0.65325500  0.44167600  1
  H  644  1  0.59412500  0.75088800  0.53425100  1
  H  665  1  0.45625600  0.32304000  0.50490000  1
  H  672  1  0.30048400  0.38269000  0.51405000  1
  H  673  1  0.30938400  0.34189300  0.44124400  1
  H  674  1  0.40512600  0.24637000  0.53430300  1
  C  1  1  0.05006500  0.27220400  0.07662300  1
  C  2  1  0.07206900  0.25272600  0.06390400  1
  C  3  1  0.06278500  0.23243100  0.04384500  1
  C  4  1  0.03062100  0.23184700  0.03684200  1
  C  5  1  0.00776800  0.25063500  0.04936600  1
  C  6  1  0.01807800  0.27096800  0.06907100  1
  C  10  1  0.05998100  0.29256700  0.09670900  1
  C  11  1  0.07808500  0.28104200  0.11738100  1
  C  12  1  0.08792900  0.30106800  0.13744300  1
  C  13  1  0.08005800  0.33341100  0.13607200  1
  C  14  1  0.06182400  0.34577700  0.11577500  1
  C  15  1  0.05196300  0.32486500  0.09627000  1
  C  19  1  0.05373300  0.37757500  0.11577900  1
  C  20  1  0.97589700  0.24879800  0.04312400  1
  C  21  1  0.08369800  0.21210800  0.03174000  1
  C  22  1  0.10546100  0.28969600  0.15789500  1
  C  27  1  0.95178500  0.72555900  0.07712700  1
  C  28  1  0.92928400  0.74628700  0.06642500  1
  C  29  1  0.93796600  0.76911300  0.04806900  1
  C  30  1  0.96991100  0.77101400  0.04061200  1
  C  31  1  0.99320100  0.75085500  0.05100300  1
  C  32  1  0.98355800  0.72819600  0.06919600  1
  C  36  1  0.94280100  0.70264800  0.09567000  1
  C  37  1  0.92450800  0.71110600  0.11723100  1
  C  38  1  0.91663300  0.68884500  0.13632300  1
  C  39  1  0.92669800  0.65732200  0.13303800  1
  C  40  1  0.94489000  0.64812200  0.11170700  1
  C  41  1  0.95287100  0.67103500  0.09326000  1
  C  45  1  0.95675400  0.61787200  0.11000700  1
  C  46  1  0.02484100  0.75316100  0.04409300  1
  C  47  1  0.91654800  0.79034300  0.03786300  1
  C  48  1  0.89909100  0.69729200  0.15772000  1
  C  53  1  0.27310400  0.95073200  0.92146900  1
  C  54  1  0.25350800  0.92871900  0.93405600  1
  C  55  1  0.23347800  0.93789600  0.95431700  1
  C  56  1  0.23328700  0.96993400  0.96167900  1
  C  57  1  0.25218700  0.99279100  0.94928100  1
  C  58  1  0.27224200  0.98260900  0.92935100  1
  C  62  1  0.29310900  0.94098300  0.90110700  1
  C  63  1  0.28113200  0.92341800  0.88030100  1
  C  64  1  0.30078300  0.91385200  0.85991600  1
  C  65  1  0.33319400  0.92149800  0.86104400  1
  C  66  1  0.34601900  0.93913900  0.88149900  1
  C  67  1  0.32547300  0.94872800  0.90134700  1
  C  71  1  0.37789100  0.94695300  0.88133900  1
  C  72  1  0.25057600  0.02458800  0.95576000  1
  C  73  1  0.21294100  0.91704300  0.96621400  1
  C  74  1  0.28891900  0.89696700  0.83931600  1
  C  79  1  0.72699500  0.04901100  0.92221200  1
  C  80  1  0.74751100  0.07157600  0.93309200  1
  C  81  1  0.77091200  0.06277900  0.95093500  1
  C  82  1  0.77361600  0.03064400  0.95767000  1
  C  83  1  0.75361100  0.00728700  0.94716500  1
  C  84  1  0.73041500  0.01706800  0.92945800  1
  C  88  1  0.70351200  0.05810800  0.90417700  1
  C  89  1  0.71117700  0.07716200  0.88285300  1
  C  90  1  0.68837900  0.08515100  0.86421300  1
  C  91  1  0.65713100  0.07437300  0.86771600  1
  C  92  1  0.64873100  0.05535400  0.88878500  1
  C  93  1  0.67215400  0.04733400  0.90679600  1
  C  97  1  0.61877700  0.04277800  0.89059800  1
  C  98  1  0.75647200  0.97547300  0.95349100  1
  C  99  1  0.79184100  0.08434800  0.96137100  1
  C  100  1  0.69604200  0.10341900  0.84302100  1
  C  105  1  0.54720800  0.22519600  0.57429000  1
  C  106  1  0.56947200  0.24287600  0.56017300  1
  C  107  1  0.56043600  0.26168000  0.53908600  1
  C  108  1  0.52819200  0.26229900  0.53229200  1
  C  109  1  0.50510900  0.24528000  0.54611000  1
  C  110  1  0.51515700  0.22660000  0.56693500  1
  C  114  1  0.55686300  0.20667800  0.59565600  1
  C  115  1  0.57677700  0.21935200  0.61473700  1
  C  116  1  0.58675000  0.20117500  0.63589500  1
  C  117  1  0.57687500  0.16940100  0.63737800  1
  C  118  1  0.55690600  0.15586200  0.61871300  1
  C  119  1  0.54704600  0.17500200  0.59804100  1
  C  123  1  0.54746200  0.12459700  0.62120800  1
  C  124  1  0.47322300  0.24751700  0.54013400  1
  C  125  1  0.58158800  0.28069800  0.52579600  1
  C  126  1  0.60715500  0.21357900  0.65410000  1
  C  131  1  0.45373400  0.77413900  0.57534700  1
  C  132  1  0.43111500  0.75447300  0.56350900  1
  C  133  1  0.43950800  0.73341700  0.54370100  1
  C  134  1  0.47135600  0.73239500  0.53584400  1
  C  135  1  0.49476400  0.75142500  0.54737000  1
  C  136  1  0.48540500  0.77227800  0.56700800  1
  C  140  1  0.44501400  0.79502000  0.59552000  1
  C  141  1  0.42609600  0.78462500  0.61614600  1
  C  142  1  0.41795500  0.80490800  0.63657300  1
  C  143  1  0.42863700  0.83645500  0.63578700  1
  C  144  1  0.44736800  0.84760800  0.61538500  1
  C  145  1  0.45549100  0.82663700  0.59550300  1
  C  149  1  0.45903500  0.87799100  0.61544200  1
  C  150  1  0.52634100  0.74934100  0.54035000  1
  C  151  1  0.41809000  0.71271700  0.53267600  1
  C  152  1  0.39868500  0.79473000  0.65641500  1
  C  157  1  0.77417900  0.54595500  0.42406100  1
  C  158  1  0.75646000  0.56823300  0.43812600  1
  C  159  1  0.73794600  0.55927700  0.45940600  1
  C  160  1  0.73768000  0.52711100  0.46645600  1
  C  161  1  0.75473200  0.50401900  0.45268000  1
  C  162  1  0.77309100  0.51397300  0.43164700  1
  C  166  1  0.79235200  0.55547400  0.40246600  1
  C  167  1  0.77931000  0.57503400  0.38331000  1
  C  168  1  0.79710400  0.58468900  0.36184100  1
  C  169  1  0.82886200  0.57482400  0.36009100  1
  C  170  1  0.84277500  0.55527400  0.37886300  1
  C  171  1  0.82401600  0.54572900  0.39985400  1
  C  175  1  0.87400600  0.54582800  0.37617300  1
  C  176  1  0.75268000  0.47217800  0.45881100  1
  C  177  1  0.71879300  0.58038700  0.47260100  1
  C  178  1  0.78424600  0.60460900  0.34350700  1
  C  183  1  0.22544900  0.45241700  0.42395600  1
  C  184  1  0.24495300  0.42970400  0.43585700  1
  C  185  1  0.26630700  0.43807100  0.45546400  1
  C  186  1  0.26780700  0.46999900  0.46305700  1
  C  187  1  0.24892100  0.49350200  0.45150100  1
  C  188  1  0.22779900  0.48416000  0.43204100  1
  C  192  1  0.20417700  0.44369900  0.40403100  1
  C  193  1  0.21397300  0.42419400  0.38356600  1
  C  194  1  0.19329100  0.41602700  0.36341200  1
  C  195  1  0.16196200  0.42730900  0.36428400  1
  C  196  1  0.15142000  0.44667400  0.38450300  1
  C  197  1  0.17275400  0.45476300  0.40413500  1
  C  201  1  0.12130200  0.45897800  0.38447200  1
  C  202  1  0.25124700  0.52511900  0.45839800  1
  C  203  1  0.28678100  0.41650000  0.46658400  1
  C  204  1  0.20283200  0.39614200  0.34379300  1
  C  209  1  0.02447800  0.41881000  0.09614300  1
  C  210  1  0.01748200  0.43859200  0.11706300  1
  C  211  1  0.00507700  0.46912100  0.11335600  1
  C  212  1  0.99936600  0.47989700  0.08808800  1
  C  213  1  0.00573000  0.46012000  0.06686400  1
  C  214  1  0.01800200  0.42960300  0.07123600  1
  C  216  1  0.98742000  0.51082000  0.08438500  1
  C  217  1  0.00865500  0.53660600  0.08351500  1
  C  218  1  0.99651900  0.56759500  0.08391100  1
  C  219  1  0.96384700  0.57308900  0.08540300  1
  C  220  1  0.94296100  0.54737300  0.08510600  1
  C  221  1  0.95440600  0.51608800  0.08485400  1
  C  239  1  0.41973600  0.97464000  0.90185800  1
  C  240  1  0.44000700  0.98149200  0.88121500  1
  C  241  1  0.47056000  0.99364400  0.88534600  1
  C  242  1  0.48087400  0.99922500  0.91075900  1
  C  243  1  0.46063400  0.99295200  0.93170800  1
  C  244  1  0.43012100  0.98092000  0.92691500  1
  C  246  1  0.51172200  0.01114800  0.91489200  1
  C  247  1  0.53750300  0.98991800  0.91603000  1
  C  248  1  0.56849400  0.00207200  0.91617300  1
  C  249  1  0.57399300  0.03475600  0.91494000  1
  C  250  1  0.54826300  0.05562700  0.91493400  1
  C  251  1  0.51698700  0.04416500  0.91467400  1
  C  269  1  0.52275200  0.08028800  0.60109500  1
  C  270  1  0.51553400  0.06103900  0.62230600  1
  C  271  1  0.50357400  0.03024700  0.61906700  1
  C  272  1  0.49852700  0.01858300  0.59397100  1
  C  273  1  0.50520800  0.03772500  0.57243500  1
  C  274  1  0.51712400  0.06848100  0.57634100  1
  C  276  1  0.48701600  0.98739900  0.59078400  1
  C  277  1  0.50855200  0.96183800  0.59086700  1
  C  278  1  0.49675400  0.93073200  0.59172300  1
  C  279  1  0.46410300  0.92486800  0.59276900  1
  C  280  1  0.44297200  0.95032700  0.59139000  1
  C  281  1  0.45406800  0.98173300  0.59072700  1
  C  299  1  0.91888200  0.52263200  0.39684700  1
  C  300  1  0.93851700  0.51556200  0.37583700  1
  C  301  1  0.96930300  0.50372400  0.37939800  1
  C  302  1  0.98058300  0.49869600  0.40461100  1
  C  303  1  0.96108500  0.50531100  0.42594800  1
  C  304  1  0.93035000  0.51710500  0.42172100  1
  C  306  1  0.01172000  0.48720700  0.40813400  1
  C  307  1  0.03728900  0.50873100  0.40824300  1
  C  308  1  0.06839900  0.49691100  0.40774200  1
  C  309  1  0.07425700  0.46425300  0.40687000  1
  C  310  1  0.04876800  0.44313900  0.40807500  1
  C  311  1  0.01736000  0.45425400  0.40836300  1
  C  329  1  0.10833100  0.30970900  0.19933300  1
  C  330  1  0.09203800  0.33377100  0.21227500  1
  C  331  1  0.10628100  0.35071700  0.23248300  1
  C  332  1  0.13733900  0.34276700  0.24014500  1
  C  333  1  0.15384100  0.31812300  0.22762100  1
  C  334  1  0.13911900  0.30191400  0.20724100  1
  C  336  1  0.15180900  0.35900900  0.26083400  1
  C  337  1  0.14651800  0.34867100  0.28626300  1
  C  338  1  0.16200900  0.36419700  0.30659800  1
  C  339  1  0.18263500  0.38972000  0.30211500  1
  C  340  1  0.18701900  0.40010500  0.27679500  1
  C  341  1  0.17203800  0.38493500  0.25599500  1
  C  359  1  0.89226200  0.67716000  0.19939000  1
  C  360  1  0.90519500  0.65255300  0.21406700  1
  C  361  1  0.88838100  0.63900600  0.23465400  1
  C  362  1  0.85814800  0.65095700  0.24090800  1
  C  363  1  0.84508100  0.67626800  0.22671500  1
  C  364  1  0.86230200  0.68901500  0.20600600  1
  C  366  1  0.84064600  0.63728200  0.26125900  1
  C  367  1  0.84434800  0.64884200  0.28651700  1
  C  368  1  0.82618700  0.63551100  0.30642400  1
  C  369  1  0.80460400  0.61085200  0.30169100  1
  C  370  1  0.80155000  0.59945500  0.27653200  1
  C  371  1  0.81922100  0.61241800  0.25615800  1
  C  389  1  0.30958400  0.89269300  0.79820800  1
  C  390  1  0.33376200  0.90865200  0.78513300  1
  C  391  1  0.35107100  0.89379700  0.76542800  1
  C  392  1  0.34337000  0.86245100  0.75840300  1
  C  393  1  0.31863100  0.84625600  0.77107000  1
  C  394  1  0.30206000  0.86159800  0.79094900  1
  C  396  1  0.35989900  0.84741700  0.73814000  1
  C  397  1  0.34984100  0.85192700  0.71253900  1
  C  398  1  0.36575100  0.83601700  0.69262200  1
  C  399  1  0.39140400  0.81575500  0.69768700  1
  C  400  1  0.40146400  0.81210900  0.72317100  1
  C  401  1  0.38590000  0.82751800  0.74356700  1
  C  419  1  0.67650300  0.10925800  0.80097800  1
  C  420  1  0.65233200  0.09577400  0.78615200  1
  C  421  1  0.63911400  0.11197200  0.76510100  1
  C  422  1  0.65097600  0.14213800  0.75853300  1
  C  423  1  0.67586300  0.15575100  0.77288400  1
  C  424  1  0.68826400  0.13915100  0.79406100  1
  C  426  1  0.63765900  0.15901900  0.73768300  1
  C  427  1  0.64979800  0.15470800  0.71266700  1
  C  428  1  0.63688400  0.17232800  0.69226500  1
  C  429  1  0.61209600  0.19399100  0.69626600  1
  C  430  1  0.60008300  0.19760500  0.72118600  1
  C  431  1  0.61261400  0.18048200  0.74204200  1
  C  449  1  0.21615100  0.06308900  0.97577500  1
  C  450  1  0.23146900  0.09215300  0.97173700  1
  C  451  1  0.21826000  0.12067500  0.98082700  1
  C  452  1  0.18929000  0.11981400  0.99432600  1
  C  453  1  0.17371200  0.09069400  0.99855300  1
  C  454  1  0.18744300  0.06269200  0.98919500  1
  C  456  1  0.17448100  0.14803700  0.00268600  1
  C  457  1  0.15277600  0.16336800  0.98622600  1
  C  458  1  0.13343000  0.18752200  0.99617500  1
  C  459  1  0.13492100  0.19608200  0.02220600  1
  C  460  1  0.15771800  0.18189500  0.03797200  1
  C  461  1  0.17739300  0.15761100  0.02858500  1
  C  479  1  0.78836200  0.93793800  0.97686600  1
  C  480  1  0.77318000  0.90889500  0.97233100  1
  C  481  1  0.78566800  0.88034100  0.98198000  1
  C  482  1  0.81382100  0.88109500  0.99656900  1
  C  483  1  0.82922000  0.91017100  0.00139600  1
  C  484  1  0.81614100  0.93823700  0.99152900  1
  C  486  1  0.82824100  0.85273000  0.00507000  1
  C  487  1  0.84994600  0.83716100  0.98874200  1
  C  488  1  0.86857100  0.81245300  0.99869900  1
  C  489  1  0.86629900  0.80354200  0.02458900  1
  C  490  1  0.84367000  0.81810500  0.04028700  1
  C  491  1  0.82467500  0.84291000  0.03086000  1
  C  509  1  0.06274300  0.78677700  0.02277700  1
  C  510  1  0.09172800  0.77126100  0.02676700  1
  C  511  1  0.12027200  0.78400800  0.01733000  1
  C  512  1  0.11954000  0.81273600  0.00350000  1
  C  513  1  0.09052100  0.82849000  0.99924700  1
  C  514  1  0.06247500  0.81518700  0.00893900  1
  C  516  1  0.14788000  0.82723700  0.99507400  1
  C  517  1  0.16365200  0.84851900  0.01162800  1
  C  518  1  0.18819700  0.86742700  0.00176400  1
  C  519  1  0.19664900  0.86598100  0.97571000  1
  C  520  1  0.18202800  0.84356900  0.95984200  1
  C  521  1  0.15738400  0.82429900  0.96916200  1
  C  539  1  0.93737800  0.21438800  0.02308700  1
  C  540  1  0.90832200  0.22973900  0.02709200  1
  C  541  1  0.87980200  0.21662500  0.01789300  1
  C  542  1  0.88064300  0.18770500  0.00431800  1
  C  543  1  0.90975000  0.17208700  0.00013800  1
  C  544  1  0.93775000  0.18572700  0.00959600  1
  C  546  1  0.85242300  0.17312100  0.99566500  1
  C  547  1  0.83691200  0.15114800  0.01178500  1
  C  548  1  0.81259700  0.13222400  0.00154900  1
  C  549  1  0.80404100  0.13447800  0.97558000  1
  C  550  1  0.81851500  0.15736800  0.96007700  1
  C  551  1  0.84297100  0.17660800  0.96977500  1
  C  569  1  0.71750200  0.43383900  0.47807600  1
  C  570  1  0.73271100  0.40471100  0.47405600  1
  C  571  1  0.71900300  0.37615500  0.48257300  1
  C  572  1  0.68963200  0.37703800  0.49548700  1
  C  573  1  0.67416700  0.40622300  0.49970400  1
  C  574  1  0.68841200  0.43426100  0.49093700  1
  C  576  1  0.67423100  0.34880300  0.50309500  1
  C  577  1  0.65330500  0.33383300  0.48578400  1
  C  578  1  0.63314900  0.30983100  0.49488600  1
  C  579  1  0.63292500  0.30111100  0.52093400  1
  C  580  1  0.65511600  0.31486600  0.53752300  1
  C  581  1  0.67564600  0.33892400  0.52899400  1
  C  599  1  0.28581600  0.56315100  0.47853100  1
  C  600  1  0.27040500  0.59219000  0.47453700  1
  C  601  1  0.28353800  0.62076200  0.48357000  1
  C  602  1  0.31256300  0.62001800  0.49698500  1
  C  603  1  0.32824000  0.59094600  0.50120300  1
  C  604  1  0.31456000  0.56287500  0.49190800  1
  C  606  1  0.32743900  0.64836400  0.50498800  1
  C  607  1  0.34856000  0.66373900  0.48805500  1
  C  608  1  0.36779300  0.68830400  0.49747100  1
  C  609  1  0.36679200  0.69721900  0.52343700  1
  C  610  1  0.34459500  0.68293700  0.53970200  1
  C  611  1  0.32500600  0.65828100  0.53083500  1
  C  629  1  0.56453300  0.71441000  0.52082300  1
  C  630  1  0.59353900  0.72995800  0.52460900  1
  C  631  1  0.62214200  0.71664100  0.51581800  1
  C  632  1  0.62144000  0.68731700  0.50283300  1
  C  633  1  0.59239000  0.67152500  0.49880300  1
  C  634  1  0.56429500  0.68538400  0.50786000  1
  C  636  1  0.64979400  0.67222700  0.49512700  1
  C  637  1  0.66521400  0.65169200  0.51249400  1
  C  638  1  0.68950700  0.63188400  0.50340900  1
  C  639  1  0.69801100  0.63154300  0.47731500  1
  C  640  1  0.68382900  0.65339200  0.46066600  1
  C  641  1  0.65949800  0.67359700  0.46918600  1
  C  659  1  0.43489000  0.28262900  0.52077200  1
  C  660  1  0.40578300  0.26735800  0.52474200  1
  C  661  1  0.37723400  0.28090100  0.51604000  1
  C  662  1  0.37808900  0.31018900  0.50299800  1
  C  663  1  0.40724300  0.32572700  0.49883400  1
  C  664  1  0.43527800  0.31164000  0.50778100  1
  C  666  1  0.34983700  0.32526100  0.49499500  1
  C  667  1  0.33473900  0.34672800  0.51180000  1
  C  668  1  0.31042700  0.36620300  0.50227100  1
  C  669  1  0.30151800  0.36510600  0.47630800  1
  C  670  1  0.31547400  0.34254800  0.46018000  1
  C  671  1  0.33990800  0.32275500  0.46915200  1
  N  225  1  0.93357200  0.49006300  0.08600000  1
  N  226  1  0.04154700  0.53097100  0.08316600  1
  N  227  1  0.99822900  0.48895600  0.13444400  1
  N  228  1  0.99971700  0.47124300  0.04180800  1
  N  237  1  0.95270300  0.60184900  0.08913800  1
  N  238  1  0.03538700  0.38970100  0.09886000  1
  N  255  1  0.49098200  0.06499900  0.91324100  1
  N  256  1  0.53187300  0.95702200  0.91609900  1
  N  257  1  0.49085200  0.00042500  0.86453300  1
  N  258  1  0.47128300  0.99885100  0.95691900  1
  N  267  1  0.60282000  0.04591100  0.91158700  1
  N  268  1  0.39054600  0.96407100  0.89883900  1
  N  285  1  0.43291600  0.00753800  0.59080500  1
  N  286  1  0.54138000  0.96784300  0.59080400  1
  N  287  1  0.49657000  0.01097500  0.64046400  1
  N  288  1  0.49989000  0.02573200  0.54753800  1
  N  297  1  0.45293100  0.89601600  0.59604200  1
  N  298  1  0.53374000  0.10950400  0.60302200  1
  N  315  1  0.99154800  0.43311200  0.40807900  1
  N  316  1  0.03129600  0.54156100  0.40812100  1
  N  317  1  0.98893900  0.49678900  0.35820600  1
  N  318  1  0.97269900  0.50003400  0.45096700  1
  N  327  1  0.10313400  0.45304600  0.40381900  1
  N  328  1  0.88962700  0.53342500  0.39468500  1
  N  345  1  0.17684100  0.39517600  0.23051000  1
  N  346  1  0.12594700  0.32301900  0.29088900  1
  N  347  1  0.09017400  0.37554100  0.24500100  1
  N  348  1  0.18464100  0.31008800  0.23575400  1
  N  357  1  0.19744100  0.40530500  0.32060600  1
  N  358  1  0.09374600  0.29526600  0.18025600  1
  N  375  1  0.81593400  0.60098300  0.23084400  1
  N  376  1  0.86611700  0.67340600  0.29138800  1
  N  377  1  0.90102500  0.61354400  0.24884500  1
  N  378  1  0.81503000  0.68820900  0.23339600  1
  N  387  1  0.78719000  0.59715400  0.31967300  1
  N  388  1  0.90899800  0.68730000  0.17963600  1
  N  405  1  0.39583100  0.82347700  0.76921900  1
  N  406  1  0.32409000  0.87216000  0.70732600  1
  N  407  1  0.37600000  0.90958900  0.75278200  1
  N  408  1  0.31086000  0.81514700  0.76356600  1
  N  417  1  0.40737700  0.80061300  0.67960300  1
  N  418  1  0.29476000  0.90788200  0.81676700  1
  N  435  1  0.60057800  0.18435300  0.76711400  1
  N  436  1  0.67452500  0.13289100  0.70853000  1
  N  437  1  0.61407400  0.09877800  0.75075000  1
  N  438  1  0.68774100  0.18571400  0.76587800  1
  N  447  1  0.59880200  0.21092800  0.67778500  1
  N  448  1  0.68631400  0.09307000  0.82113900  1
  N  465  1  0.19897300  0.14187300  0.04482300  1
  N  466  1  0.14972700  0.15328200  0.96051500  1
  N  467  1  0.23320000  0.15001900  0.97655600  1
  N  468  1  0.14450100  0.09003400  0.01169600  1
  N  477  1  0.11384600  0.21515200  0.03283600  1
  N  478  1  0.22623500  0.03551800  0.96730500  1
  N  495  1  0.80307600  0.85885500  0.04694200  1
  N  496  1  0.85374000  0.84752300  0.96316600  1
  N  497  1  0.77081300  0.85107200  0.97717200  1
  N  498  1  0.85770800  0.91069200  0.01554200  1
  N  507  1  0.88712800  0.78397300  0.03485200  1
  N  508  1  0.77892400  0.96552800  0.96783300  1
  N  525  1  0.14125400  0.80308800  0.95286000  1
  N  526  1  0.15364400  0.85162300  0.03735800  1
  N  527  1  0.14950900  0.76885200  0.02161000  1
  N  528  1  0.09003400  0.85749800  0.98581100  1
  N  537  1  0.21597700  0.88689000  0.96519100  1
  N  538  1  0.03518800  0.77711300  0.03167800  1
  N  555  1  0.85898000  0.19833400  0.95384500  1
  N  556  1  0.84695100  0.14745400  0.03745200  1
  N  557  1  0.85048100  0.23164000  0.02209500  1
  N  558  1  0.91040000  0.14296200  0.98687200  1
  N  567  1  0.78481600  0.11349200  0.96510300  1
  N  568  1  0.96498900  0.22452300  0.03146600  1
  N  585  1  0.69663100  0.35414400  0.54605300  1
  N  586  1  0.65177900  0.34416800  0.46004600  1
  N  587  1  0.73384300  0.34676600  0.47828600  1
  N  588  1  0.64452800  0.40692300  0.51219900  1
  N  597  1  0.61113700  0.28241700  0.53116000  1
  N  598  1  0.72804300  0.46145600  0.47006600  1
  N  615  1  0.30395600  0.64253800  0.54751900  1
  N  616  1  0.35117900  0.65331400  0.46240100  1
  N  617  1  0.26847600  0.65004300  0.47927500  1
  N  618  1  0.35754000  0.59042600  0.51421400  1
  N  627  1  0.38802400  0.71663800  0.53343500  1
  N  628  1  0.27581400  0.53556300  0.46993800  1
  N  645  1  0.64384700  0.69421500  0.45209100  1
  N  646  1  0.65505000  0.65017500  0.53827800  1
  N  647  1  0.65140400  0.73180400  0.51994600  1
  N  648  1  0.59190200  0.64191900  0.48625500  1
  N  657  1  0.71690900  0.60990100  0.46714300  1
  N  658  1  0.53694300  0.72451800  0.52928500  1
  N  675  1  0.35544100  0.30143600  0.45256200  1
  N  676  1  0.34520000  0.34940800  0.53744000  1
  N  677  1  0.34787500  0.26595900  0.52023200  1
  N  678  1  0.40790500  0.35522200  0.48612500  1
  N  687  1  0.28236800  0.38649100  0.46618100  1
  N  688  1  0.46253200  0.27208900  0.52875500  1
  O  229  1  0.91535900  0.48958100  0.06707500  1
  O  230  1  0.02445900  0.47197000  0.02864500  1
  O  231  1  0.02248200  0.49477300  0.14737100  1
  O  232  1  0.05489100  0.54247500  0.10247000  1
  O  233  1  0.91736800  0.49043300  0.10610200  1
  O  234  1  0.97973600  0.45437900  0.03056100  1
  O  235  1  0.97779100  0.47698200  0.14883800  1
  O  236  1  0.05407300  0.54220900  0.06341000  1
  O  259  1  0.49006600  0.08308000  0.93223800  1
  O  260  1  0.47155800  0.97408900  0.97006600  1
  O  261  1  0.49673700  0.97617700  0.85162000  1
  O  262  1  0.54381900  0.94385800  0.89689100  1
  O  263  1  0.49178500  0.08134000  0.89322100  1
  O  264  1  0.45433900  0.01894200  0.96795500  1
  O  265  1  0.47931100  0.02100700  0.85003900  1
  O  266  1  0.54267000  0.94432500  0.93594500  1
  O  289  1  0.41535600  0.00716400  0.57147600  1
  O  290  1  0.52493300  0.02483200  0.53476400  1
  O  291  1  0.52065200  0.00584000  0.65378700  1
  O  292  1  0.55449200  0.95706700  0.61048300  1
  O  293  1  0.41603600  0.00766300  0.61053900  1
  O  294  1  0.48001200  0.04202500  0.53563600  1
  O  295  1  0.47571900  0.02312000  0.65436400  1
  O  296  1  0.55439500  0.95616300  0.57142600  1
  O  319  1  0.99160200  0.41564500  0.42746600  1
  O  320  1  0.97330400  0.52507600  0.46375500  1
  O  321  1  0.99418600  0.52088500  0.34492900  1
  O  322  1  0.04238200  0.55455500  0.38850400  1
  O  323  1  0.99173200  0.41613700  0.38839900  1
  O  324  1  0.95629200  0.48009000  0.46269800  1
  O  325  1  0.97709100  0.47588700  0.34418700  1
  O  326  1  0.04268300  0.55467800  0.42756700  1
  O  349  1  0.16785100  0.42311500  0.22745500  1
  O  350  1  0.20439400  0.31360100  0.21809700  1
  O  351  1  0.08347700  0.39737100  0.22971600  1
  O  352  1  0.10303000  0.33109100  0.30460600  1
  O  353  1  0.20531100  0.39318600  0.22416600  1
  O  354  1  0.18592500  0.28215100  0.24359600  1
  O  355  1  0.06524000  0.36601300  0.25536800  1
  O  356  1  0.14002400  0.30053900  0.30153400  1
  O  379  1  0.78828000  0.60442600  0.22276700  1
  O  380  1  0.79575000  0.68539300  0.21531900  1
  O  381  1  0.90575600  0.58992200  0.23488800  1
  O  382  1  0.88724100  0.66474000  0.30667300  1
  O  383  1  0.82327400  0.57238000  0.22931300  1
  O  384  1  0.81652000  0.71671100  0.23973800  1
  O  385  1  0.92645800  0.62099700  0.25952500  1
  O  386  1  0.85268300  0.69733000  0.30037700  1
  O  409  1  0.42366100  0.83275000  0.77236200  1
  O  410  1  0.31421600  0.79603000  0.78169700  1
  O  411  1  0.39757600  0.91691300  0.76811400  1
  O  412  1  0.33215800  0.89475600  0.69326100  1
  O  413  1  0.39395900  0.79516800  0.77604800  1
  O  414  1  0.28303900  0.81345200  0.75550100  1
  O  415  1  0.36651000  0.93411100  0.74176400  1
  O  416  1  0.30185700  0.85761100  0.69675800  1
  O  439  1  0.57196800  0.17694400  0.76832300  1
  O  440  1  0.68439000  0.20542600  0.78358400  1
  O  441  1  0.59018300  0.09419900  0.76443400  1
  O  442  1  0.66626200  0.11136200  0.69347100  1
  O  443  1  0.60373600  0.21221100  0.77479400  1
  O  444  1  0.71638600  0.18427200  0.75997400  1
  O  445  1  0.62196300  0.07314700  0.74060000  1
  O  446  1  0.69861600  0.14616500  0.69967900  1
  O  469  1  0.21914700  0.16059000  0.05364200  1
  O  470  1  0.14606400  0.07370100  0.03168800  1
  O  471  1  0.26005500  0.15081300  0.98661600  1
  O  472  1  0.12256800  0.14292400  0.95598600  1
  O  473  1  0.18521600  0.12856600  0.06314900  1
  O  474  1  0.12280100  0.07946100  0.99780000  1
  O  475  1  0.23587500  0.15573700  0.95308600  1
  O  476  1  0.15564200  0.17524200  0.94515200  1
  O  499  1  0.78235300  0.84042500  0.05530400  1
  O  500  1  0.85518800  0.92709400  0.03543200  1
  O  501  1  0.74341800  0.85044500  0.98623200  1
  O  502  1  0.88118700  0.85739900  0.95910200  1
  O  503  1  0.81670600  0.87161400  0.06558500  1
  O  504  1  0.88017900  0.92110500  0.00239200  1
  O  505  1  0.76941500  0.84532600  0.95363400  1
  O  506  1  0.84770200  0.82590200  0.94751900  1
  O  529  1  0.15960200  0.78260900  0.94399300  1
  O  530  1  0.07347800  0.85579800  0.96594800  1
  O  531  1  0.14994900  0.74181700  0.01185800  1
  O  532  1  0.14381000  0.87894900  0.04198800  1
  O  533  1  0.12822700  0.81716500  0.93456100  1
  O  534  1  0.07983100  0.87951900  0.99955600  1
  O  535  1  0.15541700  0.76653000  0.04507400  1
  O  536  1  0.17548700  0.84519400  0.05269500  1
  O  559  1  0.84049800  0.21884900  0.94522100  1
  O  560  1  0.92678700  0.14463400  0.96691500  1
  O  561  1  0.84981400  0.25852900  0.01208500  1
  O  562  1  0.85707700  0.12011700  0.04159900  1
  O  563  1  0.87224000  0.18478600  0.93539400  1
  O  564  1  0.92091200  0.12116100  0.00069600  1
  O  565  1  0.84465200  0.23426200  0.04555000  1
  O  566  1  0.82502400  0.15321900  0.05288400  1
  O  589  1  0.71608500  0.33501500  0.55534400  1
  O  590  1  0.64552900  0.42295700  0.53237200  1
  O  591  1  0.76036900  0.34559500  0.48888500  1
  O  592  1  0.62502200  0.35491200  0.45461900  1
  O  593  1  0.68219000  0.36741900  0.56404600  1
  O  594  1  0.62338300  0.41785600  0.49792600  1
  O  595  1  0.73721800  0.34141500  0.45481900  1
  O  596  1  0.65825200  0.32227000  0.44477300  1
  O  619  1  0.28374600  0.66114900  0.55642600  1
  O  620  1  0.35617600  0.57410400  0.53422100  1
  O  621  1  0.24165600  0.65076800  0.48939800  1
  O  622  1  0.37836200  0.64322300  0.45758000  1
  O  623  1  0.31824500  0.62967300  0.56578400  1
  O  624  1  0.37918600  0.57992700  0.50022800  1
  O  625  1  0.26569000  0.65568800  0.45580200  1
  O  626  1  0.34464400  0.67496100  0.44691000  1
  O  649  1  0.66261100  0.71390600  0.44264100  1
  O  650  1  0.57558700  0.64278100  0.46622500  1
  O  651  1  0.65214400  0.75839800  0.50943700  1
  O  652  1  0.64477000  0.62328900  0.54386800  1
  O  653  1  0.63070900  0.67944200  0.43421200  1
  O  654  1  0.58142800  0.62059200  0.50057400  1
  O  655  1  0.65698100  0.73511500  0.54338400  1
  O  656  1  0.67691800  0.65711700  0.55344400  1
  O  679  1  0.33662100  0.28138400  0.44370200  1
  O  680  1  0.42401000  0.35403100  0.46599400  1
  O  681  1  0.34689800  0.23936500  0.50972900  1
  O  682  1  0.35562000  0.37650200  0.54212800  1
  O  683  1  0.36850400  0.31548300  0.43426600  1
  O  684  1  0.41874200  0.37655100  0.50026400  1
  O  685  1  0.34235500  0.26270700  0.54368400  1
  O  686  1  0.32346800  0.34326200  0.55295600  1
