# generated using pymatgen
data_VH5C11NO5
_symmetry_space_group_name_H-M   'P 1'
_cell_length_a   7.25535000
_cell_length_b   15.19819000
_cell_length_c   16.58071000
_cell_angle_alpha   94.80240000
_cell_angle_beta   89.99916000
_cell_angle_gamma   89.99893000
_symmetry_Int_Tables_number   1
_chemical_formula_structural   VH5C11NO5
_chemical_formula_sum   'V4 H20 C44 N4 O20'
_cell_volume   1821.90624124
_cell_formula_units_Z   4
loop_
 _symmetry_equiv_pos_site_id
 _symmetry_equiv_pos_as_xyz
  1  'x, y, z'
loop_
 _atom_site_type_symbol
 _atom_site_label
 _atom_site_symmetry_multiplicity
 _atom_site_fract_x
 _atom_site_fract_y
 _atom_site_fract_z
 _atom_site_occupancy
  V  V0  1  0.80301000  0.23964000  0.74946000  1
  V  V1  1  0.19699000  0.76036000  0.25054000  1
  V  V2  1  0.30301000  0.26036000  0.75054000  1
  V  V3  1  0.69699000  0.73964000  0.24946000  1
  H  H4  1  0.01283000  0.65372000  0.76015000  1
  H  H5  1  0.98716000  0.34628000  0.23985000  1
  H  H6  1  0.51678000  0.84621000  0.73977000  1
  H  H7  1  0.48325000  0.15379000  0.26023000  1
  H  H8  1  0.97489000  0.49959000  0.21259000  1
  H  H9  1  0.02510000  0.50041000  0.78741000  1
  H  H10  1  0.47263000  0.00045000  0.28747000  1
  H  H11  1  0.52738000  0.99955000  0.71253000  1
  H  H12  1  0.01354000  0.22933000  0.12956000  1
  H  H13  1  0.98645000  0.77067000  0.87044000  1
  H  H14  1  0.51002000  0.27075000  0.37050000  1
  H  H15  1  0.49002000  0.72925000  0.62950000  1
  H  H16  1  0.92042000  0.20372000  0.97843000  1
  H  H17  1  0.15284000  0.21105000  0.98504000  1
  H  H18  1  0.07958000  0.79628000  0.02157000  1
  H  H19  1  0.84715000  0.78896000  0.01495000  1
  H  H20  1  0.41882000  0.29624000  0.52182000  1
  H  H21  1  0.65120000  0.28908000  0.51472000  1
  H  H22  1  0.58122000  0.70377000  0.47817000  1
  H  H23  1  0.34885000  0.71091000  0.48529000  1
  C  C24  1  0.52295000  0.14364000  0.85333000  1
  C  C25  1  0.47705000  0.85636000  0.14667000  1
  C  C26  1  0.02295000  0.35636000  0.64667000  1
  C  C27  1  0.97705000  0.64364000  0.35333000  1
  C  C28  1  0.52299000  0.13424000  0.63581000  1
  C  C29  1  0.47701000  0.86576000  0.36419000  1
  C  C30  1  0.02298000  0.36576000  0.86419000  1
  C  C31  1  0.97702000  0.63424000  0.13581000  1
  C  C32  1  0.99476000  0.53014000  0.46884000  1
  C  C33  1  0.00524000  0.46986000  0.53116000  1
  C  C34  1  0.49476000  0.96986000  0.03116000  1
  C  C35  1  0.50524000  0.03014000  0.96884000  1
  C  C36  1  0.01534000  0.31812000  0.03460000  1
  C  C37  1  0.98465000  0.68188000  0.96540000  1
  C  C38  1  0.51358000  0.18191000  0.46543000  1
  C  C39  1  0.48644000  0.81808000  0.53457000  1
  C  C40  1  0.00757000  0.29754000  0.11530000  1
  C  C41  1  0.99243000  0.70246000  0.88470000  1
  C  C42  1  0.50471000  0.20252000  0.38476000  1
  C  C43  1  0.49532000  0.79748000  0.61524000  1
  C  C44  1  0.99285000  0.36340000  0.17780000  1
  C  C45  1  0.00715000  0.63660000  0.82220000  1
  C  C46  1  0.48978000  0.13666000  0.32226000  1
  C  C47  1  0.51024000  0.86334000  0.67774000  1
  C  C48  1  0.98597000  0.45123000  0.16114000  1
  C  C49  1  0.01403000  0.54877000  0.83886000  1
  C  C50  1  0.48384000  0.04881000  0.33891000  1
  C  C51  1  0.51617000  0.95119000  0.66109000  1
  C  C52  1  0.99301000  0.47584000  0.08066000  1
  C  C53  1  0.00698000  0.52416000  0.91934000  1
  C  C54  1  0.49197000  0.02417000  0.41936000  1
  C  C55  1  0.50804000  0.97582000  0.58064000  1
  C  C56  1  0.00727000  0.40843000  0.01539000  1
  C  C57  1  0.99273000  0.59157000  0.98461000  1
  C  C58  1  0.50633000  0.09159000  0.48463000  1
  C  C59  1  0.49368000  0.90841000  0.51537000  1
  C  C60  1  0.98643000  0.56654000  0.06569000  1
  C  C61  1  0.01357000  0.43346000  0.93431000  1
  C  C62  1  0.48638000  0.93346000  0.43432000  1
  C  C63  1  0.51362000  0.06654000  0.56568000  1
  C  C64  1  0.98618000  0.58152000  0.41604000  1
  C  C65  1  0.01382000  0.41848000  0.58396000  1
  C  C66  1  0.48618000  0.91849000  0.08396000  1
  C  C67  1  0.51382000  0.08151000  0.91604000  1
  N  N68  1  0.03283000  0.24603000  0.97359000  1
  N  N69  1  0.96717000  0.75397000  0.02641000  1
  N  N70  1  0.53146000  0.25400000  0.52641000  1
  N  N71  1  0.46857000  0.74599000  0.47359000  1
  O  O72  1  0.36176000  0.16597000  0.66346000  1
  O  O73  1  0.63824000  0.83403000  0.33654000  1
  O  O74  1  0.86176000  0.33403000  0.83654000  1
  O  O75  1  0.13824000  0.66597000  0.16346000  1
  O  O76  1  0.68987000  0.16373000  0.82710000  1
  O  O77  1  0.31013000  0.83627000  0.17290000  1
  O  O78  1  0.18987000  0.33627000  0.67290000  1
  O  O79  1  0.81013000  0.66373000  0.32710000  1
  O  O80  1  0.69137000  0.15550000  0.66349000  1
  O  O81  1  0.30863000  0.84450000  0.33651000  1
  O  O82  1  0.19137000  0.34450000  0.83651000  1
  O  O83  1  0.80863000  0.65550000  0.16349000  1
  O  O84  1  0.86332000  0.32574000  0.67177000  1
  O  O85  1  0.13668000  0.67426000  0.32823000  1
  O  O86  1  0.36332000  0.17426000  0.82823000  1
  O  O87  1  0.63668000  0.82574000  0.17177000  1
  O  O88  1  0.52880000  0.30586000  0.75291000  1
  O  O89  1  0.47120000  0.69414000  0.24709000  1
  O  O90  1  0.02880000  0.19414000  0.74709000  1
  O  O91  1  0.97120000  0.80586000  0.25291000  1
