# generated using pymatgen
data_Cr3H14C27N2O19
_symmetry_space_group_name_H-M   'P 1'
_cell_length_a   10.87162000
_cell_length_b   10.94519060
_cell_length_c   18.71933000
_cell_angle_alpha   89.88614155
_cell_angle_beta   89.75351000
_cell_angle_gamma   61.05834984
_symmetry_Int_Tables_number   1
_chemical_formula_structural   Cr3H14C27N2O19
_chemical_formula_sum   'Cr6 H28 C54 N4 O38'
_cell_volume   1949.25204475
_cell_formula_units_Z   2
loop_
 _symmetry_equiv_pos_site_id
 _symmetry_equiv_pos_as_xyz
  1  'x, y, z'
loop_
 _atom_site_type_symbol
 _atom_site_label
 _atom_site_symmetry_multiplicity
 _atom_site_fract_x
 _atom_site_fract_y
 _atom_site_fract_z
 _atom_site_occupancy
  Cr  Cr0  1  0.79083000  0.60707000  0.50223000  1
  Cr  Cr1  1  0.10684000  0.60176000  0.50126000  1
  Cr  Cr2  1  0.10227000  0.29120000  0.49646000  1
  Cr  Cr3  1  0.87616000  0.06238000  0.00764000  1
  Cr  Cr4  1  0.56260000  0.37485000  0.99452000  1
  Cr  Cr5  1  0.56307000  0.06201000  0.00119000  1
  H  H6  1  0.52032000  0.41113000  0.79075000  1
  H  H7  1  0.34072000  0.50592000  0.81068000  1
  H  H8  1  0.54965000  0.15561000  0.64014000  1
  H  H9  1  0.26042000  0.21013000  0.81959000  1
  H  H10  1  0.19270000  0.39423000  0.83167000  1
  H  H11  1  0.12028000  0.42207000  0.71530000  1
  H  H12  1  0.20368000  0.23857000  0.70577000  1
  H  H13  1  0.52753000  0.06157000  0.78054000  1
  H  H14  1  0.43643000  0.09404000  0.67040000  1
  H  H15  1  0.03850000  0.16118000  0.68333000  1
  H  H16  1  0.01440000  0.11822000  0.81015000  1
  H  H17  1  0.72417000  0.58827000  0.70706000  1
  H  H18  1  0.65852000  0.80860000  0.69162000  1
  H  H19  1  0.65323000  0.82886000  0.82161000  1
  H  H20  1  0.01163000  0.89313000  0.81475000  1
  H  H21  1  0.41681000  0.11024000  0.33401000  1
  H  H22  1  0.38333000  0.49769000  0.18401000  1
  H  H23  1  0.31335000  0.53736000  0.30961000  1
  H  H24  1  0.60991000  0.51666000  0.31831000  1
  H  H25  1  0.59708000  0.51852000  0.19123000  1
  H  H26  1  0.04374000  0.19162000  0.30922000  1
  H  H27  1  0.04917000  0.80550000  0.17863000  1
  H  H28  1  0.67286000  0.76735000  0.17938000  1
  H  H29  1  0.71272000  0.70334000  0.30683000  1
  H  H30  1  0.48161000  0.99784000  0.14695000  1
  H  H31  1  0.08347000  0.19354000  0.11389000  1
  H  H32  1  0.57970000  0.45489000  0.67982000  1
  H  H33  1  0.71729000  0.13014000  0.81531000  1
  C  C34  1  0.87911000  0.77109000  0.60746000  1
  C  C35  1  0.28090000  0.34494000  0.59935000  1
  C  C36  1  0.88339000  0.40491000  0.61009000  1
  C  C37  1  0.90817000  0.71392000  0.39234000  1
  C  C38  1  0.27273000  0.35549000  0.39453000  1
  C  C39  1  0.84655000  0.38265000  0.39518000  1
  C  C40  1  0.41826000  0.41507000  0.77897000  1
  C  C41  1  0.38324000  0.43615000  0.69736000  1
  C  C42  1  0.52280000  0.15757000  0.75893000  1
  C  C43  1  0.26719000  0.30249000  0.79942000  1
  C  C44  1  0.41819000  0.28034000  0.80658000  1
  C  C45  1  0.33972000  0.32300000  0.67252000  1
  C  C46  1  0.46788000  0.17521000  0.68098000  1
  C  C47  1  0.22263000  0.32555000  0.72157000  1
  C  C48  1  0.96512000  0.24581000  0.71635000  1
  C  C49  1  0.95482000  0.22278000  0.78892000  1
  C  C50  1  0.85881000  0.33235000  0.83185000  1
  C  C51  1  0.78446000  0.46867000  0.80264000  1
  C  C52  1  0.79128000  0.48757000  0.72997000  1
  C  C53  1  0.87883000  0.37716000  0.68616000  1
  C  C54  1  0.73954000  0.82148000  0.71829000  1
  C  C55  1  0.74012000  0.82633000  0.79256000  1
  C  C56  1  0.84242000  0.84450000  0.82846000  1
  C  C57  1  0.93885000  0.86730000  0.78834000  1
  C  C58  1  0.93173000  0.87425000  0.71396000  1
  C  C59  1  0.84185000  0.83449000  0.67869000  1
  C  C60  1  0.40827000  0.19415000  0.29992000  1
  C  C61  1  0.43407000  0.17059000  0.22719000  1
  C  C62  1  0.42537000  0.28223000  0.18333000  1
  C  C63  1  0.39003000  0.41148000  0.21536000  1
  C  C64  1  0.35141000  0.43468000  0.28717000  1
  C  C65  1  0.35313000  0.32755000  0.32830000  1
  C  C66  1  0.70176000  0.44272000  0.28867000  1
  C  C67  1  0.69611000  0.44618000  0.21560000  1
  C  C68  1  0.81236000  0.35201000  0.17509000  1
  C  C69  1  0.94009000  0.25986000  0.20887000  1
  C  C70  1  0.94489000  0.25875000  0.28296000  1
  C  C71  1  0.82699000  0.35195000  0.32271000  1
  C  C72  1  0.98089000  0.77905000  0.27884000  1
  C  C73  1  0.97172000  0.78705000  0.20610000  1
  C  C74  1  0.84798000  0.80765000  0.17233000  1
  C  C75  1  0.75965000  0.76778000  0.20711000  1
  C  C76  1  0.78179000  0.73347000  0.27943000  1
  C  C77  1  0.88675000  0.74765000  0.31675000  1
  C  C78  1  0.80700000  0.30210000  0.89838000  1
  C  C79  1  0.46151000  0.24896000  0.88269000  1
  C  C80  1  0.82295000  0.88617000  0.90378000  1
  C  C81  1  0.78304000  0.32611000  0.10316000  1
  C  C82  1  0.45203000  0.26558000  0.10566000  1
  C  C83  1  0.80852000  0.89438000  0.10827000  1
  C  C84  1  0.45680000  0.03198000  0.20118000  1
  C  C85  1  0.06932000  0.16717000  0.16811000  1
  C  C86  1  0.51012000  0.42254000  0.65552000  1
  C  C87  1  0.66707000  0.14695000  0.76370000  1
  N  N88  1  0.69116000  0.58666000  0.84497000  1
  N  N89  1  0.01625000  0.92108000  0.67551000  1
  N  N90  1  0.06837000  0.82776000  0.31224000  1
  N  N91  1  0.26761000  0.57833000  0.68768000  1
  O  O92  1  0.76300000  0.49257000  0.58142000  1
  O  O93  1  0.80758000  0.71981000  0.57891000  1
  O  O94  1  0.00005000  0.73969000  0.58458000  1
  O  O95  1  0.22740000  0.46775000  0.57383000  1
  O  O96  1  0.24836000  0.25507000  0.57638000  1
  O  O97  1  0.97564000  0.30075000  0.57195000  1
  O  O98  1  0.75542000  0.50098000  0.41985000  1
  O  O99  1  0.80056000  0.72760000  0.42914000  1
  O  O100  1  0.99248000  0.74809000  0.42302000  1
  O  O101  1  0.22038000  0.47554000  0.42406000  1
  O  O102  1  0.24079000  0.26347000  0.41481000  1
  O  O103  1  0.96862000  0.30854000  0.42218000  1
  O  O104  1  0.99998000  0.50001000  0.49998000  1
  O  O105  1  0.91510000  0.91051000  0.93061000  1
  O  O106  1  0.87291000  0.18163000  0.92988000  1
  O  O107  1  0.68318000  0.39413000  0.91553000  1
  O  O108  1  0.45314000  0.35356000  0.91757000  1
  O  O109  1  0.43049000  0.16280000  0.91525000  1
  O  O110  1  0.70070000  0.93467000  0.93159000  1
  O  O111  1  0.89709000  0.93170000  0.09186000  1
  O  O112  1  0.85621000  0.20127000  0.07937000  1
  O  O113  1  0.66516000  0.41532000  0.07679000  1
  O  O114  1  0.43643000  0.37321000  0.06705000  1
  O  O115  1  0.41247000  0.18399000  0.07650000  1
  O  O116  1  0.68399000  0.95432000  0.08107000  1
  O  O117  1  0.66728000  0.16641000  0.00112000  1
  O  O118  1  0.73337000  0.61200000  0.90539000  1
  O  O119  1  0.56030000  0.66174000  0.82614000  1
  O  O120  1  0.97142000  0.98922000  0.61574000  1
  O  O121  1  0.12823000  0.91319000  0.70484000  1
  O  O122  1  0.44461000  0.95075000  0.24174000  1
  O  O123  1  0.16053000  0.05934000  0.19445000  1
  O  O124  1  0.19365000  0.78882000  0.28702000  1
  O  O125  1  0.00852000  0.94144000  0.35031000  1
  O  O126  1  0.27765000  0.66469000  0.64309000  1
  O  O127  1  0.15327000  0.61931000  0.72457000  1
  O  O128  1  0.53005000  0.38520000  0.59312000  1
  O  O129  1  0.72555000  0.16390000  0.71188000  1
