# generated using pymatgen
data_CaCdH6(C2O)8
_symmetry_space_group_name_H-M   'P 1'
_cell_length_a   9.84317808
_cell_length_b   14.25450359
_cell_length_c   20.96113815
_cell_angle_alpha   89.99941125
_cell_angle_beta   77.71853563
_cell_angle_gamma   89.99913849
_symmetry_Int_Tables_number   1
_chemical_formula_structural   CaCdH6(C2O)8
_chemical_formula_sum   'Ca4 Cd4 H24 C64 O32'
_cell_volume   2873.74171244
_cell_formula_units_Z   4
loop_
 _symmetry_equiv_pos_site_id
 _symmetry_equiv_pos_as_xyz
  1  'x, y, z'
loop_
 _atom_site_type_symbol
 _atom_site_label
 _atom_site_symmetry_multiplicity
 _atom_site_fract_x
 _atom_site_fract_y
 _atom_site_fract_z
 _atom_site_occupancy
  Ca  Ca1  1  0.77592804  0.72749212  0.65734200  1.0
  Ca  Ca2  1  0.22406317  0.27251721  0.34265453  1.0
  Ca  Ca3  1  0.72405171  0.22748464  0.84265394  1.0
  Ca  Ca4  1  0.27594122  0.77250888  0.15734574  1.0
  Cd  Cd1  1  0.58907948  0.55079040  0.76117712  1.0
  Cd  Cd2  1  0.08908828  0.94920495  0.26117436  1.0
  Cd  Cd3  1  0.41092768  0.44921054  0.23881851  1.0
  Cd  Cd4  1  0.91092209  0.05079655  0.73882692  1.0
  H  H1  1  0.22183735  0.79460243  0.72807985  1.0
  H  H2  1  0.02877582  0.79274576  0.56184228  1.0
  H  H3  1  0.52878968  0.70725284  0.06184579  1.0
  H  H4  1  0.97121847  0.20725053  0.43815762  1.0
  H  H5  1  0.70872620  0.97523473  0.00256421  1.0
  H  H6  1  0.10356490  0.12806737  0.94154123  1.0
  H  H7  1  0.80991654  0.18153002  0.54559955  1.0
  H  H8  1  0.69419001  0.89084777  0.80694128  1.0
  H  H9  1  0.30990276  0.31847149  0.04560125  1.0
  H  H10  1  0.69009471  0.68152506  0.95439883  1.0
  H  H11  1  0.27812083  0.29460729  0.77192615  1.0
  H  H12  1  0.19420157  0.60915362  0.30693948  1.0
  H  H13  1  0.19008940  0.81846960  0.45440019  1.0
  H  H14  1  0.29127661  0.02475840  0.99743719  1.0
  H  H15  1  0.30580920  0.10914720  0.19305859  1.0
  H  H16  1  0.60356817  0.37193590  0.44153362  1.0
  H  H17  1  0.80580450  0.39084826  0.69306051  1.0
  H  H18  1  0.72187426  0.70539635  0.22807495  1.0
  H  H19  1  0.89642878  0.87194293  0.05846462  1.0
  H  H20  1  0.79126651  0.47524041  0.49743718  1.0
  H  H21  1  0.20874044  0.52475687  0.50256143  1.0
  H  H22  1  0.39642743  0.62806202  0.55846905  1.0
  H  H23  1  0.47121446  0.29275004  0.93815182  1.0
  H  H24  1  0.77815078  0.20539544  0.27192184  1.0
  C  C1  1  0.68616428  0.32624843  0.41570329  1.0
  C  C2  1  0.70712161  0.91947785  0.96715493  1.0
  C  C3  1  0.70479530  0.82510662  0.98603768  1.0
  C  C4  1  0.19457632  0.45659110  0.38307769  1.0
  C  C5  1  0.20818542  0.70317164  0.55358838  1.0
  C  C6  1  0.80781851  0.27879352  0.62425726  1.0
  C  C7  1  0.81888102  0.79377996  0.14688835  1.0
  C  C8  1  0.18615697  0.17375394  0.91570525  1.0
  C  C9  1  0.88816555  0.20195565  0.35081836  1.0
  C  C10  1  0.82233935  0.20506260  0.67294788  1.0
  C  C11  1  0.30781599  0.22120562  0.12425956  1.0
  C  C12  1  0.67766057  0.70506930  0.82704270  1.0
  C  C13  1  0.70242095  0.94346838  0.90280707  1.0
  C  C14  1  0.11183087  0.79804170  0.64918341  1.0
  C  C15  1  0.17766732  0.79493584  0.32705110  1.0
  C  C16  1  0.89216516  0.23410189  0.41346131  1.0
  C  C17  1  0.44103348  0.67862414  0.67524024  1.0
  C  C18  1  0.69456822  0.04340938  0.88308001  1.0
  C  C19  1  0.21771458  0.76792038  0.67978115  1.0
  C  C20  1  0.30548714  0.24477644  0.05979575  1.0
  C  C21  1  0.19808719  0.62703651  0.35695884  1.0
  C  C22  1  0.00574374  0.86868537  0.68038912  1.0
  C  C23  1  0.70819863  0.79682431  0.05358602  1.0
  C  C24  1  0.20242945  0.55652847  0.40280687  1.0
  C  C25  1  0.19218878  0.72120790  0.37574234  1.0
  C  C26  1  0.05894651  0.17861656  0.82476443  1.0
  C  C27  1  0.71774010  0.73207332  0.17977794  1.0
  C  C28  1  0.20480026  0.67488928  0.48603747  1.0
  C  C29  1  0.60784520  0.73410333  0.08654050  1.0
  C  C30  1  0.55895403  0.32137320  0.32476449  1.0
  C  C31  1  0.80192045  0.37296824  0.64304020  1.0
  C  C32  1  0.69218157  0.77879179  0.87574079  1.0
  C  C33  1  0.69807356  0.87296470  0.85695962  1.0
  C  C34  1  0.39215665  0.26589950  0.91345824  1.0
  C  C35  1  0.78227735  0.23207492  0.32022073  1.0
  C  C36  1  0.94104651  0.82138887  0.17523899  1.0
  C  C37  1  0.29180769  0.20317673  0.94641330  1.0
  C  C38  1  0.99426153  0.13131953  0.31961130  1.0
  C  C39  1  0.32233943  0.29492942  0.17295471  1.0
  C  C40  1  0.68112732  0.29377468  0.35311234  1.0
  C  C41  1  0.28225391  0.26793059  0.82022332  1.0
  C  C42  1  0.80548920  0.25522305  0.55979408  1.0
  C  C43  1  0.20713132  0.58051718  0.46715361  1.0
  C  C44  1  0.31886597  0.70622039  0.64688979  1.0
  C  C45  1  0.29521062  0.17488998  0.01396135  1.0
  C  C46  1  0.29288332  0.08051750  0.03284340  1.0
  C  C47  1  0.30192851  0.12703032  0.14303964  1.0
  C  C48  1  0.49423582  0.36868564  0.81960549  1.0
  C  C49  1  0.18111258  0.20622623  0.85311487  1.0
  C  C50  1  0.79520496  0.32511125  0.51396260  1.0
  C  C51  1  0.19451608  0.74477819  0.44020632  1.0
  C  C52  1  0.79181041  0.29682470  0.44641402  1.0
  C  C53  1  0.81383843  0.82625122  0.08429713  1.0
  C  C54  1  0.61185382  0.70195538  0.14918303  1.0
  C  C55  1  0.38814369  0.29804997  0.85081717  1.0
  C  C56  1  0.10782585  0.76589375  0.58654093  1.0
  C  C57  1  0.69451393  0.75521900  0.94020475  1.0
  C  C58  1  0.80542248  0.54341353  0.61691709  1.0
  C  C59  1  0.30543456  0.95658638  0.11692009  1.0
  C  C60  1  0.29758492  0.05652829  0.09719184  1.0
  C  C61  1  0.79287275  0.41948338  0.53284559  1.0
  C  C62  1  0.50576580  0.63131382  0.18039232  1.0
  C  C63  1  0.79757794  0.44347357  0.59719206  1.0
  C  C64  1  0.31382827  0.67374857  0.58429897  1.0
  O  O1  1  0.04231975  0.92589830  0.72040911  1.0
  O  O2  1  0.33989842  0.89242408  0.07517337  1.0
  O  O3  1  0.41840682  0.62561508  0.72502112  1.0
  O  O4  1  0.20320283  0.77275382  0.26682407  1.0
  O  O5  1  0.27964885  0.93664066  0.17925562  1.0
  O  O6  1  0.88732045  0.86941605  0.66478875  1.0
  O  O7  1  0.91842104  0.87440345  0.22501512  1.0
  O  O8  1  0.66009747  0.10756848  0.92482822  1.0
  O  O9  1  0.05845737  0.79006913  0.14558596  1.0
  O  O10  1  0.79680297  0.22724310  0.73317639  1.0
  O  O11  1  0.16009975  0.39243182  0.42482567  1.0
  O  O12  1  0.08158414  0.12560585  0.77498496  1.0
  O  O13  1  0.58158375  0.37438448  0.27498396  1.0
  O  O14  1  0.45767586  0.42589887  0.77958118  1.0
  O  O15  1  0.44154847  0.29005810  0.35442191  1.0
  O  O16  1  0.63636490  0.62348500  0.84806536  1.0
  O  O17  1  0.94153637  0.20993484  0.85441620  1.0
  O  O18  1  0.36364149  0.37651080  0.15193080  1.0
  O  O19  1  0.95769747  0.07410542  0.27958774  1.0
  O  O20  1  0.29679808  0.27274020  0.23317973  1.0
  O  O21  1  0.54233626  0.57409920  0.22041230  1.0
  O  O22  1  0.13635286  0.87651354  0.34807560  1.0
  O  O23  1  0.61266283  0.36940565  0.83520433  1.0
  O  O24  1  0.72035882  0.06335469  0.82074395  1.0
  O  O25  1  0.83988757  0.60757342  0.57516856  1.0
  O  O26  1  0.11268005  0.13059362  0.33521482  1.0
  O  O27  1  0.38733654  0.63058727  0.16479440  1.0
  O  O28  1  0.22036838  0.43664533  0.32074045  1.0
  O  O29  1  0.86364750  0.12348551  0.65192376  1.0
  O  O30  1  0.70319535  0.72725980  0.76681838  1.0
  O  O31  1  0.77963711  0.56336366  0.67925393  1.0
  O  O32  1  0.55843972  0.70994028  0.64558358  1.0
