# generated using pymatgen
data_H24C37
_symmetry_space_group_name_H-M   'P 1'
_cell_length_a   22.41606278
_cell_length_b   22.41606278
_cell_length_c   24.44943586
_cell_angle_alpha   117.28499159
_cell_angle_beta   117.28499159
_cell_angle_gamma   90.00000000
_symmetry_Int_Tables_number   1
_chemical_formula_structural   H24C37
_chemical_formula_sum   'H144 C222'
_cell_volume   9353.88890725
_cell_formula_units_Z   6
loop_
 _symmetry_equiv_pos_site_id
 _symmetry_equiv_pos_as_xyz
  1  'x, y, z'
loop_
 _atom_site_type_symbol
 _atom_site_label
 _atom_site_symmetry_multiplicity
 _atom_site_fract_x
 _atom_site_fract_y
 _atom_site_fract_z
 _atom_site_occupancy
  C  5  1  0.95232650  0.96594600  0.00879300  1
  C  6  1  0.96306275  0.00721925  0.93700250  1
  C  8  1  0.52638100  0.53995350  0.48346400  1
  C  9  1  0.48507425  0.52922225  0.55523250  1
  C  21  1  0.02511650  0.98913000  0.05527250  1
  C  23  1  0.42593975  0.97008425  0.43696400  1
  C  25  1  0.54702925  0.95065825  0.90093800  1
  C  26  1  0.56015950  0.88437600  0.87624750  1
  C  27  1  0.58411650  0.86030750  0.82780000  1
  C  28  1  0.59303175  0.89953775  0.79876350  1
  C  29  1  0.58470325  0.96802325  0.82823750  1
  C  30  1  0.56122000  0.99264750  0.87709700  1
  C  31  1  0.61909400  0.87319450  0.74610500  1
  C  32  1  0.69780975  0.89951225  0.79878750  1
  C  33  1  0.73575700  0.96779000  0.82784750  1
  C  34  1  0.80815775  0.99217775  0.87631550  1
  C  35  1  0.84597850  0.95058650  0.90100900  1
  C  36  1  0.80794450  0.88475400  0.87716000  1
  C  37  1  0.73560300  0.86051000  0.82827800  1
  C  38  1  0.59278925  0.79447675  0.69343150  1
  C  39  1  0.59274425  0.89924325  0.69343600  1
  C  40  1  0.63197150  0.90811400  0.66437600  1
  C  41  1  0.60791725  0.93207225  0.61592850  1
  C  42  1  0.54164300  0.94522150  0.59124050  1
  C  43  1  0.49965250  0.93105600  0.61509000  1
  C  44  1  0.52426900  0.90759100  0.66396600  1
  C  45  1  0.52450000  0.75653400  0.66434750  1
  C  46  1  0.50012075  0.68413125  0.61589950  1
  C  47  1  0.54172475  0.64630275  0.59123550  1
  C  48  1  0.60757450  0.68432950  0.61511300  1
  C  49  1  0.63181800  0.75666950  0.66398800  1
  C  181  1  0.14220000  0.04577850  0.09127200  1
  C  182  1  0.18022050  0.11161400  0.11510850  1
  C  183  1  0.25256475  0.13585775  0.16395750  1
  C  184  1  0.29037275  0.09685425  0.19343900  1
  C  185  1  0.25243725  0.02859025  0.16442400  1
  C  186  1  0.18003525  0.00419475  0.11596500  1
  C  187  1  0.36909500  0.12319350  0.24610750  1
  C  188  1  0.39512175  0.09684075  0.19341900  1
  C  189  1  0.40345750  0.02835950  0.16394450  1
  C  190  1  0.42692650  0.00374300  0.11507400  1
  C  191  1  0.44108700  0.04573050  0.09121700  1
  C  192  1  0.42795175  0.11200975  0.11591450  1
  C  193  1  0.40402250  0.13608100  0.16438500  1
  C  194  1  0.39541400  0.20191450  0.29877900  1
  C  195  1  0.39547350  0.09716550  0.29879600  1
  C  196  1  0.46393150  0.08876450  0.32820650  1
  C  197  1  0.48855575  0.06529025  0.37707400  1
  C  198  1  0.44659000  0.05117000  0.40097100  1
  C  199  1  0.38032850  0.06435100  0.37632050  1
  C  200  1  0.35626600  0.08831500  0.32787850  1
  C  201  1  0.35639225  0.23973525  0.32821900  1
  C  202  1  0.38064225  0.31207975  0.37707550  1
  C  203  1  0.44650100  0.35008800  0.40095750  1
  C  204  1  0.48809700  0.31224500  0.37629000  1
  C  205  1  0.46370075  0.23984275  0.32783800  1
  C  345  1  0.06835950  0.02177750  0.04353750  1
  C  346  1  0.03585275  0.03038275  0.98347050  1
  C  347  1  0.91981850  0.97457300  0.94874000  1
  C  351  1  0.54846850  0.04308050  0.00872650  1
  C  352  1  0.52216475  0.06637575  0.05520950  1
  C  353  1  0.46718500  0.02199300  0.04347600  1
  C  354  1  0.43963625  0.95331425  0.98342000  1
  C  355  1  0.46593875  0.93001725  0.93693450  1
  C  356  1  0.52092000  0.97440200  0.94866950  1
  C  362  1  0.50318825  0.46716375  0.43697850  1
  C  363  1  0.47050925  0.42392425  0.44869600  1
  C  364  1  0.46187225  0.45643525  0.50874350  1
  C  366  1  0.51773800  0.57246600  0.54350750  1
  C  371  1  0.44923050  0.94378300  0.48345100  1
  C  373  1  0.47032850  0.02505900  0.44869850  1
  C  374  1  0.53901150  0.05259150  0.50874300  1
  C  375  1  0.56230325  0.02628625  0.55522500  1
  C  376  1  0.51791150  0.97132200  0.54350200  1
  C  493  1  0.68373250  0.69735200  0.47160500  1
  C  494  1  0.69446875  0.73862525  0.39981450  1
  C  496  1  0.25778695  0.27135945  0.94627590  1
  C  497  1  0.21648025  0.26062825  0.01804450  1
  C  509  1  0.75652250  0.72053600  0.51808450  1
  C  511  1  0.15734570  0.70149020  0.89977590  1
  C  513  1  0.27843525  0.68206425  0.36375000  1
  C  514  1  0.29156550  0.61578200  0.33905950  1
  C  515  1  0.31552250  0.59171350  0.29061200  1
  C  516  1  0.32443775  0.63094375  0.26157550  1
  C  517  1  0.31610925  0.69942925  0.29104950  1
  C  518  1  0.29262600  0.72405350  0.33990900  1
  C  519  1  0.35050000  0.60460050  0.20891700  1
  C  520  1  0.42921575  0.63091825  0.26159950  1
  C  521  1  0.46716300  0.69919600  0.29065950  1
  C  522  1  0.53956375  0.72358375  0.33912750  1
  C  523  1  0.57738450  0.68199250  0.36382100  1
  C  524  1  0.53935050  0.61616000  0.33997200  1
  C  525  1  0.46700900  0.59191600  0.29109000  1
  C  526  1  0.32419525  0.52588275  0.15624350  1
  C  527  1  0.32415025  0.63064925  0.15624800  1
  C  528  1  0.36337750  0.63952000  0.12718800  1
  C  529  1  0.33932325  0.66347825  0.07874050  1
  C  530  1  0.27304900  0.67662750  0.05405250  1
  C  531  1  0.23105850  0.66246200  0.07790200  1
  C  532  1  0.25567500  0.63899700  0.12677800  1
  C  533  1  0.25590600  0.48794000  0.12715950  1
  C  534  1  0.23152675  0.41553725  0.07871150  1
  C  535  1  0.27313075  0.37770875  0.05404750  1
  C  536  1  0.33898050  0.41573550  0.07792500  1
  C  537  1  0.36322400  0.48807550  0.12680000  1
  C  669  1  0.87360600  0.77718450  0.55408400  1
  C  670  1  0.91162650  0.84302000  0.57792050  1
  C  671  1  0.98397075  0.86726375  0.62676950  1
  C  672  1  0.02177875  0.82826025  0.65625100  1
  C  673  1  0.98384325  0.75999625  0.62723600  1
  C  674  1  0.91144125  0.73560075  0.57877700  1
  C  675  1  0.10050100  0.85459950  0.70891950  1
  C  676  1  0.12652775  0.82824675  0.65623100  1
  C  677  1  0.13486350  0.75976550  0.62675650  1
  C  678  1  0.15833250  0.73514900  0.57788600  1
  C  679  1  0.17249300  0.77713650  0.55402900  1
  C  680  1  0.15935775  0.84341575  0.57872650  1
  C  681  1  0.13542850  0.86748700  0.62719700  1
  C  682  1  0.12682000  0.93332050  0.76159100  1
  C  683  1  0.12687950  0.82857150  0.76160800  1
  C  684  1  0.19533750  0.82017050  0.79101850  1
  C  685  1  0.21996170  0.79669620  0.83988590  1
  C  686  1  0.17799595  0.78257595  0.86378290  1
  C  687  1  0.11173445  0.79575695  0.83913240  1
  C  688  1  0.08767200  0.81972100  0.79069050  1
  C  689  1  0.08779825  0.97114125  0.79103100  1
  C  690  1  0.11204820  0.04348570  0.83988740  1
  C  691  1  0.17790695  0.08149395  0.86376940  1
  C  692  1  0.21950295  0.04365095  0.83910190  1
  C  693  1  0.19510675  0.97124875  0.79065000  1
  C  833  1  0.79976550  0.75318350  0.50634950  1
  C  834  1  0.76725875  0.76178875  0.44628250  1
  C  835  1  0.65122450  0.70597900  0.41155200  1
  C  839  1  0.27987450  0.77448650  0.47153850  1
  C  840  1  0.25357075  0.79778175  0.51802150  1
  C  841  1  0.19859100  0.75339900  0.50628800  1
  C  842  1  0.17104225  0.68472025  0.44623200  1
  C  843  1  0.19734475  0.66142325  0.39974650  1
  C  844  1  0.25232600  0.70580800  0.41148150  1
  C  850  1  0.23459420  0.19856970  0.89979040  1
  C  851  1  0.20191520  0.15533020  0.91150790  1
  C  852  1  0.19327820  0.18784120  0.97155540  1
  C  854  1  0.24914400  0.30387200  0.00631950  1
  C  859  1  0.18063645  0.67518895  0.94626290  1
  C  861  1  0.20173445  0.75646495  0.91151040  1
  C  862  1  0.27041745  0.78399745  0.97155490  1
  C  863  1  0.29370925  0.75769225  0.01803700  1
  C  864  1  0.24931750  0.70272800  0.00631400  1
  C  981  1  0.41513840  0.42875790  0.93441680  1
  C  982  1  0.42587465  0.47003115  0.86262630  1
  C  984  1  0.98919300  0.00276550  0.40908800  1
  C  985  1  0.94788625  0.99203425  0.48085650  1
  C  997  1  0.48792840  0.45194190  0.98089630  1
  C  999  1  0.88875175  0.43289625  0.36258800  1
  C  1001  1  0.00984115  0.41347015  0.82656180  1
  C  1002  1  0.02297140  0.34718790  0.80187130  1
  C  1003  1  0.04692850  0.32311950  0.75342400  1
  C  1004  1  0.05584375  0.36234975  0.72438750  1
  C  1005  1  0.04751525  0.43083525  0.75386150  1
  C  1006  1  0.02403190  0.45545940  0.80272080  1
  C  1007  1  0.08190600  0.33600650  0.67172900  1
  C  1008  1  0.16062175  0.36232425  0.72441150  1
  C  1009  1  0.19856900  0.43060200  0.75347150  1
  C  1010  1  0.27096965  0.45498965  0.80193930  1
  C  1011  1  0.30879040  0.41339840  0.82663280  1
  C  1012  1  0.27075640  0.34756590  0.80278380  1
  C  1013  1  0.19841500  0.32332200  0.75390200  1
  C  1014  1  0.05560125  0.25728875  0.61905550  1
  C  1015  1  0.05555625  0.36205525  0.61906000  1
  C  1016  1  0.09478350  0.37092600  0.59000000  1
  C  1017  1  0.07072925  0.39488425  0.54155250  1
  C  1018  1  0.00445500  0.40803350  0.51686450  1
  C  1019  1  0.96246450  0.39386800  0.54071400  1
  C  1020  1  0.98708100  0.37040300  0.58959000  1
  C  1021  1  0.98731200  0.21934600  0.58997150  1
  C  1022  1  0.96293275  0.14694325  0.54152350  1
  C  1023  1  0.00453675  0.10911475  0.51685950  1
  C  1024  1  0.07038650  0.14714150  0.54073700  1
  C  1025  1  0.09463000  0.21948150  0.58961200  1
  C  1157  1  0.60501200  0.50859050  0.01689600  1
  C  1158  1  0.64303250  0.57442600  0.04073250  1
  C  1159  1  0.71537675  0.59866975  0.08958150  1
  C  1160  1  0.75318475  0.55966625  0.11906300  1
  C  1161  1  0.71524925  0.49140225  0.09004800  1
  C  1162  1  0.64284725  0.46700675  0.04158900  1
  C  1163  1  0.83190700  0.58600550  0.17173150  1
  C  1164  1  0.85793375  0.55965275  0.11904300  1
  C  1165  1  0.86626950  0.49117150  0.08956850  1
  C  1166  1  0.88973850  0.46655500  0.04069800  1
  C  1167  1  0.90389900  0.50854250  0.01684100  1
  C  1168  1  0.89076375  0.57482175  0.04153850  1
  C  1169  1  0.86683450  0.59889300  0.09000900  1
  C  1170  1  0.85822600  0.66472650  0.22440300  1
  C  1171  1  0.85828550  0.55997750  0.22442000  1
  C  1172  1  0.92674350  0.55157650  0.25383050  1
  C  1173  1  0.95136775  0.52810225  0.30269800  1
  C  1174  1  0.90940200  0.51398200  0.32659500  1
  C  1175  1  0.84314050  0.52716300  0.30194450  1
  C  1176  1  0.81907800  0.55112700  0.25350250  1
  C  1177  1  0.81920425  0.70254725  0.25384300  1
  C  1178  1  0.84345425  0.77489175  0.30269950  1
  C  1179  1  0.90931300  0.81290000  0.32658150  1
  C  1180  1  0.95090900  0.77505700  0.30191400  1
  C  1181  1  0.92651275  0.70265475  0.25346200  1
  C  1321  1  0.53117140  0.48458940  0.96916130  1
  C  1322  1  0.49866465  0.49319465  0.90909430  1
  C  1323  1  0.38263040  0.43738490  0.87436380  1
  C  1327  1  0.01128040  0.50589240  0.93435030  1
  C  1328  1  0.98497665  0.52918765  0.98083330  1
  C  1329  1  0.92999690  0.48480490  0.96909980  1
  C  1330  1  0.90244815  0.41612615  0.90904380  1
  C  1331  1  0.92875065  0.39282915  0.86255830  1
  C  1332  1  0.98373190  0.43721390  0.87429330  1
  C  1338  1  0.96600025  0.92997575  0.36260250  1
  C  1339  1  0.93332125  0.88673625  0.37432000  1
  C  1340  1  0.92468425  0.91924725  0.43436750  1
  C  1342  1  0.98055000  0.03527800  0.46913150  1
  C  1347  1  0.91204250  0.40659500  0.40907500  1
  C  1349  1  0.93314050  0.48787100  0.37432250  1
  C  1350  1  0.00182350  0.51540350  0.43436700  1
  C  1351  1  0.02511525  0.48909825  0.48084900  1
  C  1352  1  0.98072350  0.43413400  0.46912600  1
  H  1  1  0.63942350  0.65947700  0.59833600  1
  H  2  1  0.83279125  0.85290675  0.89394500  1
  H  7  1  0.92311075  0.94386925  0.02024500  1
  H  10  1  0.54846675  0.56916775  0.47201700  1
  H  17  1  0.63905200  0.93865650  0.59783100  1
  H  18  1  0.83285400  0.04140750  0.89441800  1
  H  50  1  0.67969475  0.89815525  0.67920650  1
  H  51  1  0.45102425  0.93912925  0.59830300  1
  H  52  1  0.49145600  0.89775300  0.67893450  1
  H  53  1  0.49158700  0.78131800  0.67914800  1
  H  54  1  0.45087825  0.65943975  0.59777100  1
  H  55  1  0.67960375  0.78148625  0.67897200  1
  H  56  1  0.71078725  0.81272725  0.81329750  1
  H  57  1  0.71097975  0.00069225  0.81302400  1
  H  58  1  0.59456825  0.00083725  0.81328000  1
  H  59  1  0.59408050  0.81258700  0.81298400  1
  H  60  1  0.55356350  0.85324650  0.89434550  1
  H  61  1  0.55317175  0.04128475  0.89389500  1
  H  206  1  0.53717900  0.05720850  0.39385000  1
  H  207  1  0.49673050  0.09858850  0.31321700  1
  H  208  1  0.34921625  0.05779325  0.39445100  1
  H  209  1  0.30855425  0.09829975  0.31307750  1
  H  210  1  0.30860150  0.21493100  0.31323600  1
  H  211  1  0.34880500  0.33694400  0.39386650  1
  H  212  1  0.53733850  0.33692550  0.39440750  1
  H  213  1  0.49660675  0.21504575  0.31303550  1
  H  214  1  0.39405200  0.18379900  0.17920450  1
  H  215  1  0.43453725  0.14314325  0.09781350  1
  H  216  1  0.43497500  0.95510450  0.09826500  1
  H  217  1  0.39361100  0.99554650  0.17891050  1
  H  218  1  0.27722725  0.99569775  0.17925450  1
  H  219  1  0.27737050  0.18364050  0.17892800  1
  H  220  1  0.15536000  0.14344850  0.09831200  1
  H  221  1  0.15534625  0.95497175  0.09788900  1
  H  348  1  0.06506500  0.05247650  0.97202750  1
  H  349  1  0.04612400  0.98315150  0.09889350  1
  H  350  1  0.94205550  0.01319550  0.89338200  1
  H  357  1  0.39896075  0.91978925  0.97196300  1
  H  358  1  0.54477200  0.11597550  0.09882500  1
  H  359  1  0.58913575  0.07660875  0.02017800  1
  H  360  1  0.44332350  0.88042350  0.89331450  1
  H  367  1  0.43977400  0.42722200  0.52018150  1
  H  368  1  0.50917575  0.44615575  0.39336550  1
  H  370  1  0.47906450  0.55023150  0.59883250  1
  H  377  1  0.57254400  0.09325850  0.52019500  1
  H  378  1  0.37632825  0.94750375  0.39337100  1
  H  379  1  0.41568975  0.90313525  0.47201600  1
  H  380  1  0.61190200  0.04889350  0.59884200  1
  H  489  1  0.37082950  0.39088300  0.06114800  1
  H  490  1  0.56419725  0.58431275  0.35675700  1
  H  495  1  0.65451675  0.67527525  0.48305700  1
  H  498  1  0.27987270  0.30057370  0.93482890  1
  H  505  1  0.37045800  0.67006250  0.06064300  1
  H  506  1  0.56426000  0.77281350  0.35723000  1
  H  538  1  0.41110075  0.62956125  0.14201850  1
  H  539  1  0.18243025  0.67053525  0.06111500  1
  H  540  1  0.22286200  0.62915900  0.14174650  1
  H  541  1  0.22299300  0.51272400  0.14196000  1
  H  542  1  0.18228425  0.39084575  0.06058300  1
  H  543  1  0.41100975  0.51289225  0.14178400  1
  H  544  1  0.44219325  0.54413325  0.27610950  1
  H  545  1  0.44238575  0.73209825  0.27583600  1
  H  546  1  0.32597425  0.73224325  0.27609200  1
  H  547  1  0.32548650  0.54399300  0.27579600  1
  H  548  1  0.28496950  0.58465250  0.35715750  1
  H  549  1  0.28457775  0.77269075  0.35670700  1
  H  694  1  0.26858495  0.78861445  0.85666190  1
  H  695  1  0.22813650  0.82999450  0.77602900  1
  H  696  1  0.08062220  0.78919920  0.85726290  1
  H  697  1  0.03996025  0.82970575  0.77588950  1
  H  698  1  0.04000750  0.94633700  0.77604800  1
  H  699  1  0.08021095  0.06834995  0.85667840  1
  H  700  1  0.26874445  0.06833145  0.85721940  1
  H  701  1  0.22801275  0.94645175  0.77584750  1
  H  702  1  0.12545800  0.91520500  0.64201650  1
  H  703  1  0.16594325  0.87454925  0.56062550  1
  H  704  1  0.16638100  0.68651050  0.56107700  1
  H  705  1  0.12501700  0.72695250  0.64172250  1
  H  706  1  0.00863325  0.72710375  0.64206650  1
  H  707  1  0.00877650  0.91504650  0.64174000  1
  H  708  1  0.88676600  0.87485450  0.56112400  1
  H  709  1  0.88675225  0.68637775  0.56070100  1
  H  836  1  0.79647100  0.78388250  0.43483950  1
  H  837  1  0.77753000  0.71455750  0.56170550  1
  H  838  1  0.67346150  0.74460150  0.35619400  1
  H  845  1  0.13036675  0.65119525  0.43477500  1
  H  846  1  0.27617800  0.84738150  0.56163700  1
  H  847  1  0.32054175  0.80801475  0.48299000  1
  H  848  1  0.17472950  0.61182950  0.35612650  1
  H  855  1  0.17117995  0.15862795  0.98299340  1
  H  856  1  0.24058170  0.17756170  0.85617740  1
  H  858  1  0.21047050  0.28163750  0.06164450  1
  H  865  1  0.30394995  0.82466445  0.98300690  1
  H  866  1  0.10773420  0.67890970  0.85618290  1
  H  867  1  0.14709570  0.63454120  0.93482790  1
  H  868  1  0.34330800  0.78029950  0.06165400  1
  H  977  1  0.10223550  0.12228900  0.52396000  1
  H  978  1  0.29560315  0.31571865  0.81956880  1
  H  983  1  0.38592265  0.40668115  0.94586880  1
  H  986  1  0.01127875  0.03197975  0.39764100  1
  H  993  1  0.10186400  0.40146850  0.52345500  1
  H  994  1  0.29566590  0.50421940  0.82004180  1
  H  1026  1  0.14250675  0.36096725  0.60483050  1
  H  1027  1  0.91383625  0.40194125  0.52392700  1
  H  1028  1  0.95426800  0.36056500  0.60455850  1
  H  1029  1  0.95439900  0.24413000  0.60477200  1
  H  1030  1  0.91369025  0.12225175  0.52339500  1
  H  1031  1  0.14241575  0.24429825  0.60459600  1
  H  1032  1  0.17359925  0.27553925  0.73892150  1
  H  1033  1  0.17379175  0.46350425  0.73864800  1
  H  1034  1  0.05738025  0.46364925  0.73890400  1
  H  1035  1  0.05689250  0.27539900  0.73860800  1
  H  1036  1  0.01637540  0.31605840  0.81996930  1
  H  1037  1  0.01598365  0.50409665  0.81951880  1
  H  1182  1  0.99999100  0.52002050  0.31947400  1
  H  1183  1  0.95954250  0.56140050  0.23884100  1
  H  1184  1  0.81202825  0.52060525  0.32007500  1
  H  1185  1  0.77136625  0.56111175  0.23870150  1
  H  1186  1  0.77141350  0.67774300  0.23886000  1
  H  1187  1  0.81161700  0.79975600  0.31949050  1
  H  1188  1  0.00015050  0.79973750  0.32003150  1
  H  1189  1  0.95941875  0.67785775  0.23865950  1
  H  1190  1  0.85686400  0.64661100  0.10482850  1
  H  1191  1  0.89734925  0.60595525  0.02343750  1
  H  1192  1  0.89778700  0.41791650  0.02388900  1
  H  1193  1  0.85642300  0.45835850  0.10453450  1
  H  1194  1  0.74003925  0.45850975  0.10487850  1
  H  1195  1  0.74018250  0.64645250  0.10455200  1
  H  1196  1  0.61817200  0.60626050  0.02393600  1
  H  1197  1  0.61815825  0.41778375  0.02351300  1
  H  1324  1  0.52787690  0.51528840  0.89765130  1
  H  1325  1  0.50893600  0.44596350  0.02451750  1
  H  1326  1  0.40486740  0.47600740  0.81900580  1
  H  1333  1  0.86177265  0.38260115  0.89758680  1
  H  1334  1  0.00758400  0.57878750  0.02444900  1
  H  1335  1  0.05194765  0.53942065  0.94580180  1
  H  1336  1  0.90613540  0.34323540  0.81893830  1
  H  1343  1  0.90258600  0.89003400  0.44580550  1
  H  1344  1  0.97198775  0.90896775  0.31898950  1
  H  1346  1  0.94187650  0.01304350  0.52445650  1
  H  1353  1  0.03535600  0.55607050  0.44581900  1
  H  1354  1  0.83914025  0.41031575  0.31899500  1
  H  1355  1  0.87850175  0.36594725  0.39764000  1
  H  1356  1  0.07471400  0.51170550  0.52446600  1
