# generated using pymatgen
data_H17C28N3
_symmetry_space_group_name_H-M   'P 1'
_cell_length_a   9.95120000
_cell_length_b   70.37511830
_cell_length_c   70.37260000
_cell_angle_alpha   120.00644831
_cell_angle_beta   90.00000000
_cell_angle_gamma   90.00000000
_symmetry_Int_Tables_number   1
_chemical_formula_structural   H17C28N3
_chemical_formula_sum   'H102 C168 N18'
_cell_volume   42677.65990422
_cell_formula_units_Z   6
loop_
 _symmetry_equiv_pos_site_id
 _symmetry_equiv_pos_as_xyz
  1  'x, y, z'
loop_
 _atom_site_type_symbol
 _atom_site_label
 _atom_site_symmetry_multiplicity
 _atom_site_fract_x
 _atom_site_fract_y
 _atom_site_fract_z
 _atom_site_occupancy
  C  1  1  0.00021400  0.91834700  0.95806000  1
  C  2  1  0.00128400  0.04551100  0.08846400  1
  C  3  1  0.00120900  0.04871200  0.96130700  1
  C  4  1  0.91126800  0.06303700  0.10045500  1
  C  5  1  0.91324900  0.07451100  0.12357200  1
  C  6  1  0.00463500  0.06868700  0.13523400  1
  C  7  1  0.09545700  0.05133500  0.12312400  1
  C  8  1  0.09348900  0.03974100  0.09999800  1
  C  9  1  0.92759700  0.90634200  0.96581400  1
  C  10  1  0.92967700  0.88322700  0.95411900  1
  C  11  1  0.00373100  0.87158600  0.93438600  1
  C  12  1  0.07759000  0.88370600  0.92691100  1
  C  13  1  0.07529100  0.90683000  0.93848900  1
  C  14  1  0.91238300  0.04299600  0.94359900  1
  C  15  1  0.91442400  0.05463700  0.93212700  1
  C  16  1  0.00470500  0.07229600  0.93812800  1
  C  17  1  0.09428000  0.07773400  0.95567600  1
  C  18  1  0.09226300  0.06620000  0.96726400  1
  C  30  1  0.99948000  0.01633800  0.99151300  1
  C  31  1  0.99921900  0.99314100  0.97948700  1
  C  32  1  0.99909800  0.98093300  0.99046600  1
  C  33  1  0.99925800  0.99210600  0.01366300  1
  C  34  1  0.99951900  0.01529500  0.02587500  1
  C  35  1  0.99962100  0.02731800  0.01470400  1
  C  40  1  0.00046900  0.03772800  0.97179400  1
  C  41  1  0.99996700  0.02755400  0.98125200  1
  C  42  1  0.00054600  0.03502000  0.06699000  1
  C  43  1  0.99998700  0.02555900  0.04735500  1
  C  44  1  0.99920700  0.95945300  0.97924400  1
  C  45  1  0.99956000  0.93981900  0.96905700  1
  C  49  1  0.99077700  0.66033400  0.82857600  1
  C  50  1  0.99644500  0.52437800  0.82120100  1
  C  51  1  0.97428500  0.52268900  0.70242400  1
  C  52  1  0.00065700  0.50228700  0.80411900  1
  C  53  1  0.00145500  0.48518900  0.80898200  1
  C  54  1  0.99682200  0.48976400  0.83097400  1
  C  55  1  0.99555000  0.51188400  0.84799300  1
  C  56  1  0.99421200  0.52908800  0.84320300  1
  C  57  1  0.04099100  0.67220200  0.85021100  1
  C  58  1  0.04026800  0.69531400  0.86164100  1
  C  59  1  0.99006300  0.70710400  0.85170900  1
  C  60  1  0.93839900  0.69509500  0.83017600  1
  C  61  1  0.93928500  0.67196900  0.81863800  1
  C  62  1  0.05346300  0.52343800  0.68616300  1
  C  63  1  0.05173400  0.50578000  0.66440500  1
  C  64  1  0.97140200  0.48703400  0.65852100  1
  C  65  1  0.89149200  0.48654500  0.67483700  1
  C  66  1  0.89307100  0.50411200  0.69659200  1
  C  78  1  0.98805400  0.56257400  0.76359000  1
  C  79  1  0.98841000  0.58575300  0.77487000  1
  C  80  1  0.99096600  0.59777800  0.79808000  1
  C  81  1  0.99308100  0.58646300  0.80998000  1
  C  82  1  0.99266900  0.56328500  0.79879100  1
  C  83  1  0.99014500  0.55145900  0.77562700  1
  C  88  1  0.98024000  0.53832200  0.72289600  1
  C  89  1  0.98460100  0.55101300  0.74218600  1
  C  90  1  0.99537500  0.53996400  0.81627100  1
  C  91  1  0.99421200  0.55234300  0.80927900  1
  C  92  1  0.99093700  0.61924300  0.80847600  1
  C  93  1  0.99081700  0.63887300  0.81801600  1
  C  97  1  0.99249600  0.17397600  0.34659800  1
  C  98  1  0.99685500  0.30259500  0.48257300  1
  C  99  1  0.97468700  0.18548800  0.48422500  1
  C  100  1  0.00098800  0.30760700  0.50466300  1
  C  101  1  0.00169100  0.32957200  0.52176400  1
  C  102  1  0.99704000  0.34698700  0.51719200  1
  C  103  1  0.99584000  0.34188400  0.49507100  1
  C  104  1  0.99459600  0.31988700  0.47786400  1
  C  105  1  0.04193700  0.18377900  0.33472000  1
  C  106  1  0.04134400  0.17207500  0.31160700  1
  C  107  1  0.99202200  0.15029600  0.29982300  1
  C  108  1  0.94123400  0.14072800  0.31184200  1
  C  109  1  0.94195800  0.15233900  0.33496800  1
  C  110  1  0.05380400  0.16847300  0.48347500  1
  C  111  1  0.05198600  0.16436800  0.50112700  1
  C  112  1  0.97162200  0.17723100  0.51987000  1
  C  113  1  0.89177300  0.19404200  0.52036100  1
  C  114  1  0.89344200  0.19823600  0.50280000  1
  C  126  1  0.98876600  0.20677800  0.44435600  1
  C  127  1  0.98939100  0.19487800  0.42117600  1
  C  128  1  0.99208300  0.20606500  0.40915500  1
  C  129  1  0.99407300  0.22928300  0.42047500  1
  C  130  1  0.99339000  0.24127200  0.44365400  1
  C  131  1  0.99072600  0.22993300  0.45547500  1
  C  136  1  0.98073800  0.19033200  0.46859900  1
  C  137  1  0.98520000  0.19693300  0.45591200  1
  C  138  1  0.99588700  0.28207700  0.46698400  1
  C  139  1  0.99482700  0.26270300  0.45460100  1
  C  140  1  0.99230300  0.19499500  0.38769000  1
  C  141  1  0.99237900  0.18489500  0.36805900  1
  C  145  1  0.99235600  0.17841800  0.83291700  1
  C  146  1  0.99679600  0.18575000  0.70430600  1
  C  147  1  0.97467300  0.30453800  0.82141900  1
  C  148  1  0.00094200  0.20282500  0.69929200  1
  C  149  1  0.00165100  0.19795400  0.67732600  1
  C  150  1  0.99700800  0.17596300  0.65991200  1
  C  151  1  0.99579700  0.15894700  0.66501700  1
  C  152  1  0.99454500  0.16374600  0.68701600  1
  C  153  1  0.04185100  0.15673600  0.82310800  1
  C  154  1  0.04125200  0.14532100  0.83480300  1
  C  155  1  0.99187100  0.15530900  0.85657800  1
  C  156  1  0.94101400  0.17689500  0.86615200  1
  C  157  1  0.94175600  0.18841700  0.85455100  1
  C  158  1  0.05381500  0.32080400  0.83843100  1
  C  159  1  0.05200500  0.34256300  0.84253800  1
  C  160  1  0.97162100  0.34844000  0.82967500  1
  C  161  1  0.89174400  0.33211900  0.81286700  1
  C  162  1  0.89341100  0.31036300  0.80867400  1
  C  174  1  0.98871500  0.24337700  0.80012800  1
  C  175  1  0.98931800  0.23209900  0.81202800  1
  C  176  1  0.99199100  0.20888800  0.80084000  1
  C  177  1  0.99398100  0.19698700  0.77762100  1
  C  178  1  0.99331800  0.20817400  0.76563200  1
  C  179  1  0.99067600  0.23133600  0.77697100  1
  C  184  1  0.98071700  0.28406700  0.81657400  1
  C  185  1  0.98516400  0.26477900  0.80997300  1
  C  186  1  0.99582200  0.19068700  0.72482500  1
  C  187  1  0.99475500  0.19768400  0.74420000  1
  C  188  1  0.99218500  0.19849700  0.81191000  1
  C  189  1  0.99224800  0.18896400  0.82200700  1
  C  193  1  0.89114200  0.77386900  0.89244500  1
  C  194  1  0.86168800  0.79641800  0.90331300  1
  C  195  1  0.96416700  0.81220800  0.90865700  1
  C  196  1  0.09708100  0.80445100  0.90218500  1
  C  197  1  0.12939400  0.78176800  0.89116100  1
  C  198  1  0.02441000  0.76620400  0.88639300  1
  C  205  1  0.93291900  0.83452400  0.92085000  1
  C  207  1  0.05014800  0.74400500  0.87800400  1
  C  209  1  0.88995700  0.12339700  0.23309900  1
  C  210  1  0.85991900  0.11135500  0.21058600  1
  C  211  1  0.96253000  0.10139000  0.19471000  1
  C  212  1  0.09639300  0.10355300  0.20238200  1
  C  213  1  0.12933300  0.11557300  0.22503100  1
  C  214  1  0.02402000  0.12585300  0.24066800  1
  C  221  1  0.92987900  0.09069600  0.17240500  1
  C  223  1  0.04953200  0.13988500  0.26283800  1
  C  225  1  0.89006300  0.11539400  0.88338000  1
  C  226  1  0.86006900  0.10488200  0.89538200  1
  C  227  1  0.96267400  0.09901000  0.90537900  1
  C  228  1  0.09647200  0.10460100  0.90329200  1
  C  229  1  0.12936300  0.11527000  0.89131000  1
  C  230  1  0.02406900  0.12058500  0.88099500  1
  C  237  1  0.93012100  0.08734000  0.91601200  1
  C  239  1  0.04960400  0.12875000  0.86699000  1
  C  241  1  0.09280100  0.40710200  0.57348900  1
  C  242  1  0.11694400  0.42841600  0.59094000  1
  C  243  1  0.00911700  0.44240500  0.60270000  1
  C  244  1  0.87655800  0.43479700  0.59587900  1
  C  245  1  0.84974400  0.41342200  0.57819700  1
  C  246  1  0.96014200  0.39926300  0.56702000  1
  C  253  1  0.03469100  0.46279100  0.62085700  1
  C  255  1  0.94190800  0.37725700  0.55176000  1
  C  257  1  0.09281000  0.17213100  0.59979900  1
  C  258  1  0.11699300  0.16826400  0.57848400  1
  C  259  1  0.00918600  0.16603500  0.56449300  1
  C  260  1  0.87661000  0.16682000  0.57209500  1
  C  261  1  0.84976400  0.17051500  0.59346900  1
  C  262  1  0.96013800  0.17350000  0.60763300  1
  C  269  1  0.03479200  0.16380400  0.54410800  1
  C  271  1  0.94187600  0.18024800  0.62963800  1
  C  273  1  0.09276500  0.43347500  0.83478400  1
  C  274  1  0.11696500  0.41602600  0.83864500  1
  C  275  1  0.00917700  0.40426100  0.84087400  1
  C  276  1  0.87659900  0.41107400  0.84008900  1
  C  277  1  0.84972300  0.42875400  0.83639800  1
  C  278  1  0.96008600  0.43993800  0.83341800  1
  C  285  1  0.03480700  0.38610700  0.84310000  1
  C  287  1  0.94179300  0.45519600  0.82667300  1
  H  19  1  0.16398200  0.04695900  0.13110500  1
  H  20  1  0.16077600  0.02721700  0.09175500  1
  H  21  1  0.84883300  0.08741400  0.13180100  1
  H  22  1  0.12988400  0.91508800  0.93255100  1
  H  23  1  0.87352300  0.91423300  0.98010200  1
  H  24  1  0.87853800  0.87497400  0.96036800  1
  H  25  1  0.13367400  0.87573300  0.91286900  1
  H  26  1  0.84628100  0.03021600  0.93872100  1
  H  27  1  0.16195100  0.09022900  0.96019400  1
  H  28  1  0.15863700  0.07062200  0.97993200  1
  H  29  1  0.85093600  0.04982900  0.91908700  1
  H  36  1  0.99929800  0.98330100  0.02171300  1
  H  37  1  0.99923800  0.98509100  0.96263100  1
  H  38  1  0.99997400  0.04417400  0.02351000  1
  H  39  1  0.84426300  0.06777400  0.09255000  1
  H  67  1  0.99411600  0.51561700  0.86404000  1
  H  68  1  0.99201200  0.54497700  0.85589700  1
  H  69  1  0.00655500  0.46934300  0.79632300  1
  H  70  1  0.90140200  0.66380100  0.80300300  1
  H  71  1  0.07777300  0.66421800  0.85793600  1
  H  72  1  0.07507900  0.70343500  0.87741600  1
  H  73  1  0.90002200  0.70315100  0.82264900  1
  H  74  1  0.11433900  0.53662200  0.69000300  1
  H  75  1  0.83292500  0.47314900  0.67108000  1
  H  76  1  0.83565800  0.50299600  0.70809400  1
  H  77  1  0.11061300  0.50668400  0.65298900  1
  H  84  1  0.99477600  0.59509400  0.82683100  1
  H  85  1  0.98655600  0.59386800  0.76613800  1
  H  86  1  0.98957200  0.53457600  0.76744000  1
  H  87  1  0.00371100  0.49835800  0.78799100  1
  H  115  1  0.99439500  0.35419600  0.49133800  1
  H  116  1  0.99244900  0.31669000  0.46197500  1
  H  117  1  0.00674500  0.33275800  0.53761000  1
  H  118  1  0.90466700  0.14484200  0.34314200  1
  H  119  1  0.07806200  0.19953000  0.34270000  1
  H  120  1  0.07563200  0.17975900  0.30348800  1
  H  121  1  0.90353200  0.12509900  0.30379400  1
  H  122  1  0.11470200  0.15912700  0.47029300  1
  H  123  1  0.83318700  0.20368400  0.53375700  1
  H  124  1  0.83607200  0.21085700  0.50391600  1
  H  125  1  0.11082400  0.15204300  0.50022100  1
  H  132  1  0.99586400  0.23750300  0.41184800  1
  H  133  1  0.98764000  0.17803000  0.41305800  1
  H  134  1  0.98996300  0.23863000  0.47235900  1
  H  135  1  0.00406200  0.29540800  0.50859100  1
  H  163  1  0.99436100  0.14290000  0.65270400  1
  H  164  1  0.99239400  0.15105600  0.69021500  1
  H  165  1  0.00671300  0.21061200  0.67413700  1
  H  166  1  0.90442400  0.20408600  0.86205200  1
  H  167  1  0.07801300  0.14897100  0.80735900  1
  H  168  1  0.07557000  0.12951900  0.82711400  1
  H  169  1  0.90327000  0.18447000  0.88177800  1
  H  170  1  0.11473200  0.31697000  0.84777600  1
  H  171  1  0.83314600  0.33587000  0.80322800  1
  H  172  1  0.83601600  0.29885600  0.79605300  1
  H  173  1  0.11086300  0.35398200  0.85485900  1
  H  180  1  0.99576000  0.18013800  0.76940100  1
  H  181  1  0.98756000  0.24083200  0.82887600  1
  H  182  1  0.98993200  0.23952000  0.76827300  1
  H  183  1  0.00401100  0.21895600  0.71149000  1
  H  199  1  0.81414000  0.76311600  0.88965800  1
  H  200  1  0.76417100  0.80120600  0.90783300  1
  H  201  1  0.17316600  0.81558600  0.90600900  1
  H  203  1  0.32987200  0.78670200  0.88879700  1
  H  204  1  0.28741900  0.76052700  0.87732600  1
  H  206  1  0.84367300  0.83886300  0.92818300  1
  H  208  1  0.12284200  0.73985600  0.88492200  1
  H  215  1  0.81253700  0.13096000  0.24390100  1
  H  216  1  0.76161900  0.11044300  0.20588300  1
  H  217  1  0.17258400  0.09654500  0.19120600  1
  H  219  1  0.33094900  0.10940800  0.21995200  1
  H  220  1  0.28891300  0.12404700  0.24615300  1
  H  222  1  0.83622300  0.09187800  0.16814700  1
  H  224  1  0.11980900  0.15130900  0.26689500  1
  H  231  1  0.81266700  0.11859900  0.87578800  1
  H  232  1  0.76182000  0.10102800  0.89623700  1
  H  233  1  0.17265600  0.10045700  0.91032000  1
  H  235  1  0.33089800  0.11646000  0.89756800  1
  H  236  1  0.28883100  0.12802400  0.88293800  1
  H  238  1  0.83676600  0.08173800  0.91467400  1
  H  240  1  0.12008900  0.12142300  0.85559600  1
  H  247  1  0.17369000  0.39707500  0.56606500  1
  H  248  1  0.21426900  0.43325700  0.59558300  1
  H  249  1  0.79760500  0.44493400  0.60416600  1
  H  251  1  0.64559200  0.41735300  0.58037600  1
  H  252  1  0.69515900  0.39316900  0.56019800  1
  H  254  1  0.11264100  0.47146700  0.62056100  1
  H  256  1  0.88287900  0.36848400  0.55589800  1
  H  263  1  0.17368000  0.17473300  0.60982700  1
  H  264  1  0.21431800  0.16806700  0.57364700  1
  H  265  1  0.79767900  0.16496900  0.56195300  1
  H  267  1  0.64562200  0.16876000  0.58952900  1
  H  268  1  0.69514500  0.17276900  0.61371400  1
  H  270  1  0.11274300  0.15482900  0.53543400  1
  H  272  1  0.88281900  0.19315800  0.63840800  1
  H  279  1  0.17362500  0.44090300  0.83218200  1
  H  280  1  0.21430300  0.41138800  0.83884300  1
  H  281  1  0.79767400  0.40278300  0.84194000  1
  H  283  1  0.64558300  0.42656500  0.83815400  1
  H  284  1  0.69508400  0.44674500  0.83415100  1
  H  286  1  0.11278100  0.38640800  0.85207300  1
  H  288  1  0.88274000  0.45105400  0.81376300  1
  N  46  1  0.01524500  0.07945500  0.15706100  1
  N  47  1  0.01524100  0.08338100  0.92738800  1
  N  48  1  0.01423100  0.84976400  0.92312400  1
  N  94  1  0.00055500  0.47400700  0.83619700  1
  N  95  1  0.96663100  0.46939800  0.63859600  1
  N  96  1  0.98319800  0.72895700  0.86180900  1
  N  142  1  0.00070600  0.36796900  0.53294900  1
  N  143  1  0.96679000  0.17494100  0.53750400  1
  N  144  1  0.98529000  0.13848600  0.27796900  1
  N  190  1  0.00068800  0.17073200  0.63892800  1
  N  191  1  0.96678800  0.36836500  0.83196700  1
  N  192  1  0.98512700  0.14525500  0.86837600  1
  N  202  1  0.26012000  0.77580700  0.88560500  1
  N  218  1  0.26092100  0.11677500  0.23089300  1
  N  234  1  0.26089000  0.12000600  0.89017900  1
  N  250  1  0.71923100  0.40729600  0.57267300  1
  N  266  1  0.71924000  0.17111500  0.59958900  1
  N  282  1  0.71919100  0.43427200  0.83580100  1
