# generated using pymatgen
data_ZnH24C28S(N2O3)2
_symmetry_space_group_name_H-M   'P 1'
_cell_length_a   11.19334000
_cell_length_b   24.05298497
_cell_length_c   25.84537398
_cell_angle_alpha   62.37277326
_cell_angle_beta   77.55654667
_cell_angle_gamma   76.64987858
_symmetry_Int_Tables_number   1
_chemical_formula_structural   ZnH24C28S(N2O3)2
_chemical_formula_sum   'Zn8 H192 C224 S8 N32 O48'
_cell_volume   5950.84218493
_cell_formula_units_Z   8
loop_
 _symmetry_equiv_pos_site_id
 _symmetry_equiv_pos_as_xyz
  1  'x, y, z'
loop_
 _atom_site_type_symbol
 _atom_site_label
 _atom_site_symmetry_multiplicity
 _atom_site_fract_x
 _atom_site_fract_y
 _atom_site_fract_z
 _atom_site_occupancy
  Zn  Zn0  1  0.71889000  0.21621000  0.25064000  1
  Zn  Zn1  1  0.18462000  0.28510000  0.25002000  1
  Zn  Zn2  1  0.28112000  0.78379000  0.74936000  1
  Zn  Zn3  1  0.81538000  0.71490000  0.74998000  1
  Zn  Zn4  1  0.25823000  0.75016000  0.24982000  1
  Zn  Zn5  1  0.63676000  0.75002000  0.25015000  1
  Zn  Zn6  1  0.74177000  0.24984000  0.75018000  1
  Zn  Zn7  1  0.36325000  0.24998000  0.74985000  1
  H  H8  1  0.51504000  0.69833000  0.74074000  1
  H  H9  1  0.66327000  0.67851000  0.66648000  1
  H  H10  1  0.41161000  0.80969000  0.53863000  1
  H  H11  1  0.27510000  0.82456000  0.61913000  1
  H  H12  1  0.53152000  0.79549000  0.48032000  1
  H  H13  1  0.59391000  0.72076000  0.48103000  1
  H  H14  1  0.74577000  0.64712000  0.55643000  1
  H  H15  1  0.77721000  0.67542000  0.60423000  1
  H  H16  1  0.88090000  0.75854000  0.52413000  1
  H  H17  1  0.94581000  0.68431000  0.52407000  1
  H  H18  1  0.70022000  0.80111000  0.39978000  1
  H  H19  1  0.72938000  0.83326000  0.44497000  1
  H  H20  1  0.06796000  0.67238000  0.46514000  1
  H  H21  1  0.22412000  0.67609000  0.38283000  1
  H  H22  1  0.01031000  0.82339000  0.26170000  1
  H  H23  1  0.83456000  0.82208000  0.33794000  1
  H  H24  1  0.50293000  0.88030000  0.13896000  1
  H  H25  1  0.60830000  0.97192000  0.06306000  1
  H  H26  1  0.26763000  0.09913000  0.06632000  1
  H  H27  1  0.16340000  0.00534000  0.14067000  1
  H  H28  1  0.73077000  0.05578000  0.07165000  1
  H  H29  1  0.79986000  0.08289000  0.14283000  1
  H  H30  1  0.47752000  0.22370000  0.12776000  1
  H  H31  1  0.41008000  0.19962000  0.05464000  1
  H  H32  1  0.86947000  0.30941000  0.24024000  1
  H  H33  1  0.97055000  0.39586000  0.16289000  1
  H  H34  1  0.77282000  0.38610000  0.03974000  1
  H  H35  1  0.68165000  0.29902000  0.12327000  1
  H  H36  1  0.81921000  0.47143000  0.98563000  1
  H  H37  1  0.97521000  0.44265000  0.96598000  1
  H  H38  1  0.07638000  0.44356000  0.09549000  1
  H  H39  1  0.13403000  0.42844000  0.03316000  1
  H  H40  1  0.81455000  0.98354000  0.36279000  1
  H  H41  1  0.94033000  0.88903000  0.43533000  1
  H  H42  1  0.14627000  0.01545000  0.44305000  1
  H  H43  1  0.02369000  0.10844000  0.36895000  1
  H  H44  1  0.16519000  0.78687000  0.44997000  1
  H  H45  1  0.32384000  0.76324000  0.37478000  1
  H  H46  1  0.52364000  0.90557000  0.35436000  1
  H  H47  1  0.36389000  0.93172000  0.42807000  1
  H  H48  1  0.81879000  0.82990000  0.23884000  1
  H  H49  1  0.95942000  0.89963000  0.16189000  1
  H  H50  1  0.78971000  0.88070000  0.03514000  1
  H  H51  1  0.66882000  0.80776000  0.11777000  1
  H  H52  1  0.06403000  0.94912000  0.09857000  1
  H  H53  1  0.14860000  0.94202000  0.03548000  1
  H  H54  1  0.86372000  0.95113000  0.97721000  1
  H  H55  1  0.02814000  0.94053000  0.96203000  1
  H  H56  1  0.95464000  0.80111000  0.75856000  1
  H  H57  1  0.00855000  0.82132000  0.83275000  1
  H  H58  1  0.75924000  0.69020000  0.96046000  1
  H  H59  1  0.71825000  0.67524000  0.87988000  1
  H  H60  1  0.80671000  0.70435000  0.01890000  1
  H  H61  1  0.79530000  0.77902000  0.01833000  1
  H  H62  1  0.94912000  0.85279000  0.94328000  1
  H  H63  1  0.05613000  0.82496000  0.89520000  1
  H  H64  1  0.16270000  0.74147000  0.97537000  1
  H  H65  1  0.15397000  0.81570000  0.97547000  1
  H  H66  1  0.90042000  0.69868000  0.09958000  1
  H  H67  1  0.00676333  0.66666667  0.05433000  1
  H  H68  1  0.20574000  0.82742000  0.03455000  1
  H  H69  1  0.28317000  0.82381000  0.11688000  1
  H  H70  1  0.09409000  0.67674000  0.23802000  1
  H  H71  1  0.99355000  0.67788000  0.16175000  1
  H  H72  1  0.51973000  0.62077000  0.36019000  1
  H  H73  1  0.64247000  0.52954000  0.43576000  1
  H  H74  1  0.43364000  0.40103000  0.43349000  1
  H  H75  1  0.30829000  0.49413000  0.35948000  1
  H  H76  1  0.85870000  0.44497000  0.42724000  1
  H  H77  1  0.02460000  0.41654000  0.35670000  1
  H  H78  1  0.82400000  0.27587000  0.37344000  1
  H  H79  1  0.66121000  0.30105000  0.44632000  1
  H  H80  1  0.41787000  0.19086000  0.25994000  1
  H  H81  1  0.52802000  0.10424000  0.33698000  1
  H  H82  1  0.19891000  0.11351000  0.46070000  1
  H  H83  1  0.10413000  0.20083000  0.37756000  1
  H  H84  1  0.27652000  0.02820000  0.51479000  1
  H  H85  1  0.38467000  0.05715000  0.53415000  1
  H  H86  1  0.61481000  0.05672000  0.40431000  1
  H  H87  1  0.59553000  0.07181000  0.46665000  1
  H  H88  1  0.16010000  0.51823000  0.13660000  1
  H  H89  1  0.26585000  0.61218000  0.06379000  1
  H  H90  1  0.60352000  0.48462000  0.05714000  1
  H  H91  1  0.49775000  0.39216000  0.13150000  1
  H  H92  1  0.40155000  0.71344000  0.05061000  1
  H  H93  1  0.46307000  0.73652000  0.12572000  1
  H  H94  1  0.78350000  0.59431000  0.14536000  1
  H  H95  1  0.72248000  0.56873000  0.07144000  1
  H  H96  1  0.88641000  0.66995000  0.26158000  1
  H  H97  1  0.01972000  0.60022000  0.33841000  1
  H  H98  1  0.70550000  0.61926000  0.46538000  1
  H  H99  1  0.59450000  0.69222000  0.38276000  1
  H  H100  1  0.11122000  0.55161000  0.40142000  1
  H  H101  1  0.12589000  0.55795000  0.46492000  1
  H  H102  1  0.79287000  0.54870000  0.52352000  1
  H  H103  1  0.93245000  0.55892000  0.53842000  1
  H  H104  1  0.48497000  0.30167000  0.25926000  1
  H  H105  1  0.33673000  0.32149000  0.33352000  1
  H  H106  1  0.58839000  0.19031000  0.46137000  1
  H  H107  1  0.72491000  0.17544000  0.38087000  1
  H  H108  1  0.46849000  0.20450000  0.51968000  1
  H  H109  1  0.40610000  0.27924000  0.51897000  1
  H  H110  1  0.25423000  0.35288000  0.44357000  1
  H  H111  1  0.22280000  0.32458000  0.39577000  1
  H  H112  1  0.11910000  0.24146000  0.47587000  1
  H  H113  1  0.05420000  0.31569000  0.47593000  1
  H  H114  1  0.29979000  0.19889000  0.60022000  1
  H  H115  1  0.27062000  0.16674000  0.55503000  1
  H  H116  1  0.93205000  0.32762000  0.53486000  1
  H  H117  1  0.77589000  0.32391000  0.61717000  1
  H  H118  1  0.98970000  0.17661000  0.73830000  1
  H  H119  1  0.16545000  0.17792000  0.66206000  1
  H  H120  1  0.49708000  0.11970000  0.86104000  1
  H  H121  1  0.39171000  0.02808000  0.93694000  1
  H  H122  1  0.73237000  0.90087000  0.93368000  1
  H  H123  1  0.83660000  0.99466000  0.85933000  1
  H  H124  1  0.26924000  0.94422000  0.92835000  1
  H  H125  1  0.20014000  0.91711000  0.85717000  1
  H  H126  1  0.52248000  0.77630000  0.87224000  1
  H  H127  1  0.58993000  0.80038000  0.94535000  1
  H  H128  1  0.13053000  0.69059000  0.75976000  1
  H  H129  1  0.02946000  0.60414000  0.83711000  1
  H  H130  1  0.22718000  0.61390000  0.96026000  1
  H  H131  1  0.31838000  0.70097000  0.87672000  1
  H  H132  1  0.18079000  0.52857000  0.01437000  1
  H  H133  1  0.02479000  0.55735000  0.03402000  1
  H  H134  1  0.92365000  0.55643000  0.90450000  1
  H  H135  1  0.86597000  0.57156000  0.96684000  1
  H  H136  1  0.18545000  0.01646000  0.63721000  1
  H  H137  1  0.05967000  0.11097000  0.56467000  1
  H  H138  1  0.85374000  0.98455000  0.55695000  1
  H  H139  1  0.97631000  0.89156000  0.63105000  1
  H  H140  1  0.83481000  0.21313000  0.55003000  1
  H  H141  1  0.67617000  0.23676000  0.62521000  1
  H  H142  1  0.47637000  0.09443000  0.64564000  1
  H  H143  1  0.63611000  0.06828000  0.57193000  1
  H  H144  1  0.18122000  0.17010000  0.76116000  1
  H  H145  1  0.04059000  0.10037000  0.83811000  1
  H  H146  1  0.21030000  0.11930000  0.96486000  1
  H  H147  1  0.33119000  0.19224000  0.88223000  1
  H  H148  1  0.93597000  0.05088000  0.90143000  1
  H  H149  1  0.85141000  0.05798000  0.96452000  1
  H  H150  1  0.13628000  0.04887000  0.02279000  1
  H  H151  1  0.97186000  0.05947000  0.03797000  1
  H  H152  1  0.04536000  0.19889000  0.24144000  1
  H  H153  1  0.99146000  0.17867000  0.16725000  1
  H  H154  1  0.24077000  0.30980000  0.03954000  1
  H  H155  1  0.28176000  0.32476000  0.12012000  1
  H  H156  1  0.19330000  0.29565000  0.98110000  1
  H  H157  1  0.20470000  0.22098000  0.98167000  1
  H  H158  1  0.05088000  0.14721000  0.05672000  1
  H  H159  1  0.94387000  0.17504000  0.10480000  1
  H  H160  1  0.83730000  0.25853000  0.02463000  1
  H  H161  1  0.84604000  0.18430000  0.02453000  1
  H  H162  1  0.09958000  0.30132000  0.90042000  1
  H  H163  1  0.99324667  0.33333333  0.94567000  1
  H  H164  1  0.79427000  0.17258000  0.96545000  1
  H  H165  1  0.71685000  0.17618000  0.88312000  1
  H  H166  1  0.90591000  0.32326000  0.76198000  1
  H  H167  1  0.00646000  0.32212000  0.83824000  1
  H  H168  1  0.48028000  0.37923000  0.63981000  1
  H  H169  1  0.35755000  0.47046000  0.56423000  1
  H  H170  1  0.56637000  0.59897000  0.56651000  1
  H  H171  1  0.69172000  0.50587000  0.64052000  1
  H  H172  1  0.14130000  0.55503000  0.57276000  1
  H  H173  1  0.97541000  0.58346000  0.64330000  1
  H  H174  1  0.17600000  0.72413000  0.62656000  1
  H  H175  1  0.33879000  0.69895000  0.55368000  1
  H  H176  1  0.58213000  0.80914000  0.74006000  1
  H  H177  1  0.47199000  0.89576000  0.66302000  1
  H  H178  1  0.80110000  0.88649000  0.53930000  1
  H  H179  1  0.89588000  0.79917000  0.62244000  1
  H  H180  1  0.72348000  0.97180000  0.48521000  1
  H  H181  1  0.61533000  0.94285000  0.46585000  1
  H  H182  1  0.38520000  0.94328000  0.59569000  1
  H  H183  1  0.40447000  0.92819000  0.53335000  1
  H  H184  1  0.83990000  0.48177000  0.86340000  1
  H  H185  1  0.73416000  0.38782000  0.93621000  1
  H  H186  1  0.39648000  0.51538000  0.94286000  1
  H  H187  1  0.50225000  0.60784000  0.86850000  1
  H  H188  1  0.59846000  0.28656000  0.94939000  1
  H  H189  1  0.53694000  0.26348000  0.87428000  1
  H  H190  1  0.21650000  0.40569000  0.85464000  1
  H  H191  1  0.27753000  0.43127000  0.92856000  1
  H  H192  1  0.11359000  0.33005000  0.73842000  1
  H  H193  1  0.98029000  0.39978000  0.66159000  1
  H  H194  1  0.29451000  0.38074000  0.53462000  1
  H  H195  1  0.40551000  0.30778000  0.61724000  1
  H  H196  1  0.88878000  0.44839000  0.59858000  1
  H  H197  1  0.87412000  0.44204000  0.53508000  1
  H  H198  1  0.20713000  0.45130000  0.47648000  1
  H  H199  1  0.06755000  0.44108000  0.46158000  1
  C  C200  1  0.49434000  0.72197000  0.69543000  1
  C  C201  1  0.57857000  0.71058000  0.65261000  1
  C  C202  1  0.55527000  0.74225000  0.59306000  1
  C  C203  1  0.44060000  0.78343000  0.58225000  1
  C  C204  1  0.36182000  0.79214000  0.62796000  1
  C  C205  1  0.61358000  0.75917000  0.48845000  1
  C  C206  1  0.75505000  0.68980000  0.56009000  1
  C  C207  1  0.86293000  0.72013000  0.51612000  1
  C  C208  1  0.72150000  0.78905000  0.44360000  1
  C  C209  1  0.93194000  0.74707000  0.41067000  1
  C  C210  1  0.04721000  0.70642000  0.42118000  1
  C  C211  1  0.13712000  0.70840000  0.37461000  1
  C  C212  1  0.01554000  0.78923000  0.30741000  1
  C  C213  1  0.91900000  0.78914000  0.35094000  1
  C  C214  1  0.26245000  0.88153000  0.18449000  1
  C  C215  1  0.32749000  0.93774000  0.14330000  1
  C  C216  1  0.45316000  0.92841000  0.12241000  1
  C  C217  1  0.51150000  0.97938000  0.08038000  1
  C  C218  1  0.44299000  0.04035000  0.06008000  1
  C  C219  1  0.31796000  0.05101000  0.08176000  1
  C  C220  1  0.26055000  0.99931000  0.12317000  1
  C  C221  1  0.56724000  0.12678000  0.05934000  1
  C  C222  1  0.67674000  0.09263000  0.08390000  1
  C  C223  1  0.71445000  0.10719000  0.12342000  1
  C  C224  1  0.64235000  0.15445000  0.13912000  1
  C  C225  1  0.53185000  0.18714000  0.11520000  1
  C  C226  1  0.49413000  0.17375000  0.07467000  1
  C  C227  1  0.69051000  0.17155000  0.17876000  1
  C  C228  1  0.84995000  0.32774000  0.19520000  1
  C  C229  1  0.90689000  0.37713000  0.15089000  1
  C  C230  1  0.88369000  0.40061000  0.09204000  1
  C  C231  1  0.79783000  0.37181000  0.08297000  1
  C  C232  1  0.74585000  0.32210000  0.13007000  1
  C  C233  1  0.91598000  0.47274000  0.98630000  1
  C  C234  1  0.06314000  0.45841000  0.04991000  1
  C  C235  1  0.82998000  0.10563000  0.32126000  1
  C  C236  1  0.91243000  0.05094000  0.36170000  1
  C  C237  1  0.88845000  0.98924000  0.38041000  1
  C  C238  1  0.95712000  0.93720000  0.42074000  1
  C  C239  1  0.04900000  0.94771000  0.44302000  1
  C  C240  1  0.07475000  0.00877000  0.42475000  1
  C  C241  1  0.00641000  0.06040000  0.38359000  1
  C  C242  1  0.25658000  0.86028000  0.44293000  1
  C  C243  1  0.24315000  0.81293000  0.42853000  1
  C  C244  1  0.33137000  0.79977000  0.38693000  1
  C  C245  1  0.43258000  0.83293000  0.36050000  1
  C  C246  1  0.44429000  0.88046000  0.37543000  1
  C  C247  1  0.35619000  0.89475000  0.41637000  1
  C  C248  1  0.53220000  0.81609000  0.31813000  1
  C  C249  1  0.81921000  0.84145000  0.19288000  1
  C  C250  1  0.89524000  0.88211000  0.14893000  1
  C  C251  1  0.88831000  0.89973000  0.08894000  1
  C  C252  1  0.80296000  0.87130000  0.07899000  1
  C  C253  1  0.73336000  0.82957000  0.12589000  1
  C  C254  1  0.06086000  0.96401000  0.05188000  1
  C  C255  1  0.94748000  0.96369000  0.98169000  1
  C  C256  1  0.91184000  0.77769000  0.80381000  1
  C  C257  1  0.94176000  0.78926000  0.84663000  1
  C  C258  1  0.89027000  0.75769000  0.90616000  1
  C  C259  1  0.80574000  0.71650000  0.91689000  1
  C  C260  1  0.78149000  0.70767000  0.87115000  1
  C  C261  1  0.86069000  0.74070000  0.01086000  1
  C  C262  1  0.00455000  0.81023000  0.93942000  1
  C  C263  1  0.09874000  0.77986000  0.98343000  1
  C  C264  1  0.95350000  0.71084000  0.05579000  1
  C  C265  1  0.08918000  0.75283000  0.08895000  1
  C  C266  1  0.17462000  0.79345000  0.07849000  1
  C  C267  1  0.21997000  0.79153000  0.12509000  1
  C  C268  1  0.11126000  0.71083000  0.19229000  1
  C  C269  1  0.05821000  0.71085000  0.14870000  1
  C  C270  1  0.32655000  0.61859000  0.31498000  1
  C  C271  1  0.40690000  0.56259000  0.35611000  1
  C  C272  1  0.50236000  0.57249000  0.37668000  1
  C  C273  1  0.57040000  0.52188000  0.41853000  1
  C  C274  1  0.54314000  0.46072000  0.43907000  1
  C  C275  1  0.45058000  0.44940000  0.41774000  1
  C  C276  1  0.38217000  0.50075000  0.37646000  1
  C  C277  1  0.75224000  0.37398000  0.44058000  1
  C  C278  1  0.85273000  0.40780000  0.41552000  1
  C  C279  1  0.94378000  0.39243000  0.37629000  1
  C  C280  1  0.93342000  0.34469000  0.36137000  1
  C  C281  1  0.83060000  0.31263000  0.38554000  1
  C  C282  1  0.73985000  0.32669000  0.42590000  1
  C  C283  1  0.03747000  0.32663000  0.32206000  1
  C  C284  1  0.37189000  0.17249000  0.30503000  1
  C  C285  1  0.43397000  0.12297000  0.34918000  1
  C  C286  1  0.37591000  0.09934000  0.40812000  1
  C  C287  1  0.25255000  0.12805000  0.41741000  1
  C  C288  1  0.19797000  0.17791000  0.37044000  1
  C  C289  1  0.37531000  0.02704000  0.51388000  1
  C  C290  1  0.57111000  0.04177000  0.44994000  1
  C  C291  1  0.25490000  0.39602000  0.17844000  1
  C  C292  1  0.32323000  0.45047000  0.13789000  1
  C  C293  1  0.25709000  0.51223000  0.11893000  1
  C  C294  1  0.31505000  0.56388000  0.07844000  1
  C  C295  1  0.43949000  0.55288000  0.05635000  1
  C  C296  1  0.50701000  0.49168000  0.07499000  1
  C  C297  1  0.44827000  0.44042000  0.11628000  1
  C  C298  1  0.55962000  0.64033000  0.05667000  1
  C  C299  1  0.48473000  0.68741000  0.07146000  1
  C  C300  1  0.51886000  0.70022000  0.11323000  1
  C  C301  1  0.62663000  0.66687000  0.13962000  1
  C  C302  1  0.70033000  0.61963000  0.12430000  1
  C  C303  1  0.66694000  0.60575000  0.08316000  1
  C  C304  1  0.66731000  0.68336000  0.18229000  1
  C  C305  1  0.85277000  0.65849000  0.30755000  1
  C  C306  1  0.92542000  0.61780000  0.35145000  1
  C  C307  1  0.87646000  0.60031000  0.41144000  1
  C  C308  1  0.75303000  0.62869000  0.42152000  1
  C  C309  1  0.68873000  0.67043000  0.37462000  1
  C  C310  1  0.07636000  0.53629000  0.44816000  1
  C  C311  1  0.89353000  0.53610000  0.51868000  1
  C  C312  1  0.50567000  0.27803000  0.30457000  1
  C  C313  1  0.42144000  0.28942000  0.34739000  1
  C  C314  1  0.44474000  0.25775000  0.40693000  1
  C  C315  1  0.55941000  0.21657000  0.41775000  1
  C  C316  1  0.63818000  0.20786000  0.37204000  1
  C  C317  1  0.38643000  0.24083000  0.51155000  1
  C  C318  1  0.24497000  0.31019000  0.43991000  1
  C  C319  1  0.13707000  0.27987000  0.48388000  1
  C  C320  1  0.27850000  0.21095000  0.55640000  1
  C  C321  1  0.06806000  0.25293000  0.58933000  1
  C  C322  1  0.95279000  0.29358000  0.57882000  1
  C  C323  1  0.86288000  0.29160000  0.62539000  1
  C  C324  1  0.98446000  0.21077000  0.69259000  1
  C  C325  1  0.08101000  0.21085000  0.64906000  1
  C  C326  1  0.73755000  0.11847000  0.81551000  1
  C  C327  1  0.67251000  0.06226000  0.85670000  1
  C  C328  1  0.54684000  0.07159000  0.87759000  1
  C  C329  1  0.48851000  0.02062000  0.91962000  1
  C  C330  1  0.55701000  0.95965000  0.93992000  1
  C  C331  1  0.68204000  0.94899000  0.91824000  1
  C  C332  1  0.73946000  0.00069000  0.87683000  1
  C  C333  1  0.43277000  0.87322000  0.94066000  1
  C  C334  1  0.32326000  0.90737000  0.91610000  1
  C  C335  1  0.28555000  0.89281000  0.87658000  1
  C  C336  1  0.35766000  0.84555000  0.86088000  1
  C  C337  1  0.46815000  0.81286000  0.88480000  1
  C  C338  1  0.50588000  0.82625000  0.92533000  1
  C  C339  1  0.30949000  0.82845000  0.82124000  1
  C  C340  1  0.15006000  0.67226000  0.80480000  1
  C  C341  1  0.09312000  0.62287000  0.84911000  1
  C  C342  1  0.11632000  0.59939000  0.90796000  1
  C  C343  1  0.20217000  0.62819000  0.91703000  1
  C  C344  1  0.25415000  0.67790000  0.86993000  1
  C  C345  1  0.08403000  0.52726000  0.01370000  1
  C  C346  1  0.93687000  0.54159000  0.95009000  1
  C  C347  1  0.17003000  0.89437000  0.67874000  1
  C  C348  1  0.08758000  0.94906000  0.63830000  1
  C  C349  1  0.11155000  0.01076000  0.61959000  1
  C  C350  1  0.04289000  0.06280000  0.57926000  1
  C  C351  1  0.95100000  0.05229000  0.55698000  1
  C  C352  1  0.92525000  0.99123000  0.57525000  1
  C  C353  1  0.99360000  0.93960000  0.61641000  1
  C  C354  1  0.74342000  0.13972000  0.55707000  1
  C  C355  1  0.75686000  0.18707000  0.57147000  1
  C  C356  1  0.66863000  0.20023000  0.61307000  1
  C  C357  1  0.56743000  0.16707000  0.63950000  1
  C  C358  1  0.55572000  0.11954000  0.62457000  1
  C  C359  1  0.64382000  0.10525000  0.58363000  1
  C  C360  1  0.46780000  0.18391000  0.68187000  1
  C  C361  1  0.18079000  0.15855000  0.80712000  1
  C  C362  1  0.10476000  0.11789000  0.85107000  1
  C  C363  1  0.11170000  0.10027000  0.91106000  1
  C  C364  1  0.19705000  0.12870000  0.92101000  1
  C  C365  1  0.26664000  0.17043000  0.87411000  1
  C  C366  1  0.93914000  0.03599000  0.94812000  1
  C  C367  1  0.05253000  0.03631000  0.01831000  1
  C  C368  1  0.08817000  0.22231000  0.19619000  1
  C  C369  1  0.05825000  0.21074000  0.15337000  1
  C  C370  1  0.10975000  0.24231000  0.09383000  1
  C  C371  1  0.19427000  0.28350000  0.08311000  1
  C  C372  1  0.21851000  0.29233000  0.12885000  1
  C  C373  1  0.13932000  0.25930000  0.98914000  1
  C  C374  1  0.99545000  0.18977000  0.06058000  1
  C  C375  1  0.90127000  0.22013000  0.01657000  1
  C  C376  1  0.04651000  0.28916000  0.94421000  1
  C  C377  1  0.91083000  0.24717000  0.91105000  1
  C  C378  1  0.82539000  0.20654000  0.92151000  1
  C  C379  1  0.78004000  0.20847000  0.87491000  1
  C  C380  1  0.88875000  0.28917000  0.80771000  1
  C  C381  1  0.94180000  0.28915000  0.85130000  1
  C  C382  1  0.67345000  0.38141000  0.68502000  1
  C  C383  1  0.59310000  0.43741000  0.64389000  1
  C  C384  1  0.49764000  0.42751000  0.62332000  1
  C  C385  1  0.42962000  0.47811000  0.58147000  1
  C  C386  1  0.45687000  0.53928000  0.56093000  1
  C  C387  1  0.54942000  0.55060000  0.58226000  1
  C  C388  1  0.61784000  0.49925000  0.62354000  1
  C  C389  1  0.24776000  0.62602000  0.55942000  1
  C  C390  1  0.14727000  0.59220000  0.58448000  1
  C  C391  1  0.05622000  0.60757000  0.62371000  1
  C  C392  1  0.06658000  0.65531000  0.63863000  1
  C  C393  1  0.16940000  0.68737000  0.61446000  1
  C  C394  1  0.26015000  0.67331000  0.57410000  1
  C  C395  1  0.96254000  0.67337000  0.67794000  1
  C  C396  1  0.62811000  0.82751000  0.69497000  1
  C  C397  1  0.56604000  0.87703000  0.65081000  1
  C  C398  1  0.62410000  0.90066000  0.59188000  1
  C  C399  1  0.74745000  0.87195000  0.58259000  1
  C  C400  1  0.80205000  0.82209000  0.62955000  1
  C  C401  1  0.62469000  0.97296000  0.48612000  1
  C  C402  1  0.42890000  0.95823000  0.55005000  1
  C  C403  1  0.74510000  0.60398000  0.82156000  1
  C  C404  1  0.67678000  0.54953000  0.86211000  1
  C  C405  1  0.74291000  0.48777000  0.88107000  1
  C  C406  1  0.68496000  0.43611000  0.92156000  1
  C  C407  1  0.56053000  0.44712000  0.94364000  1
  C  C408  1  0.49301000  0.50832000  0.92500000  1
  C  C409  1  0.55174000  0.55958000  0.88372000  1
  C  C410  1  0.44039000  0.35967000  0.94333000  1
  C  C411  1  0.51527000  0.31259000  0.92854000  1
  C  C412  1  0.48115000  0.29978000  0.88677000  1
  C  C413  1  0.37338000  0.33313000  0.86037000  1
  C  C414  1  0.29969000  0.38036000  0.87570000  1
  C  C415  1  0.33306000  0.39425000  0.91684000  1
  C  C416  1  0.33269000  0.31664000  0.81771000  1
  C  C417  1  0.14723000  0.34151000  0.69245000  1
  C  C418  1  0.07461000  0.38219000  0.64854000  1
  C  C419  1  0.12355000  0.39969000  0.58856000  1
  C  C420  1  0.24698000  0.37131000  0.57848000  1
  C  C421  1  0.31128000  0.32957000  0.62538000  1
  C  C422  1  0.92365000  0.46371000  0.55184000  1
  C  C423  1  0.10648000  0.46390000  0.48132000  1
  S  S424  1  0.51946000  0.10608000  0.01029000  1
  S  S425  1  0.14001000  0.88112000  0.49237000  1
  S  S426  1  0.63548000  0.39572000  0.48918000  1
  S  S427  1  0.51443000  0.61914000  0.00719000  1
  S  S428  1  0.48054000  0.89392000  0.98971000  1
  S  S429  1  0.86001000  0.11888000  0.50762000  1
  S  S430  1  0.36454000  0.60428000  0.51081000  1
  S  S431  1  0.48557000  0.38086000  0.99281000  1
  N  N432  1  0.38666000  0.76258000  0.68434000  1
  N  N433  1  0.63980000  0.73445000  0.54888000  1
  N  N434  1  0.83781000  0.74501000  0.45537000  1
  N  N435  1  0.12412000  0.74943000  0.31780000  1
  N  N436  1  0.77124000  0.29907000  0.18581000  1
  N  N437  1  0.93961000  0.44978000  0.04683000  1
  N  N438  1  0.95714000  0.94256000  0.04372000  1
  N  N439  1  0.73865000  0.81436000  0.18283000  1
  N  N440  1  0.83351000  0.73705000  0.81482000  1
  N  N441  1  0.92271000  0.76553000  0.95045000  1
  N  N442  1  0.03774000  0.75488000  0.04417000  1
  N  N443  1  0.19075000  0.75062000  0.18190000  1
  N  N444  1  0.25557000  0.20125000  0.31463000  1
  N  N445  1  0.43594000  0.05011000  0.45322000  1
  N  N446  1  0.94320000  0.55761000  0.45654000  1
  N  N447  1  0.73549000  0.68569000  0.31767000  1
  N  N448  1  0.61335000  0.23742000  0.31566000  1
  N  N449  1  0.36020000  0.26555000  0.45112000  1
  N  N450  1  0.16220000  0.25499000  0.54463000  1
  N  N451  1  0.87590000  0.25056000  0.68219000  1
  N  N452  1  0.22877000  0.70093000  0.81419000  1
  N  N453  1  0.06039000  0.55022000  0.95317000  1
  N  N454  1  0.04286000  0.05744000  0.95628000  1
  N  N455  1  0.26136000  0.18564000  0.81717000  1
  N  N456  1  0.16650000  0.26295000  0.18518000  1
  N  N457  1  0.07730000  0.23447000  0.04955000  1
  N  N458  1  0.96226000  0.24512000  0.95583000  1
  N  N459  1  0.80926000  0.24938000  0.81810000  1
  N  N460  1  0.74443000  0.79875000  0.68537000  1
  N  N461  1  0.56406000  0.94989000  0.54678000  1
  N  N462  1  0.05680000  0.44239000  0.54346000  1
  N  N463  1  0.26452000  0.31431000  0.68233000  1
  O  O464  1  0.33581000  0.82808000  0.20546000  1
  O  O465  1  0.14654000  0.88932000  0.19343000  1
  O  O466  1  0.42778000  0.15789000  0.97685000  1
  O  O467  1  0.63215000  0.08385000  0.97979000  1
  O  O468  1  0.80450000  0.15813000  0.18259000  1
  O  O469  1  0.61152000  0.20130000  0.20548000  1
  O  O470  1  0.72753000  0.09620000  0.31676000  1
  O  O471  1  0.86656000  0.16057000  0.29453000  1
  O  O472  1  0.19935000  0.90268000  0.52369000  1
  O  O473  1  0.06405000  0.83017000  0.52487000  1
  O  O474  1  0.50142000  0.78252000  0.29723000  1
  O  O475  1  0.63563000  0.83345000  0.30759000  1
  O  O476  1  0.36745000  0.67207000  0.29406000  1
  O  O477  1  0.22739000  0.61067000  0.30604000  1
  O  O478  1  0.56198000  0.34408000  0.52364000  1
  O  O479  1  0.69561000  0.41925000  0.51862000  1
  O  O480  1  0.14317000  0.33890000  0.31837000  1
  O  O481  1  0.01408000  0.29755000  0.29489000  1
  O  O482  1  0.13871000  0.40550000  0.18270000  1
  O  O483  1  0.31976000  0.34133000  0.20555000  1
  O  O484  1  0.62709000  0.59693000  0.97675000  1
  O  O485  1  0.42169000  0.67023000  0.97388000  1
  O  O486  1  0.58225000  0.71696000  0.20312000  1
  O  O487  1  0.77744000  0.66596000  0.19288000  1
  O  O488  1  0.66420000  0.17192000  0.79454000  1
  O  O489  1  0.85348000  0.11067000  0.80657000  1
  O  O490  1  0.57222000  0.84211000  0.02315000  1
  O  O491  1  0.36786000  0.91615000  0.02021000  1
  O  O492  1  0.19550000  0.84187000  0.81741000  1
  O  O493  1  0.38848000  0.79870000  0.79452000  1
  O  O494  1  0.27248000  0.90380000  0.68323000  1
  O  O495  1  0.13344000  0.83943000  0.70547000  1
  O  O496  1  0.80067000  0.09731000  0.47631000  1
  O  O497  1  0.93595000  0.16983000  0.47513000  1
  O  O498  1  0.49858000  0.21748000  0.70277000  1
  O  O499  1  0.36438000  0.16655000  0.69241000  1
  O  O500  1  0.63257000  0.32792000  0.70594000  1
  O  O501  1  0.77262000  0.38933000  0.69396000  1
  O  O502  1  0.43804000  0.65591000  0.47636000  1
  O  O503  1  0.30440000  0.58075000  0.48138000  1
  O  O504  1  0.85684000  0.66109000  0.68163000  1
  O  O505  1  0.98592000  0.70245000  0.70511000  1
  O  O506  1  0.86129000  0.59450000  0.81730000  1
  O  O507  1  0.68026000  0.65867000  0.79444000  1
  O  O508  1  0.37291000  0.40307000  0.02325000  1
  O  O509  1  0.57832000  0.32977000  0.02612000  1
  O  O510  1  0.41776000  0.28304000  0.79688000  1
  O  O511  1  0.22257000  0.33404000  0.80712000  1
