# generated using pymatgen
data_Ni2H19C30O7
_symmetry_space_group_name_H-M   'P 1'
_cell_length_a   16.71566000
_cell_length_b   18.25331000
_cell_length_c   40.11957000
_cell_angle_alpha   91.08871000
_cell_angle_beta   90.49237000
_cell_angle_gamma   111.02376000
_symmetry_Int_Tables_number   1
_chemical_formula_structural   Ni2H19C30O7
_chemical_formula_sum   'Ni24 H228 C360 O84'
_cell_volume   11422.63687864
_cell_formula_units_Z   12
loop_
 _symmetry_equiv_pos_site_id
 _symmetry_equiv_pos_as_xyz
  1  'x, y, z'
loop_
 _atom_site_type_symbol
 _atom_site_label
 _atom_site_symmetry_multiplicity
 _atom_site_fract_x
 _atom_site_fract_y
 _atom_site_fract_z
 _atom_site_occupancy
  Ni  Ni0  1  0.62360000  0.24914000  0.11400000  1
  Ni  Ni1  1  0.66526000  0.42961000  0.11407000  1
  Ni  Ni2  1  0.78234000  0.37880000  0.16416000  1
  Ni  Ni3  1  0.48228000  0.30385000  0.07862000  1
  Ni  Ni4  1  0.62714000  0.48292000  0.45053000  1
  Ni  Ni5  1  0.65028000  0.31999000  0.44369000  1
  Ni  Ni6  1  0.47852000  0.31989000  0.47928000  1
  Ni  Ni7  1  0.77144000  0.48074000  0.39900000  1
  Ni  Ni8  1  0.99810000  0.04990000  0.33374000  1
  Ni  Ni9  1  0.01168000  0.99002000  0.26166000  1
  Ni  Ni10  1  0.83348000  0.90962000  0.29649000  1
  Ni  Ni11  1  0.14421000  0.17665000  0.29130000  1
  Ni  Ni12  1  0.26375000  0.85203000  0.61834000  1
  Ni  Ni13  1  0.18925000  0.66956000  0.61726000  1
  Ni  Ni14  1  0.06762000  0.75184000  0.64629000  1
  Ni  Ni15  1  0.36096000  0.77441000  0.56841000  1
  Ni  Ni16  1  0.17793000  0.68206000  0.93902000  1
  Ni  Ni17  1  0.37857000  0.74080000  0.93387000  1
  Ni  Ni18  1  0.29185000  0.85518000  0.90511000  1
  Ni  Ni19  1  0.26647000  0.59032000  0.98524000  1
  Ni  Ni20  1  0.96090000  0.09671000  0.80173000  1
  Ni  Ni21  1  0.88654000  0.13374000  0.73539000  1
  Ni  Ni22  1  0.04039000  0.27194000  0.76796000  1
  Ni  Ni23  1  0.84622000  0.94379000  0.75777000  1
  H  H24  1  0.62502000  0.34257000  0.16316000  1
  H  H25  1  0.63196000  0.33129000  0.06411000  1
  H  H26  1  0.62877000  0.38655000  0.49659000  1
  H  H27  1  0.61664000  0.40220000  0.39804000  1
  H  H28  1  0.97837000  0.90899000  0.31299000  1
  H  H29  1  0.99197000  0.11770000  0.28142000  1
  H  H30  1  0.20931000  0.75844000  0.66770000  1
  H  H31  1  0.21136000  0.76379000  0.56848000  1
  H  H32  1  0.27253000  0.71992000  0.88635000  1
  H  H33  1  0.28594000  0.72953000  0.98547000  1
  H  H34  1  0.89405000  0.20269000  0.79111000  1
  H  H35  1  0.98196000  0.04675000  0.74430000  1
  H  H36  1  0.70356000  0.07964000  0.85442000  1
  H  H37  1  0.52405000  0.79798000  0.83607000  1
  H  H38  1  0.42655000  0.14443000  0.87124000  1
  H  H39  1  0.45769000  0.17601000  0.93161000  1
  H  H40  1  0.55067000  0.12052000  0.96222000  1
  H  H41  1  0.61200000  0.03208000  0.93331000  1
  H  H42  1  0.48851000  0.05781000  0.84182000  1
  H  H43  1  0.72981000  0.80437000  0.81372000  1
  H  H44  1  0.74568000  0.72887000  0.76395000  1
  H  H45  1  0.54160000  0.86998000  0.76119000  1
  H  H46  1  0.55295000  0.78969000  0.71242000  1
  H  H47  1  0.65807000  0.72241000  0.71298000  1
  H  H48  1  0.98487000  0.34506000  0.84353000  1
  H  H49  1  0.22756000  0.40089000  0.92431000  1
  H  H50  1  0.87000000  0.53131000  0.92415000  1
  H  H51  1  0.87260000  0.60757000  0.87342000  1
  H  H52  1  0.96462000  0.60145000  0.82616000  1
  H  H53  1  0.05651000  0.52129000  0.82983000  1
  H  H54  1  0.95851000  0.44824000  0.92758000  1
  H  H55  1  0.06429000  0.16901000  0.91121000  1
  H  H56  1  0.13034000  0.07062000  0.92331000  1
  H  H57  1  0.31110000  0.33264000  0.88287000  1
  H  H58  1  0.37711000  0.23648000  0.89781000  1
  H  H59  1  0.28677000  0.10420000  0.91689000  1
  H  H60  1  0.07587000  0.88730000  0.79914000  1
  H  H61  1  0.94228000  0.77041000  0.90514000  1
  H  H62  1  0.37912000  0.92113000  0.82938000  1
  H  H63  1  0.38362000  0.79418000  0.80832000  1
  H  H64  1  0.24904000  0.67881000  0.80114000  1
  H  H65  1  0.10987000  0.69011000  0.81487000  1
  H  H66  1  0.24055000  0.93283000  0.84398000  1
  H  H67  1  0.93792000  0.98079000  0.89074000  1
  H  H68  1  0.81548000  0.00875000  0.91456000  1
  H  H69  1  0.77204000  0.74159000  0.86966000  1
  H  H70  1  0.65065000  0.77009000  0.89424000  1
  H  H71  1  0.67253000  0.90313000  0.91711000  1
  H  H72  1  0.91411000  0.30780000  0.65111000  1
  H  H73  1  0.95498000  0.55382000  0.71561000  1
  H  H74  1  0.15214000  0.40839000  0.56953000  1
  H  H75  1  0.07008000  0.44200000  0.52445000  1
  H  H76  1  0.94004000  0.47163000  0.53772000  1
  H  H77  1  0.89223000  0.46821000  0.59611000  1
  H  H78  1  0.10555000  0.40533000  0.62809000  1
  H  H79  1  0.75252000  0.44734000  0.72292000  1
  H  H80  1  0.67013000  0.43702000  0.77471000  1
  H  H81  1  0.94911000  0.39797000  0.77820000  1
  H  H82  1  0.86310000  0.38287000  0.82929000  1
  H  H83  1  0.72507000  0.40435000  0.82782000  1
  H  H84  1  0.47984000  0.96195000  0.68188000  1
  H  H85  1  0.72263000  0.87684000  0.65357000  1
  H  H86  1  0.64894000  0.12977000  0.78870000  1
  H  H87  1  0.67772000  0.25367000  0.75852000  1
  H  H88  1  0.67442000  0.25221000  0.69670000  1
  H  H89  1  0.64480000  0.12733000  0.66491000  1
  H  H90  1  0.61565000  0.00443000  0.75723000  1
  H  H91  1  0.62120000  0.88014000  0.57898000  1
  H  H92  1  0.62828000  0.78239000  0.53663000  1
  H  H93  1  0.55012000  0.70056000  0.65287000  1
  H  H94  1  0.56181000  0.60436000  0.61058000  1
  H  H95  1  0.59957000  0.64480000  0.55246000  1
  H  H96  1  0.06744000  0.99639000  0.62730000  1
  H  H97  1  0.20065000  0.13489000  0.73284000  1
  H  H98  1  0.80168000  0.02071000  0.61214000  1
  H  H99  1  0.83927000  0.15266000  0.58802000  1
  H  H100  1  0.98226000  0.25433000  0.59946000  1
  H  H101  1  0.08689000  0.22583000  0.63600000  1
  H  H102  1  0.90692000  0.99000000  0.64750000  1
  H  H103  1  0.17102000  0.90878000  0.73132000  1
  H  H104  1  0.28422000  0.86822000  0.75595000  1
  H  H105  1  0.36309000  0.12847000  0.70382000  1
  H  H106  1  0.47386000  0.09111000  0.73237000  1
  H  H107  1  0.43529000  0.96038000  0.75789000  1
  H  H108  1  0.08705000  0.65148000  0.51681000  1
  H  H109  1  0.78405000  0.63517000  0.52076000  1
  H  H110  1  0.06766000  0.69522000  0.38349000  1
  H  H111  1  0.13916000  0.59754000  0.38031000  1
  H  H112  1  0.12670000  0.50702000  0.42690000  1
  H  H113  1  0.03868000  0.51039000  0.47571000  1
  H  H114  1  0.98591000  0.70423000  0.43358000  1
  H  H115  1  0.87996000  0.80528000  0.55675000  1
  H  H116  1  0.81564000  0.84715000  0.60549000  1
  H  H117  1  0.84863000  0.58738000  0.60459000  1
  H  H118  1  0.78503000  0.63025000  0.65326000  1
  H  H119  1  0.76825000  0.75979000  0.65374000  1
  H  H120  1  0.49585000  0.20989000  0.55015000  1
  H  H121  1  0.50739000  0.94869000  0.52160000  1
  H  H122  1  0.32165000  0.19525000  0.64015000  1
  H  H123  1  0.18194000  0.15789000  0.61016000  1
  H  H124  1  0.15228000  0.06972000  0.56032000  1
  H  H125  1  0.26833000  0.03289000  0.53591000  1
  H  H126  1  0.43838000  0.15850000  0.61623000  1
  H  H127  1  0.72925000  0.14467000  0.51975000  1
  H  H128  1  0.84212000  0.14422000  0.48032000  1
  H  H129  1  0.53738000  0.98653000  0.45349000  1
  H  H130  1  0.65158000  0.98259000  0.41543000  1
  H  H131  1  0.80358000  0.06341000  0.42822000  1
  H  H132  1  0.33333333  0.64049000  0.52258000  1
  H  H133  1  0.44848000  0.43796000  0.55822000  1
  H  H134  1  0.32259000  0.62125000  0.40402000  1
  H  H135  1  0.46855000  0.71174000  0.39039000  1
  H  H136  1  0.58764000  0.73778000  0.43146000  1
  H  H137  1  0.56115000  0.67442000  0.48634000  1
  H  H138  1  0.29685000  0.55130000  0.45737000  1
  H  H139  1  0.27670000  0.35447000  0.58227000  1
  H  H140  1  0.23665000  0.28885000  0.63622000  1
  H  H141  1  0.41581000  0.57183000  0.63500000  1
  H  H142  1  0.37367000  0.50548000  0.68857000  1
  H  H143  1  0.28340000  0.36411000  0.68928000  1
  H  H144  1  0.97593000  0.41139000  0.40103000  1
  H  H145  1  0.87767000  0.15678000  0.33832000  1
  H  H146  1  0.29888000  0.42725000  0.40646000  1
  H  H147  1  0.34156000  0.51844000  0.35936000  1
  H  H148  1  0.23137000  0.52809000  0.31973000  1
  H  H149  1  0.07928000  0.44265000  0.32567000  1
  H  H150  1  0.14685000  0.34049000  0.41233000  1
  H  H151  1  0.74063000  0.08681000  0.37476000  1
  H  H152  1  0.59575000  0.01497000  0.35143000  1
  H  H153  1  0.73567000  0.30058000  0.33267000  1
  H  H154  1  0.59219000  0.22702000  0.30808000  1
  H  H155  1  0.52358000  0.08398000  0.31670000  1
  H  H156  1  0.85473000  0.81429000  0.33053000  1
  H  H157  1  0.74871000  0.73313000  0.44412000  1
  H  H158  1  0.70889000  0.57939000  0.26148000  1
  H  H159  1  0.81581000  0.51482000  0.26693000  1
  H  H160  1  0.91331000  0.54385000  0.31634000  1
  H  H161  1  0.90430000  0.63753000  0.36029000  1
  H  H162  1  0.69778000  0.67178000  0.30560000  1
  H  H163  1  0.70021000  0.85631000  0.45646000  1
  H  H164  1  0.73700000  0.93318000  0.50945000  1
  H  H165  1  0.96900000  0.93001000  0.43369000  1
  H  H166  1  0.00405000  0.01185000  0.48543000  1
  H  H167  1  0.88856000  0.01178000  0.52380000  1
  H  H168  1  0.18566000  0.08072000  0.41258000  1
  H  H169  1  0.46788000  0.16796000  0.35798000  1
  H  H170  1  0.23508000  0.35588000  0.46344000  1
  H  H171  1  0.26140000  0.32109000  0.52078000  1
  H  H172  1  0.31206000  0.21108000  0.52979000  1
  H  H173  1  0.32640000  0.12914000  0.48179000  1
  H  H174  1  0.26034000  0.28105000  0.41495000  1
  H  H175  1  0.29070000  0.94321000  0.33399000  1
  H  H176  1  0.31173000  0.89201000  0.27847000  1
  H  H177  1  0.39572000  0.17937000  0.29790000  1
  H  H178  1  0.41753000  0.12717000  0.24278000  1
  H  H179  1  0.37419000  0.98342000  0.23288000  1
  H  H180  1  0.34241000  0.07902000  0.04080000  1
  H  H181  1  0.53779000  0.95487000  0.99312000  1
  H  H182  1  0.08674000  0.96113000  0.96521000  1
  H  H183  1  0.01068000  0.84157000  0.99699000  1
  H  H184  1  0.09149000  0.79007000  0.03649000  1
  H  H185  1  0.24858000  0.85486000  0.04279000  1
  H  H186  1  0.24374000  0.02844000  0.97230000  1
  H  H187  1  0.64970000  0.18268000  0.00425000  1
  H  H188  1  0.80223000  0.23832000  0.02173000  1
  H  H189  1  0.61473000  0.98169000  0.06513000  1
  H  H190  1  0.76723000  0.03896000  0.08295000  1
  H  H191  1  0.86081000  0.16729000  0.06147000  1
  H  H192  1  0.93675000  0.38496000  0.06611000  1
  H  H193  1  0.99476000  0.65729000  0.02926000  1
  H  H194  1  0.99327000  0.28252000  0.95158000  1
  H  H195  1  0.13174000  0.27610000  0.97110000  1
  H  H196  1  0.21269000  0.36308000  0.01767000  1
  H  H197  1  0.15462000  0.45528000  0.04539000  1
  H  H198  1  0.93358000  0.37330000  0.97957000  1
  H  H199  1  0.79424000  0.61093000  0.05485000  1
  H  H200  1  0.75755000  0.71402000  0.08483000  1
  H  H201  1  0.01130000  0.65352000  0.12109000  1
  H  H202  1  0.97457000  0.75725000  0.15065000  1
  H  H203  1  0.84902000  0.78874000  0.13214000  1
  H  H204  1  0.47967000  0.57711000  0.07533000  1
  H  H205  1  0.55842000  0.55812000  0.95719000  1
  H  H206  1  0.24808000  0.65736000  0.07877000  1
  H  H207  1  0.32379000  0.80138000  0.08083000  1
  H  H208  1  0.46300000  0.86076000  0.05272000  1
  H  H209  1  0.53053000  0.77586000  0.02503000  1
  H  H210  1  0.31427000  0.57158000  0.05095000  1
  H  H211  1  0.50875000  0.36528000  0.99503000  1
  H  H212  1  0.59445000  0.28208000  0.98332000  1
  H  H213  1  0.74030000  0.57030000  0.99856000  1
  H  H214  1  0.82574000  0.48589000  0.98864000  1
  H  H215  1  0.75304000  0.34187000  0.98109000  1
  H  H216  1  0.96107000  0.16338000  0.21758000  1
  H  H217  1  0.65240000  0.10247000  0.19263000  1
  H  H218  1  0.03028000  0.23877000  0.08933000  1
  H  H219  1  0.10012000  0.38002000  0.10443000  1
  H  H220  1  0.06644000  0.43205000  0.15790000  1
  H  H221  1  0.96116000  0.34364000  0.19593000  1
  H  H222  1  0.92593000  0.14937000  0.12739000  1
  H  H223  1  0.71371000  0.91666000  0.20476000  1
  H  H224  1  0.60055000  0.80020000  0.22723000  1
  H  H225  1  0.62263000  0.06733000  0.26515000  1
  H  H226  1  0.51016000  0.95031000  0.28771000  1
  H  H227  1  0.49874000  0.81689000  0.26866000  1
  H  H228  1  0.75243000  0.77681000  0.20191000  1
  H  H229  1  0.91110000  0.59341000  0.20759000  1
  H  H230  1  0.53910000  0.68605000  0.11891000  1
  H  H231  1  0.42777000  0.56705000  0.14072000  1
  H  H232  1  0.46441000  0.49282000  0.18577000  1
  H  H233  1  0.61212000  0.53696000  0.20901000  1
  H  H234  1  0.68761000  0.72939000  0.14105000  1
  H  H235  1  0.93196000  0.73989000  0.28916000  1
  H  H236  1  0.06339000  0.76449000  0.32318000  1
  H  H237  1  0.06901000  0.72176000  0.20074000  1
  H  H238  1  0.20081000  0.74856000  0.23502000  1
  H  H239  1  0.19750000  0.76771000  0.29629000  1
  H  H240  1  0.24647000  0.01456000  0.19132000  1
  H  H241  1  0.37062000  0.30504000  0.18223000  1
  H  H242  1  0.36448000  0.94401000  0.08374000  1
  H  H243  1  0.48442000  0.91925000  0.11200000  1
  H  H244  1  0.53921000  0.98263000  0.16689000  1
  H  H245  1  0.47704000  0.07366000  0.19294000  1
  H  H246  1  0.30131000  0.03468000  0.10946000  1
  H  H247  1  0.35472000  0.30723000  0.25628000  1
  H  H248  1  0.29977000  0.39635000  0.28811000  1
  H  H249  1  0.11880000  0.22114000  0.19878000  1
  H  H250  1  0.06296000  0.30700000  0.23237000  1
  H  H251  1  0.15518000  0.39823000  0.27523000  1
  C  C252  1  0.84621000  0.45686000  0.09887000  1
  C  C253  1  0.75358000  0.21146000  0.15201000  1
  C  C254  1  0.76389000  0.53343000  0.17211000  1
  C  C255  1  0.45321000  0.23302000  0.14433000  1
  C  C256  1  0.56002000  0.47620000  0.06606000  1
  C  C257  1  0.50467000  0.14995000  0.06332000  1
  C  C258  1  0.47165000  0.25430000  0.41314000  1
  C  C259  1  0.48960000  0.48324000  0.49569000  1
  C  C260  1  0.55959000  0.20056000  0.49009000  1
  C  C261  1  0.81446000  0.55792000  0.46741000  1
  C  C262  1  0.80591000  0.33455000  0.40625000  1
  C  C263  1  0.70757000  0.60946000  0.40080000  1
  C  C264  1  0.86039000  0.03437000  0.24748000  1
  C  C265  1  0.85804000  0.93627000  0.36932000  1
  C  C266  1  0.89581000  0.83583000  0.23919000  1
  C  C267  1  0.18437000  0.08515000  0.34510000  1
  C  C268  1  0.17676000  0.08891000  0.23365000  1
  C  C269  1  0.04758000  0.21969000  0.34557000  1
  C  C270  1  0.04327000  0.68606000  0.57769000  1
  C  C271  1  0.16493000  0.92799000  0.65696000  1
  C  C272  1  0.04394000  0.57980000  0.65821000  1
  C  C273  1  0.43919000  0.85101000  0.63288000  1
  C  C274  1  0.31248000  0.61007000  0.58710000  1
  C  C275  1  0.37540000  0.93910000  0.56207000  1
  C  C276  1  0.37421000  0.88401000  0.97131000  1
  C  C277  1  0.10286000  0.77272000  0.89747000  1
  C  C278  1  0.47012000  0.86270000  0.88727000  1
  C  C279  1  0.16621000  0.51747000  0.92326000  1
  C  C280  1  0.44462000  0.63016000  0.96541000  1
  C  C281  1  0.09415000  0.58950000  0.99954000  1
  C  C282  1  0.06425000  0.17171000  0.71305000  1
  C  C283  1  0.06406000  0.24049000  0.83905000  1
  C  C284  1  0.91627000  0.29616000  0.71829000  1
  C  C285  1  0.76672000  0.01098000  0.80700000  1
  C  C286  1  0.76586000  0.99167000  0.70005000  1
  C  C287  1  0.94955000  0.93659000  0.81747000  1
  C  C288  1  0.54013000  0.90381000  0.86438000  1
  C  C289  1  0.58857000  0.98519000  0.86814000  1
  C  C290  1  0.66471000  0.01808000  0.85048000  1
  C  C291  1  0.68732000  0.97384000  0.82596000  1
  C  C292  1  0.63232000  0.89478000  0.81927000  1
  C  C293  1  0.56257000  0.85967000  0.83984000  1
  C  C294  1  0.64232000  0.84997000  0.78949000  1
  C  C295  1  0.69546000  0.80559000  0.79094000  1
  C  C296  1  0.70269000  0.76123000  0.76310000  1
  C  C297  1  0.65291000  0.75717000  0.73445000  1
  C  C298  1  0.59471000  0.79621000  0.73389000  1
  C  C299  1  0.58913000  0.84238000  0.76133000  1
  C  C300  1  0.55353000  0.03826000  0.88567000  1
  C  C301  1  0.50184000  0.07087000  0.86819000  1
  C  C302  1  0.46699000  0.12006000  0.88477000  1
  C  C303  1  0.48454000  0.13780000  0.91873000  1
  C  C304  1  0.53711000  0.10642000  0.93608000  1
  C  C305  1  0.57183000  0.05675000  0.91965000  1
  C  C306  1  0.13645000  0.44510000  0.90211000  1
  C  C307  1  0.06432000  0.42729000  0.88048000  1
  C  C308  1  0.03697000  0.35680000  0.86151000  1
  C  C309  1  0.07792000  0.30228000  0.86502000  1
  C  C310  1  0.14440000  0.31688000  0.88893000  1
  C  C311  1  0.17486000  0.38903000  0.90655000  1
  C  C312  1  0.18296000  0.25722000  0.89562000  1
  C  C313  1  0.13227000  0.18327000  0.90744000  1
  C  C314  1  0.16963000  0.12794000  0.91468000  1
  C  C315  1  0.25782000  0.14686000  0.91102000  1
  C  C316  1  0.30867000  0.22100000  0.89991000  1
  C  C317  1  0.27131000  0.27565000  0.89178000  1
  C  C318  1  0.01388000  0.47923000  0.87900000  1
  C  C319  1  0.96080000  0.48214000  0.90554000  1
  C  C320  1  0.91050000  0.52883000  0.90358000  1
  C  C321  1  0.91206000  0.57192000  0.87500000  1
  C  C322  1  0.96463000  0.56907000  0.84847000  1
  C  C323  1  0.01613000  0.52342000  0.85053000  1
  C  C324  1  0.04748000  0.78718000  0.87185000  1
  C  C325  1  0.08328000  0.81761000  0.84103000  1
  C  C326  1  0.04639000  0.86156000  0.82220000  1
  C  C327  1  0.97578000  0.87752000  0.83422000  1
  C  C328  1  0.93609000  0.84230000  0.86384000  1
  C  C329  1  0.97046000  0.79469000  0.88169000  1
  C  C330  1  0.86293000  0.85968000  0.87779000  1
  C  C331  1  0.87514000  0.93483000  0.89102000  1
  C  C332  1  0.80623000  0.95056000  0.90477000  1
  C  C333  1  0.72554000  0.89105000  0.90613000  1
  C  C334  1  0.71331000  0.81595000  0.89335000  1
  C  C335  1  0.78193000  0.79999000  0.87943000  1
  C  C336  1  0.16557000  0.81211000  0.83049000  1
  C  C337  1  0.24196000  0.87738000  0.83444000  1
  C  C338  1  0.32042000  0.87065000  0.82661000  1
  C  C339  1  0.32297000  0.79903000  0.81474000  1
  C  C340  1  0.24700000  0.73412000  0.81048000  1
  C  C341  1  0.16836000  0.74056000  0.81826000  1
  C  C342  1  0.98553000  0.50389000  0.67041000  1
  C  C343  1  0.96715000  0.43424000  0.65095000  1
  C  C344  1  0.92274000  0.36151000  0.66514000  1
  C  C345  1  0.90191000  0.35775000  0.69899000  1
  C  C346  1  0.90400000  0.42692000  0.71578000  1
  C  C347  1  0.94816000  0.50020000  0.70180000  1
  C  C348  1  0.85611000  0.42261000  0.74689000  1
  C  C349  1  0.77752000  0.43418000  0.74614000  1
  C  C350  1  0.73073000  0.42808000  0.77535000  1
  C  C351  1  0.76165000  0.40960000  0.80529000  1
  C  C352  1  0.83971000  0.39773000  0.80614000  1
  C  C353  1  0.88778000  0.40557000  0.77716000  1
  C  C354  1  0.99575000  0.43676000  0.61610000  1
  C  C355  1  0.06920000  0.41985000  0.60847000  1
  C  C356  1  0.09559000  0.42146000  0.57542000  1
  C  C357  1  0.04928000  0.44047000  0.54997000  1
  C  C358  1  0.97597000  0.45717000  0.55746000  1
  C  C359  1  0.94908000  0.45527000  0.59046000  1
  C  C360  1  0.68251000  0.95753000  0.68252000  1
  C  C361  1  0.61408000  0.98305000  0.68995000  1
  C  C362  1  0.53200000  0.94174000  0.67640000  1
  C  C363  1  0.51900000  0.87939000  0.65333000  1
  C  C364  1  0.58932000  0.85670000  0.64481000  1
  C  C365  1  0.66946000  0.89489000  0.65998000  1
  C  C366  1  0.58173000  0.79638000  0.61858000  1
  C  C367  1  0.60549000  0.81946000  0.58579000  1
  C  C368  1  0.61035000  0.76448000  0.56190000  1
  C  C369  1  0.59412000  0.68691000  0.57081000  1
  C  C370  1  0.57230000  0.66400000  0.60356000  1
  C  C371  1  0.56547000  0.71839000  0.62740000  1
  C  C372  1  0.62956000  0.05728000  0.70892000  1
  C  C373  1  0.62988000  0.05827000  0.74390000  1
  C  C374  1  0.64794000  0.12911000  0.76171000  1
  C  C375  1  0.66381000  0.19893000  0.74470000  1
  C  C376  1  0.66176000  0.19804000  0.70983000  1
  C  C377  1  0.64504000  0.12745000  0.69192000  1
  C  C378  1  0.10501000  0.12336000  0.69439000  1
  C  C379  1  0.06967000  0.08542000  0.66346000  1
  C  C380  1  0.09460000  0.02517000  0.65085000  1
  C  C381  1  0.15290000  0.00067000  0.66833000  1
  C  C382  1  0.19356000  0.04223000  0.69753000  1
  C  C383  1  0.17066000  0.10437000  0.70998000  1
  C  C384  1  0.25949000  0.02097000  0.71539000  1
  C  C385  1  0.23720000  0.94847000  0.73116000  1
  C  C386  1  0.30089000  0.92595000  0.74562000  1
  C  C387  1  0.38619000  0.97751000  0.74627000  1
  C  C388  1  0.40813000  0.05098000  0.73168000  1
  C  C389  1  0.34522000  0.07235000  0.71587000  1
  C  C390  1  0.00446000  0.10587000  0.64431000  1
  C  C391  1  0.92351000  0.04811000  0.63739000  1
  C  C392  1  0.86405000  0.06524000  0.61730000  1
  C  C393  1  0.88521000  0.13962000  0.60372000  1
  C  C394  1  0.96581000  0.19710000  0.61026000  1
  C  C395  1  0.02522000  0.18064000  0.63068000  1
  C  C396  1  0.87884000  0.60867000  0.49170000  1
  C  C397  1  0.96680000  0.61896000  0.48967000  1
  C  C398  1  0.02048000  0.64656000  0.51783000  1
  C  C399  1  0.98890000  0.66786000  0.54726000  1
  C  C400  1  0.90400000  0.66700000  0.54776000  1
  C  C401  1  0.84998000  0.63803000  0.51991000  1
  C  C402  1  0.86993000  0.69391000  0.57756000  1
  C  C403  1  0.85998000  0.76712000  0.57786000  1
  C  C404  1  0.82353000  0.79081000  0.60535000  1
  C  C405  1  0.79670000  0.74153000  0.63253000  1
  C  C406  1  0.80610000  0.66843000  0.63225000  1
  C  C407  1  0.84228000  0.64439000  0.60478000  1
  C  C408  1  0.00512000  0.60683000  0.45790000  1
  C  C409  1  0.01439000  0.65952000  0.43184000  1
  C  C410  1  0.06132000  0.65508000  0.40367000  1
  C  C411  1  0.10157000  0.59995000  0.40185000  1
  C  C412  1  0.09411000  0.54857000  0.42802000  1
  C  C413  1  0.04445000  0.55067000  0.45563000  1
  C  C414  1  0.43649000  0.01065000  0.54738000  1
  C  C415  1  0.43527000  0.08561000  0.55627000  1
  C  C416  1  0.49774000  0.15250000  0.54374000  1
  C  C417  1  0.54823000  0.14529000  0.51720000  1
  C  C418  1  0.55724000  0.07240000  0.51109000  1
  C  C419  1  0.50113000  0.00508000  0.52631000  1
  C  C420  1  0.62532000  0.06647000  0.48912000  1
  C  C421  1  0.71182000  0.10983000  0.49685000  1
  C  C422  1  0.77564000  0.10992000  0.47454000  1
  C  C423  1  0.75383000  0.06470000  0.44507000  1
  C  C424  1  0.66813000  0.01905000  0.43788000  1
  C  C425  1  0.60381000  0.02045000  0.45965000  1
  C  C426  1  0.36197000  0.09451000  0.57403000  1
  C  C427  1  0.37598000  0.13866000  0.60399000  1
  C  C428  1  0.31037000  0.15999000  0.61738000  1
  C  C429  1  0.23089000  0.13748000  0.60093000  1
  C  C430  1  0.21462000  0.08861000  0.57253000  1
  C  C431  1  0.28001000  0.06723000  0.55897000  1
  C  C432  1  0.44472000  0.51653000  0.51922000  1
  C  C433  1  0.41001000  0.57236000  0.50875000  1
  C  C434  1  0.35784000  0.59571000  0.53025000  1
  C  C435  1  0.34204000  0.56619000  0.56244000  1
  C  C436  1  0.37310000  0.50749000  0.57243000  1
  C  C437  1  0.42478000  0.48337000  0.55075000  1
  C  C438  1  0.34832000  0.46815000  0.60477000  1
  C  C439  1  0.29796000  0.38787000  0.60535000  1
  C  C440  1  0.27487000  0.35064000  0.63581000  1
  C  C441  1  0.30172000  0.39308000  0.66575000  1
  C  C442  1  0.35260000  0.47274000  0.66535000  1
  C  C443  1  0.37648000  0.51018000  0.63499000  1
  C  C444  1  0.42766000  0.60683000  0.47532000  1
  C  C445  1  0.36054000  0.59176000  0.45183000  1
  C  C446  1  0.37512000  0.63060000  0.42153000  1
  C  C447  1  0.45719000  0.68244000  0.41403000  1
  C  C448  1  0.52435000  0.69724000  0.43722000  1
  C  C449  1  0.50947000  0.66063000  0.46805000  1
  C  C450  1  0.98621000  0.25570000  0.35584000  1
  C  C451  1  0.01364000  0.33041000  0.37138000  1
  C  C452  1  0.95405000  0.35551000  0.38767000  1
  C  C453  1  0.86628000  0.30893000  0.38660000  1
  C  C454  1  0.83800000  0.23942000  0.36641000  1
  C  C455  1  0.89869000  0.21190000  0.35244000  1
  C  C456  1  0.74675000  0.19945000  0.35673000  1
  C  C457  1  0.70679000  0.11853000  0.36176000  1
  C  C458  1  0.62577000  0.07751000  0.34787000  1
  C  C459  1  0.58495000  0.11646000  0.32832000  1
  C  C460  1  0.62404000  0.19702000  0.32328000  1
  C  C461  1  0.70471000  0.23862000  0.33747000  1
  C  C462  1  0.10328000  0.38443000  0.36896000  1
  C  C463  1  0.16525000  0.38094000  0.39198000  1
  C  C464  1  0.25101000  0.42968000  0.38863000  1
  C  C465  1  0.27500000  0.48165000  0.36223000  1
  C  C466  1  0.21290000  0.48698000  0.33985000  1
  C  C467  1  0.12706000  0.43869000  0.34324000  1
  C  C468  1  0.75741000  0.69351000  0.39363000  1
  C  C469  1  0.79490000  0.71707000  0.36213000  1
  C  C470  1  0.83258000  0.79696000  0.35542000  1
  C  C471  1  0.83851000  0.85454000  0.37997000  1
  C  C472  1  0.81154000  0.83118000  0.41267000  1
  C  C473  1  0.76988000  0.75090000  0.41908000  1
  C  C474  1  0.83189000  0.88882000  0.44092000  1
  C  C475  1  0.76666000  0.89003000  0.46260000  1
  C  C476  1  0.78736000  0.93321000  0.49265000  1
  C  C477  1  0.87279000  0.97757000  0.50073000  1
  C  C478  1  0.93786000  0.97788000  0.47902000  1
  C  C479  1  0.91778000  0.93280000  0.44942000  1
  C  C480  1  0.79889000  0.65953000  0.33638000  1
  C  C481  1  0.74441000  0.64353000  0.30821000  1
  C  C482  1  0.75062000  0.59137000  0.28325000  1
  C  C483  1  0.81105000  0.55506000  0.28631000  1
  C  C484  1  0.86600000  0.57140000  0.31417000  1
  C  C485  1  0.86087000  0.62435000  0.33897000  1
  C  C486  1  0.39722000  0.18741000  0.39960000  1
  C  C487  1  0.31687000  0.15986000  0.41600000  1
  C  C488  1  0.24772000  0.09963000  0.40077000  1
  C  C489  1  0.25226000  0.08014000  0.36713000  1
  C  C490  1  0.33394000  0.09593000  0.35346000  1
  C  C491  1  0.40622000  0.15016000  0.36978000  1
  C  C492  1  0.34252000  0.06488000  0.31990000  1
  C  C493  1  0.31778000  0.98362000  0.31411000  1
  C  C494  1  0.32936000  0.95453000  0.28275000  1
  C  C495  1  0.36520000  0.00621000  0.25707000  1
  C  C496  1  0.38957000  0.08718000  0.26265000  1
  C  C497  1  0.37748000  0.11659000  0.29386000  1
  C  C498  1  0.29954000  0.20270000  0.44505000  1
  C  C499  1  0.27014000  0.26470000  0.44002000  1
  C  C500  1  0.25553000  0.30674000  0.46734000  1
  C  C501  1  0.27011000  0.28697000  0.49971000  1
  C  C502  1  0.29750000  0.22412000  0.50483000  1
  C  C503  1  0.30847000  0.17971000  0.47760000  1
  C  C504  1  0.40667000  0.94890000  0.99653000  1
  C  C505  1  0.35129000  0.98358000  0.01100000  1
  C  C506  1  0.38544000  0.05238000  0.03043000  1
  C  C507  1  0.47316000  0.08342000  0.03875000  1
  C  C508  1  0.52860000  0.04735000  0.02517000  1
  C  C509  1  0.49487000  0.98093000  0.00406000  1
  C  C510  1  0.62171000  0.07772000  0.03310000  1
  C  C511  1  0.67536000  0.14998000  0.02067000  1
  C  C512  1  0.76141000  0.18201000  0.03089000  1
  C  C513  1  0.79442000  0.14204000  0.05335000  1
  C  C514  1  0.74165000  0.06961000  0.06543000  1
  C  C515  1  0.65560000  0.03715000  0.05520000  1
  C  C516  1  0.25706000  0.94576000  0.00783000  1
  C  C517  1  0.21082000  0.97632000  0.98629000  1
  C  C518  1  0.12217000  0.93835000  0.98224000  1
  C  C519  1  0.07928000  0.87085000  0.00012000  1
  C  C520  1  0.12490000  0.84139000  0.02219000  1
  C  C521  1  0.21362000  0.87849000  0.02597000  1
  C  C522  1  0.02085000  0.55127000  0.02084000  1
  C  C523  1  0.00418000  0.47378000  0.03137000  1
  C  C524  1  0.95166000  0.44526000  0.05873000  1
  C  C525  1  0.91608000  0.49318000  0.07598000  1
  C  C526  1  0.93326000  0.57068000  0.06566000  1
  C  C527  1  0.98219000  0.59788000  0.03726000  1
  C  C528  1  0.90554000  0.62551000  0.08577000  1
  C  C529  1  0.83350000  0.64237000  0.07581000  1
  C  C530  1  0.81288000  0.70077000  0.09269000  1
  C  C531  1  0.86428000  0.74272000  0.11942000  1
  C  C532  1  0.93520000  0.72508000  0.12981000  1
  C  C533  1  0.95564000  0.66628000  0.11317000  1
  C  C534  1  0.04111000  0.42190000  0.01381000  1
  C  C535  1  0.99519000  0.37222000  0.98759000  1
  C  C536  1  0.02824000  0.32016000  0.97207000  1
  C  C537  1  0.10639000  0.31661000  0.98304000  1
  C  C538  1  0.15206000  0.36568000  0.00931000  1
  C  C539  1  0.11935000  0.41796000  0.02483000  1
  C  C540  1  0.49263000  0.60826000  0.99167000  1
  C  C541  1  0.47397000  0.61661000  0.02551000  1
  C  C542  1  0.49803000  0.57406000  0.04966000  1
  C  C543  1  0.54274000  0.52540000  0.04078000  1
  C  C544  1  0.56852000  0.52247000  0.00755000  1
  C  C545  1  0.54295000  0.56380000  0.98309000  1
  C  C546  1  0.61879000  0.47343000  0.99801000  1
  C  C547  1  0.57781000  0.39200000  0.99330000  1
  C  C548  1  0.62621000  0.34483000  0.98695000  1
  C  C549  1  0.71559000  0.37859000  0.98556000  1
  C  C550  1  0.75658000  0.45981000  0.98983000  1
  C  C551  1  0.70828000  0.50737000  0.99563000  1
  C  C552  1  0.42689000  0.66777000  0.03592000  1
  C  C553  1  0.34652000  0.63474000  0.05084000  1
  C  C554  1  0.30924000  0.68306000  0.06673000  1
  C  C555  1  0.35144000  0.76440000  0.06754000  1
  C  C556  1  0.43018000  0.79780000  0.05184000  1
  C  C557  1  0.46803000  0.74971000  0.03607000  1
  C  C558  1  0.78201000  0.17131000  0.17878000  1
  C  C559  1  0.86994000  0.18836000  0.18595000  1
  C  C560  1  0.89367000  0.14993000  0.21195000  1
  C  C561  1  0.83170000  0.08832000  0.22832000  1
  C  C562  1  0.74408000  0.06979000  0.22052000  1
  C  C563  1  0.71991000  0.11437000  0.19727000  1
  C  C564  1  0.67764000  0.99997000  0.23431000  1
  C  C565  1  0.66996000  0.92432000  0.22309000  1
  C  C566  1  0.60586000  0.85848000  0.23566000  1
  C  C567  1  0.54843000  0.86789000  0.25900000  1
  C  C568  1  0.55489000  0.94316000  0.26975000  1
  C  C569  1  0.61897000  0.00916000  0.25728000  1
  C  C570  1  0.93722000  0.24021000  0.16448000  1
  C  C571  1  0.95717000  0.21082000  0.13435000  1
  C  C572  1  0.01587000  0.26128000  0.11277000  1
  C  C573  1  0.05525000  0.34095000  0.12128000  1
  C  C574  1  0.03627000  0.37028000  0.15144000  1
  C  C575  1  0.97739000  0.32012000  0.17304000  1
  C  C576  1  0.79653000  0.60995000  0.18993000  1
  C  C577  1  0.75016000  0.66108000  0.18940000  1
  C  C578  1  0.78714000  0.73684000  0.20329000  1
  C  C579  1  0.86658000  0.76040000  0.22028000  1
  C  C580  1  0.91076000  0.70752000  0.22254000  1
  C  C581  1  0.87625000  0.63332000  0.20665000  1
  C  C582  1  0.99081000  0.72750000  0.24267000  1
  C  C583  1  0.98995000  0.74033000  0.27729000  1
  C  C584  1  0.06443000  0.75500000  0.29650000  1
  C  C585  1  0.14016000  0.75728000  0.28131000  1
  C  C586  1  0.14187000  0.74604000  0.24677000  1
  C  C587  1  0.06738000  0.73101000  0.22745000  1
  C  C588  1  0.66114000  0.63470000  0.17581000  1
  C  C589  1  0.63962000  0.67715000  0.15062000  1
  C  C590  1  0.55555000  0.65291000  0.13817000  1
  C  C591  1  0.49265000  0.58611000  0.15062000  1
  C  C592  1  0.51334000  0.54422000  0.17600000  1
  C  C593  1  0.59702000  0.56897000  0.18895000  1
  C  C594  1  0.38023000  0.19492000  0.16638000  1
  C  C595  1  0.34493000  0.11199000  0.16919000  1
  C  C596  1  0.27298000  0.07785000  0.18898000  1
  C  C597  1  0.23937000  0.12496000  0.20782000  1
  C  C598  1  0.27470000  0.20743000  0.20526000  1
  C  C599  1  0.34389000  0.24167000  0.18420000  1
  C  C600  1  0.24082000  0.25858000  0.22512000  1
  C  C601  1  0.29149000  0.30785000  0.25057000  1
  C  C602  1  0.26052000  0.35810000  0.26861000  1
  C  C603  1  0.17885000  0.35893000  0.26149000  1
  C  C604  1  0.12725000  0.30829000  0.23689000  1
  C  C605  1  0.15846000  0.25899000  0.21833000  1
  C  C606  1  0.38485000  0.06049000  0.15297000  1
  C  C607  1  0.35330000  0.02368000  0.12209000  1
  C  C608  1  0.38899000  0.97253000  0.10748000  1
  C  C609  1  0.45649000  0.95838000  0.12347000  1
  C  C610  1  0.48758000  0.99434000  0.15438000  1
  C  C611  1  0.45180000  0.04513000  0.16921000  1
  O  O612  1  0.66634000  0.34611000  0.14518000  1
  O  O613  1  0.67383000  0.18235000  0.14138000  1
  O  O614  1  0.80221000  0.28239000  0.14332000  1
  O  O615  1  0.51385000  0.20338000  0.14123000  1
  O  O616  1  0.45117000  0.18486000  0.07318000  1
  O  O617  1  0.86257000  0.45480000  0.13087000  1
  O  O618  1  0.73660000  0.53018000  0.14072000  1
  O  O619  1  0.60419000  0.33010000  0.08590000  1
  O  O620  1  0.57338000  0.15758000  0.08154000  1
  O  O621  1  0.63757000  0.49711000  0.07907000  1
  O  O622  1  0.49516000  0.42171000  0.08013000  1
  O  O623  1  0.45652000  0.29565000  0.12802000  1
  O  O624  1  0.76797000  0.43128000  0.08708000  1
  O  O625  1  0.76415000  0.47030000  0.18769000  1
  O  O626  1  0.59982000  0.37900000  0.47447000  1
  O  O627  1  0.56913000  0.52405000  0.48758000  1
  O  O628  1  0.44544000  0.41904000  0.47874000  1
  O  O629  1  0.73815000  0.51597000  0.47829000  1
  O  O630  1  0.71527000  0.55347000  0.38148000  1
  O  O631  1  0.45886000  0.31150000  0.42929000  1
  O  O632  1  0.63207000  0.22680000  0.47364000  1
  O  O633  1  0.65982000  0.41669000  0.41639000  1
  O  O634  1  0.66360000  0.59167000  0.42873000  1
  O  O635  1  0.73028000  0.28421000  0.41421000  1
  O  O636  1  0.83010000  0.40744000  0.41739000  1
  O  O637  1  0.83009000  0.56427000  0.43532000  1
  O  O638  1  0.54815000  0.24874000  0.41412000  1
  O  O639  1  0.49119000  0.21268000  0.47871000  1
  O  O640  1  0.95708000  0.94949000  0.30470000  1
  O  O641  1  0.93627000  0.98782000  0.37432000  1
  O  O642  1  0.81317000  0.94677000  0.34398000  1
  O  O643  1  0.10825000  0.02880000  0.34488000  1
  O  O644  1  0.09252000  0.24414000  0.31817000  1
  O  O645  1  0.82904000  0.01134000  0.27705000  1
  O  O646  1  0.97714000  0.88386000  0.23743000  1
  O  O647  1  0.03254000  0.09249000  0.28832000  1
  O  O648  1  0.04436000  0.15411000  0.35986000  1
  O  O649  1  0.09828000  0.04243000  0.22525000  1
  O  O650  1  0.19795000  0.10749000  0.26512000  1
  O  O651  1  0.19284000  0.15517000  0.33493000  1
  O  O652  1  0.91703000  0.00862000  0.23436000  1
  O  O653  1  0.83626000  0.86278000  0.24993000  1
  O  O654  1  0.18626000  0.75973000  0.64499000  1
  O  O655  1  0.24345000  0.92981000  0.65164000  1
  O  O656  1  0.09856000  0.87280000  0.64242000  1
  O  O657  1  0.36550000  0.84589000  0.64628000  1
  O  O658  1  0.35604000  0.87095000  0.54579000  1
  O  O659  1  0.05178000  0.74907000  0.59568000  1
  O  O660  1  0.12132000  0.58452000  0.64863000  1
  O  O661  1  0.24976000  0.76165000  0.58702000  1
  O  O662  1  0.34824000  0.94355000  0.59280000  1
  O  O663  1  0.22993000  0.59112000  0.59178000  1
  O  O664  1  0.36448000  0.68077000  0.59578000  1
  O  O665  1  0.44676000  0.85105000  0.60051000  1
  O  O666  1  0.08149000  0.63781000  0.58682000  1
  O  O667  1  0.00951000  0.63122000  0.64799000  1
  O  O668  1  0.27661000  0.74493000  0.90872000  1
  O  O669  1  0.08906000  0.70110000  0.90780000  1
  O  O670  1  0.16247000  0.83314000  0.91187000  1
  O  O671  1  0.17265000  0.58533000  0.91057000  1
  O  O672  1  0.17169000  0.60455000  0.01207000  1
  O  O673  1  0.30260000  0.87353000  0.95523000  1
  O  O674  1  0.46808000  0.79560000  0.89981000  1
  O  O675  1  0.28189000  0.69225000  0.96674000  1
  O  O676  1  0.08149000  0.61251000  0.96926000  1
  O  O677  1  0.46620000  0.70444000  0.95802000  1
  O  O678  1  0.36698000  0.58163000  0.95789000  1
  O  O679  1  0.17538000  0.51083000  0.95539000  1
  O  O680  1  0.42195000  0.84316000  0.96265000  1
  O  O681  1  0.42252000  0.90053000  0.90008000  1
  O  O682  1  0.93511000  0.18481000  0.77882000  1
  O  O683  1  0.00684000  0.16949000  0.84299000  1
  O  O684  1  0.10420000  0.25861000  0.81068000  1
  O  O685  1  0.83950000  0.05275000  0.82301000  1
  O  O686  1  0.87186000  0.91560000  0.80461000  1
  O  O687  1  0.09693000  0.20583000  0.74175000  1
  O  O688  1  0.85592000  0.22522000  0.71841000  1
  O  O689  1  0.93030000  0.04996000  0.75497000  1
  O  O690  1  0.99473000  0.01121000  0.82303000  1
  O  O691  1  0.81012000  0.06690000  0.69726000  1
  O  O692  1  0.80507000  0.94448000  0.70921000  1
  O  O693  1  0.76621000  0.99500000  0.77515000  1
  O  O694  1  0.98802000  0.16874000  0.70392000  1
  O  O695  1  0.99714000  0.30567000  0.72525000  1
