# generated using pymatgen
data_CuH13C20(NO2)2
_symmetry_space_group_name_H-M   'P 1'
_cell_length_a   9.57991000
_cell_length_b   10.86586000
_cell_length_c   10.88152000
_cell_angle_alpha   91.96167000
_cell_angle_beta   90.01799000
_cell_angle_gamma   88.55810000
_symmetry_Int_Tables_number   1
_chemical_formula_structural   CuH13C20(NO2)2
_chemical_formula_sum   'Cu2 H26 C40 N4 O8'
_cell_volume   1131.67807551
_cell_formula_units_Z   2
loop_
 _symmetry_equiv_pos_site_id
 _symmetry_equiv_pos_as_xyz
  1  'x, y, z'
loop_
 _atom_site_type_symbol
 _atom_site_label
 _atom_site_symmetry_multiplicity
 _atom_site_fract_x
 _atom_site_fract_y
 _atom_site_fract_z
 _atom_site_occupancy
  Cu  Cu0  1  0.64066000  0.50001000  0.50001000  1
  Cu  Cu1  1  0.35934000  0.49999000  0.49999000  1
  H  H2  1  0.08793000  0.21659000  0.76588000  1
  H  H3  1  0.87829000  0.19098000  0.89266000  1
  H  H4  1  0.28158000  0.48791000  0.88905000  1
  H  H5  1  0.77834000  0.40687000  0.79389000  1
  H  H6  1  0.99164000  0.45768000  0.89779000  1
  H  H7  1  0.98550000  0.56122000  0.10353000  1
  H  H8  1  0.76609000  0.60302000  0.20575000  1
  H  H9  1  0.28103000  0.49942000  0.11050000  1
  H  H10  1  0.12554000  0.63214000  0.64460000  1
  H  H11  1  0.06552000  0.82951000  0.15166000  1
  H  H12  1  0.25783000  0.33107000  0.32580000  1
  H  H13  1  0.13496000  0.20566000  0.18487000  1
  H  H14  1  0.87871000  0.20541000  0.18602000  1
  H  H15  1  0.75027000  0.32959000  0.32997000  1
  H  H16  1  0.86686000  0.63233000  0.64437000  1
  H  H17  1  0.30451000  0.87594000  0.22162000  1
  H  H18  1  0.15992000  0.89772000  0.59695000  1
  H  H19  1  0.92314000  0.85155000  0.52703000  1
  H  H20  1  0.30141000  0.12069000  0.41906000  1
  H  H21  1  0.69607000  0.87906000  0.58983000  1
  H  H22  1  0.86240000  0.10421000  0.44276000  1
  H  H23  1  0.07992000  0.17412000  0.54113000  1
  H  H24  1  0.79257000  0.75747000  0.34329000  1
  H  H25  1  0.78251000  0.90822000  0.31504000  1
  H  H26  1  0.60261000  0.03158000  0.81479000  1
  H  H27  1  0.64017000  0.15646000  0.90238000  1
  C  C28  1  0.50151000  0.49191000  0.73731000  1
  C  C29  1  0.97750000  0.83918000  0.33436000  1
  C  C30  1  0.38893000  0.06837000  0.45558000  1
  C  C31  1  0.50525000  0.12858000  0.50319000  1
  C  C32  1  0.61796000  0.05940000  0.55175000  1
  C  C33  1  0.61137000  0.93179000  0.54953000  1
  C  C34  1  0.49540000  0.87166000  0.50082000  1
  C  C35  1  0.38166000  0.94114000  0.45534000  1
  C  C36  1  0.86323000  0.12669000  0.54040000  1
  C  C37  1  0.98693000  0.16481000  0.59604000  1
  C  C38  1  0.99160000  0.18808000  0.72278000  1
  C  C39  1  0.49814000  0.73765000  0.49953000  1
  C  C40  1  0.87239000  0.17359000  0.79423000  1
  C  C41  1  0.74606000  0.13826000  0.73885000  1
  C  C42  1  0.74201000  0.11426000  0.61063000  1
  C  C43  1  0.76798000  0.45429000  0.88185000  1
  C  C44  1  0.89256000  0.47950000  0.94230000  1
  C  C45  1  0.88923000  0.53563000  0.05832000  1
  C  C46  1  0.76189000  0.55562000  0.11799000  1
  C  C47  1  0.63447000  0.51885000  0.06293000  1
  C  C48  1  0.63644000  0.48477000  0.93685000  1
  C  C49  1  0.50726000  0.48403000  0.87152000  1
  C  C50  1  0.50086000  0.50770000  0.26259000  1
  C  C51  1  0.38101000  0.49098000  0.93640000  1
  C  C52  1  0.38050000  0.50105000  0.06328000  1
  C  C53  1  0.50565000  0.51433000  0.12822000  1
  C  C54  1  0.14782000  0.34200000  0.33176000  1
  C  C55  1  0.07729000  0.26628000  0.24877000  1
  C  C56  1  0.93358000  0.26619000  0.24932000  1
  C  C57  1  0.85969000  0.34150000  0.33324000  1
  C  C58  1  0.92709000  0.42281000  0.41721000  1
  C  C59  1  0.07674000  0.42298000  0.41690000  1
  C  C60  1  0.07189000  0.57248000  0.57959000  1
  C  C61  1  0.50200000  0.26248000  0.50261000  1
  C  C62  1  0.92389000  0.57258000  0.57944000  1
  C  C63  1  0.08662000  0.84199000  0.24899000  1
  C  C64  1  0.22214000  0.86736000  0.28871000  1
  C  C65  1  0.24899000  0.88832000  0.41430000  1
  C  C66  1  0.14089000  0.87970000  0.49992000  1
  C  C67  1  0.00603000  0.85482000  0.46016000  1
  N  N68  1  0.14791000  0.49881000  0.49879000  1
  N  N69  1  0.85204000  0.49877000  0.49871000  1
  N  N70  1  0.83722000  0.82609000  0.29253000  1
  N  N71  1  0.62259000  0.12556000  0.81175000  1
  O  O72  1  0.61881000  0.50001000  0.68036000  1
  O  O73  1  0.38124000  0.50000000  0.68034000  1
  O  O74  1  0.61878000  0.68036000  0.50000000  1
  O  O75  1  0.38121000  0.68035000  0.49998000  1
  O  O76  1  0.61876000  0.50000000  0.31966000  1
  O  O77  1  0.38119000  0.49999000  0.31964000  1
  O  O78  1  0.61879000  0.31965000  0.50002000  1
  O  O79  1  0.38122000  0.31964000  0.50000000  1
