# generated using pymatgen
data_CuSnH24(C5N)8
_symmetry_space_group_name_H-M   'P 1'
_cell_length_a   10.60031000
_cell_length_b   14.55525000
_cell_length_c   25.53260000
_cell_angle_alpha   89.99909000
_cell_angle_beta   88.16426000
_cell_angle_gamma   89.99955000
_symmetry_Int_Tables_number   1
_chemical_formula_structural   CuSnH24(C5N)8
_chemical_formula_sum   'Cu4 Sn4 H96 C160 N32'
_cell_volume   3937.40716959
_cell_formula_units_Z   4
loop_
 _symmetry_equiv_pos_site_id
 _symmetry_equiv_pos_as_xyz
  1  'x, y, z'
loop_
 _atom_site_type_symbol
 _atom_site_label
 _atom_site_symmetry_multiplicity
 _atom_site_fract_x
 _atom_site_fract_y
 _atom_site_fract_z
 _atom_site_occupancy
  Cu  Cu0  1  0.23071000  0.78439000  0.83606000  1
  Cu  Cu1  1  0.26936000  0.28449000  0.66394000  1
  Cu  Cu2  1  0.75976000  0.21870000  0.16308000  1
  Cu  Cu3  1  0.74023000  0.71868000  0.33692000  1
  Sn  Sn4  1  0.04135000  0.93536000  0.98935000  1
  Sn  Sn5  1  0.45867000  0.43536000  0.51064000  1
  Sn  Sn6  1  0.54471000  0.42090000  0.00272000  1
  Sn  Sn7  1  0.95528000  0.92091000  0.49728000  1
  H  H8  1  0.92233000  0.06519000  0.79876000  1
  H  H9  1  0.71493000  0.97537000  0.83335000  1
  H  H10  1  0.55836000  0.82464000  0.01227000  1
  H  H11  1  0.65179000  0.80589000  0.10821000  1
  H  H12  1  0.33442000  0.09266000  0.82919000  1
  H  H13  1  0.38764000  0.15617000  0.74149000  1
  H  H14  1  0.03463000  0.27571000  0.73133000  1
  H  H15  1  0.96655000  0.21621000  0.81834000  1
  H  H16  1  0.49628000  0.01972000  0.93311000  1
  H  H17  1  0.30478000  0.96040000  0.89061000  1
  H  H18  1  0.47941000  0.71132000  0.85567000  1
  H  H19  1  0.67776000  0.76135000  0.89379000  1
  H  H20  1  0.99688000  0.83803000  0.88751000  1
  H  H21  1  0.82357000  0.76607000  0.94131000  1
  H  H22  1  0.02844000  0.51059000  0.93170000  1
  H  H23  1  0.20242000  0.59519000  0.88543000  1
  H  H24  1  0.91991000  0.67294000  0.04102000  1
  H  H25  1  0.80013000  0.65373000  0.13430000  1
  H  H26  1  0.38287000  0.46751000  0.20309000  1
  H  H27  1  0.18386000  0.39657000  0.15458000  1
  H  H28  1  0.79626000  0.50913000  0.18341000  1
  H  H29  1  0.84262000  0.56366000  0.27218000  1
  H  H30  1  0.48443000  0.67363000  0.29327000  1
  H  H31  1  0.42496000  0.62741000  0.20393000  1
  H  H32  1  0.57768000  0.56518000  0.70125000  1
  H  H33  1  0.78511000  0.47539000  0.66666667  1
  H  H34  1  0.94161000  0.32463000  0.48774000  1
  H  H35  1  0.84821000  0.30590000  0.39180000  1
  H  H36  1  0.16556000  0.59269000  0.67083000  1
  H  H37  1  0.11240000  0.65617000  0.75853000  1
  H  H38  1  0.46539000  0.77572000  0.76867000  1
  H  H39  1  0.53346000  0.71625000  0.68166000  1
  H  H40  1  0.00374000  0.51973000  0.56688000  1
  H  H41  1  0.19520000  0.46039000  0.60940000  1
  H  H42  1  0.02062000  0.21131000  0.64432000  1
  H  H43  1  0.82226000  0.26133000  0.60619000  1
  H  H44  1  0.50319000  0.33801000  0.61251000  1
  H  H45  1  0.67642000  0.26605000  0.55868000  1
  H  H46  1  0.47155000  0.01059000  0.56832000  1
  H  H47  1  0.29758000  0.09520000  0.61458000  1
  H  H48  1  0.58008000  0.17292000  0.45899000  1
  H  H49  1  0.69980000  0.15370000  0.36570000  1
  H  H50  1  0.11712000  0.96750000  0.29691000  1
  H  H51  1  0.31614000  0.89659000  0.34541000  1
  H  H52  1  0.70375000  0.00910000  0.31659000  1
  H  H53  1  0.65736000  0.06362000  0.22782000  1
  H  H54  1  0.01554000  0.17363000  0.20673000  1
  H  H55  1  0.07501000  0.12741000  0.29607000  1
  H  H56  1  0.05256000  0.95987000  0.20284000  1
  H  H57  1  0.26232000  0.04779000  0.16840000  1
  H  H58  1  0.42813000  0.18445000  0.98896000  1
  H  H59  1  0.33143000  0.20547000  0.89398000  1
  H  H60  1  0.66073000  0.91126000  0.17388000  1
  H  H61  1  0.61743000  0.85423000  0.26378000  1
  H  H62  1  0.97657000  0.74416000  0.27245000  1
  H  H63  1  0.03468000  0.79653000  0.18291000  1
  H  H64  1  0.50028000  0.98389000  0.06673000  1
  H  H65  1  0.68874000  0.04753000  0.10966000  1
  H  H66  1  0.50536000  0.29465000  0.14173000  1
  H  H67  1  0.30825000  0.23929000  0.10261000  1
  H  H68  1  0.95979000  0.14861000  0.08912000  1
  H  H69  1  0.14366000  0.21643000  0.04023000  1
  H  H70  1  0.00255000  0.48470000  0.08351000  1
  H  H71  1  0.81706000  0.40668000  0.12610000  1
  H  H72  1  0.06896000  0.32908000  0.95703000  1
  H  H73  1  0.18274000  0.35501000  0.86303000  1
  H  H74  1  0.59603000  0.54780000  0.79913000  1
  H  H75  1  0.80071000  0.61366000  0.84641000  1
  H  H76  1  0.20929000  0.49132000  0.81426000  1
  H  H77  1  0.17235000  0.44830000  0.72234000  1
  H  H78  1  0.53112000  0.33795000  0.70345000  1
  H  H79  1  0.58106000  0.37288000  0.79552000  1
  H  H80  1  0.44741000  0.45987000  0.29716000  1
  H  H81  1  0.23763000  0.54776000  0.33159000  1
  H  H82  1  0.07191000  0.68445000  0.51104000  1
  H  H83  1  0.16857000  0.70545000  0.60603000  1
  H  H84  1  0.83929000  0.41123000  0.32611000  1
  H  H85  1  0.88255000  0.35422000  0.23620000  1
  H  H86  1  0.52342000  0.24415000  0.22755000  1
  H  H87  1  0.46532000  0.29649000  0.31709000  1
  H  H88  1  0.99972000  0.48388000  0.43327000  1
  H  H89  1  0.81128000  0.54754000  0.39034000  1
  H  H90  1  0.99462000  0.79465000  0.35827000  1
  H  H91  1  0.19174000  0.73930000  0.39741000  1
  H  H92  1  0.54018000  0.64863000  0.41087000  1
  H  H93  1  0.35636000  0.71644000  0.45977000  1
  H  H94  1  0.49742000  0.98470000  0.41648000  1
  H  H95  1  0.68293000  0.90670000  0.37389000  1
  H  H96  1  0.43105000  0.82910000  0.54297000  1
  H  H97  1  0.31730000  0.85503000  0.63697000  1
  H  H98  1  0.90399000  0.04780000  0.70088000  1
  H  H99  1  0.69931000  0.11365000  0.65361000  1
  H  H100  1  0.29071000  0.99134000  0.68575000  1
  H  H101  1  0.32768000  0.94835000  0.77767000  1
  H  H102  1  0.96892000  0.83796000  0.79657000  1
  H  H103  1  0.91899000  0.87287000  0.70449000  1
  C  C104  1  0.98144000  0.05449000  0.88257000  1
  C  C105  1  0.90060000  0.04271000  0.83838000  1
  C  C106  1  0.79518000  0.99579000  0.85583000  1
  C  C107  1  0.81050000  0.97695000  0.91052000  1
  C  C108  1  0.72330000  0.92837000  0.94236000  1
  C  C109  1  0.73439000  0.90648000  0.99586000  1
  C  C110  1  0.64519000  0.85339000  0.02640000  1
  C  C111  1  0.69272000  0.84468000  0.07580000  1
  C  C112  1  0.81092000  0.89358000  0.07574000  1
  C  C113  1  0.10113000  0.09920000  0.88062000  1
  C  C114  1  0.14168000  0.14323000  0.83129000  1
  C  C115  1  0.26434000  0.13246000  0.80885000  1
  C  C116  1  0.29459000  0.16770000  0.75962000  1
  C  C117  1  0.09766000  0.23266000  0.75355000  1
  C  C118  1  0.05977000  0.19900000  0.80224000  1
  C  C119  1  0.60586000  0.89597000  0.91712000  1
  C  C120  1  0.49760000  0.95138000  0.91582000  1
  C  C121  1  0.38977000  0.91851000  0.89221000  1
  C  C122  1  0.48693000  0.77989000  0.87238000  1
  C  C123  1  0.59832000  0.80846000  0.89450000  1
  C  C124  1  0.00122000  0.76591000  0.89857000  1
  C  C125  1  0.90314000  0.72484000  0.92736000  1
  C  C126  1  0.90623000  0.63044000  0.93752000  1
  C  C127  1  0.01740000  0.58331000  0.92305000  1
  C  C128  1  0.11447000  0.63001000  0.89632000  1
  C  C129  1  0.79002000  0.58288000  0.95819000  1
  C  C130  1  0.76530000  0.58174000  0.01242000  1
  C  C131  1  0.83736000  0.63116000  0.05007000  1
  C  C132  1  0.77622000  0.62098000  0.09785000  1
  C  C133  1  0.66740000  0.56249000  0.09030000  1
  C  C134  1  0.57765000  0.53689000  0.13030000  1
  C  C135  1  0.45973000  0.49279000  0.12116000  1
  C  C136  1  0.37052000  0.46240000  0.16127000  1
  C  C137  1  0.26871000  0.42543000  0.13643000  1
  C  C138  1  0.70843000  0.55285000  0.91890000  1
  C  C139  1  0.60567000  0.56364000  0.18433000  1
  C  C140  1  0.72447000  0.54673000  0.20587000  1
  C  C141  1  0.75050000  0.57622000  0.25593000  1
  C  C142  1  0.55131000  0.63713000  0.26760000  1
  C  C143  1  0.51803000  0.61024000  0.21773000  1
  C  C144  1  0.51859000  0.55451000  0.61743000  1
  C  C145  1  0.59942000  0.54271000  0.66163000  1
  C  C146  1  0.70484000  0.49581000  0.64418000  1
  C  C147  1  0.68952000  0.47696000  0.58949000  1
  C  C148  1  0.77669000  0.42837000  0.55764000  1
  C  C149  1  0.76561000  0.40651000  0.50414000  1
  C  C150  1  0.85479000  0.35339000  0.47361000  1
  C  C151  1  0.80727000  0.34468000  0.42420000  1
  C  C152  1  0.68906000  0.39357000  0.42425000  1
  C  C153  1  0.39890000  0.59922000  0.61938000  1
  C  C154  1  0.35834000  0.64324000  0.66872000  1
  C  C155  1  0.23567000  0.63246000  0.69116000  1
  C  C156  1  0.20544000  0.66769000  0.74039000  1
  C  C157  1  0.40237000  0.73266000  0.74646000  1
  C  C158  1  0.44025000  0.69901000  0.69776000  1
  C  C159  1  0.89414000  0.39597000  0.58287000  1
  C  C160  1  0.00239000  0.45139000  0.58418000  1
  C  C161  1  0.11021000  0.41851000  0.60779000  1
  C  C162  1  0.01308000  0.27989000  0.62761000  1
  C  C163  1  0.90169000  0.30845000  0.60549000  1
  C  C164  1  0.49880000  0.26590000  0.60144000  1
  C  C165  1  0.59687000  0.22482000  0.57265000  1
  C  C166  1  0.59378000  0.13042000  0.56249000  1
  C  C167  1  0.48260000  0.08331000  0.57697000  1
  C  C168  1  0.38553000  0.13001000  0.60369000  1
  C  C169  1  0.70999000  0.08287000  0.54182000  1
  C  C170  1  0.73471000  0.08174000  0.48758000  1
  C  C171  1  0.66265000  0.13115000  0.44994000  1
  C  C172  1  0.72376000  0.12097000  0.40216000  1
  C  C173  1  0.83260000  0.06250000  0.40970000  1
  C  C174  1  0.92235000  0.03689000  0.36971000  1
  C  C175  1  0.04025000  0.99278000  0.37884000  1
  C  C176  1  0.12948000  0.96241000  0.33872000  1
  C  C177  1  0.23129000  0.92545000  0.36357000  1
  C  C178  1  0.79154000  0.05280000  0.58111000  1
  C  C179  1  0.89432000  0.06364000  0.31567000  1
  C  C180  1  0.77552000  0.04672000  0.29413000  1
  C  C181  1  0.74948000  0.07620000  0.24406000  1
  C  C182  1  0.94867000  0.13712000  0.23240000  1
  C  C183  1  0.98194000  0.11024000  0.28227000  1
  C  C184  1  0.00945000  0.95032000  0.11733000  1
  C  C185  1  0.08150000  0.97365000  0.16265000  1
  C  C186  1  0.18818000  0.01910000  0.14519000  1
  C  C187  1  0.18194000  0.02612000  0.08925000  1
  C  C188  1  0.27178000  0.07033000  0.05673000  1
  C  C189  1  0.26232000  0.09085000  0.00310000  1
  C  C190  1  0.34565000  0.15066000  0.97391000  1
  C  C191  1  0.29619000  0.16095000  0.92501000  1
  C  C192  1  0.18307000  0.10617000  0.92381000  1
  C  C193  1  0.89224000  0.90229000  0.11906000  1
  C  C194  1  0.85421000  0.86195000  0.16978000  1
  C  C195  1  0.73339000  0.87333000  0.19380000  1
  C  C196  1  0.70904000  0.84220000  0.24447000  1
  C  C197  1  0.90921000  0.78246000  0.24970000  1
  C  C198  1  0.94128000  0.81180000  0.19950000  1
  C  C199  1  0.38669000  0.10573000  0.08203000  1
  C  C200  1  0.49641000  0.05234000  0.08379000  1
  C  C201  1  0.60220000  0.08760000  0.10762000  1
  C  C202  1  0.49992000  0.22531000  0.12587000  1
  C  C203  1  0.38998000  0.19425000  0.10348000  1
  C  C204  1  0.97231000  0.22281000  0.08718000  1
  C  C205  1  0.07584000  0.26112000  0.06034000  1
  C  C206  1  0.09494000  0.35641000  0.06135000  1
  C  C207  1  0.99785000  0.41005000  0.08437000  1
  C  C208  1  0.89475000  0.36701000  0.10875000  1
  C  C209  1  0.21617000  0.39798000  0.04175000  1
  C  C210  1  0.24123000  0.39882000  0.98745000  1
  C  C211  1  0.15844000  0.36294000  0.94879000  1
  C  C212  1  0.21646000  0.37690000  0.90060000  1
  C  C213  1  0.33501000  0.42329000  0.90931000  1
  C  C214  1  0.42440000  0.45069000  0.86980000  1
  C  C215  1  0.54152000  0.49530000  0.87944000  1
  C  C216  1  0.61905000  0.54066000  0.83992000  1
  C  C217  1  0.72343000  0.57479000  0.86421000  1
  C  C218  1  0.29554000  0.43166000  0.08109000  1
  C  C219  1  0.39760000  0.43227000  0.81463000  1
  C  C220  1  0.28211000  0.45469000  0.79176000  1
  C  C221  1  0.26194000  0.43230000  0.73993000  1
  C  C222  1  0.46138000  0.37111000  0.72932000  1
  C  C223  1  0.48915000  0.39090000  0.78079000  1
  C  C224  1  0.49053000  0.45031000  0.38266000  1
  C  C225  1  0.41848000  0.47364000  0.33734000  1
  C  C226  1  0.31179000  0.51908000  0.35480000  1
  C  C227  1  0.31805000  0.52611000  0.41075000  1
  C  C228  1  0.22824000  0.57034000  0.44327000  1
  C  C229  1  0.23771000  0.59085000  0.49690000  1
  C  C230  1  0.15437000  0.65066000  0.52609000  1
  C  C231  1  0.20382000  0.66095000  0.57500000  1
  C  C232  1  0.31695000  0.60618000  0.57619000  1
  C  C233  1  0.60774000  0.40228000  0.38093000  1
  C  C234  1  0.64578000  0.36195000  0.33022000  1
  C  C235  1  0.76660000  0.37332000  0.30619000  1
  C  C236  1  0.79093000  0.34220000  0.25552000  1
  C  C237  1  0.59077000  0.28246000  0.25030000  1
  C  C238  1  0.55872000  0.31179000  0.30050000  1
  C  C239  1  0.11331000  0.60573000  0.41798000  1
  C  C240  1  0.00360000  0.55234000  0.41621000  1
  C  C241  1  0.89782000  0.58760000  0.39238000  1
  C  C242  1  0.00008000  0.72531000  0.37413000  1
  C  C243  1  0.11002000  0.69426000  0.39654000  1
  C  C244  1  0.52768000  0.72283000  0.41282000  1
  C  C245  1  0.42416000  0.76114000  0.43965000  1
  C  C246  1  0.40506000  0.85643000  0.43865000  1
  C  C247  1  0.50215000  0.91005000  0.41563000  1
  C  C248  1  0.60525000  0.86701000  0.39125000  1
  C  C249  1  0.28382000  0.89798000  0.45825000  1
  C  C250  1  0.25877000  0.89883000  0.51255000  1
  C  C251  1  0.34156000  0.86295000  0.55122000  1
  C  C252  1  0.28355000  0.87690000  0.59940000  1
  C  C253  1  0.16499000  0.92328000  0.59069000  1
  C  C254  1  0.07560000  0.95068000  0.63021000  1
  C  C255  1  0.95849000  0.99528000  0.62056000  1
  C  C256  1  0.88096000  0.04064000  0.66009000  1
  C  C257  1  0.77657000  0.07477000  0.63580000  1
  C  C258  1  0.20448000  0.93168000  0.41890000  1
  C  C259  1  0.10243000  0.93227000  0.68538000  1
  C  C260  1  0.21792000  0.95469000  0.70825000  1
  C  C261  1  0.23809000  0.93233000  0.76009000  1
  C  C262  1  0.03867000  0.87112000  0.77070000  1
  C  C263  1  0.01089000  0.89089000  0.71922000  1
  N  N264  1  0.92571000  0.01272000  0.92597000  1
  N  N265  1  0.83543000  0.93028000  0.02662000  1
  N  N266  1  0.21241000  0.21568000  0.73056000  1
  N  N267  1  0.38315000  0.83382000  0.87045000  1
  N  N268  1  0.10520000  0.71932000  0.88155000  1
  N  N269  1  0.66674000  0.62208000  0.28745000  1
  N  N270  1  0.59651000  0.50486000  0.92725000  1
  N  N271  1  0.66211000  0.54041000  0.03792000  1
  N  N272  1  0.57431000  0.51273000  0.57404000  1
  N  N273  1  0.66457000  0.43030000  0.47337000  1
  N  N274  1  0.28763000  0.71568000  0.76944000  1
  N  N275  1  0.11684000  0.33382000  0.62955000  1
  N  N276  1  0.39482000  0.21932000  0.61847000  1
  N  N277  1  0.83324000  0.12206000  0.21254000  1
  N  N278  1  0.90347000  0.00483000  0.57276000  1
  N  N279  1  0.83791000  0.04043000  0.46208000  1
  N  N280  1  0.07067000  0.98543000  0.07330000  1
  N  N281  1  0.16351000  0.06472000  0.97191000  1
  N  N282  1  0.79504000  0.79820000  0.27357000  1
  N  N283  1  0.60472000  0.17264000  0.12907000  1
  N  N284  1  0.88432000  0.27443000  0.11317000  1
  N  N285  1  0.34795000  0.38885000  0.70829000  1
  N  N286  1  0.41351000  0.47186000  0.07262000  1
  N  N287  1  0.34891000  0.43489000  0.96248000  1
  N  N288  1  0.42931000  0.48541000  0.42669000  1
  N  N289  1  0.33653000  0.56473000  0.52809000  1
  N  N290  1  0.70494000  0.29820000  0.22643000  1
  N  N291  1  0.89529000  0.67264000  0.37093000  1
  N  N292  1  0.61567000  0.77444000  0.38682000  1
  N  N293  1  0.15209000  0.88888000  0.79173000  1
  N  N294  1  0.08649000  0.97186000  0.42738000  1
  N  N295  1  0.15108000  0.93487000  0.53753000  1
