# generated using pymatgen
data_H24C41(NO2)4
_symmetry_space_group_name_H-M   'P 1'
_cell_length_a   32.91660000
_cell_length_b   40.14630000
_cell_length_c   62.08690000
_cell_angle_alpha   90.00000000
_cell_angle_beta   90.00000000
_cell_angle_gamma   90.00220000
_symmetry_Int_Tables_number   1
_chemical_formula_structural   H24C41(NO2)4
_chemical_formula_sum   'H192 C328 N32 O64'
_cell_volume   82046.57783728
_cell_formula_units_Z   8
loop_
 _symmetry_equiv_pos_site_id
 _symmetry_equiv_pos_as_xyz
  1  'x, y, z'
loop_
 _atom_site_type_symbol
 _atom_site_label
 _atom_site_symmetry_multiplicity
 _atom_site_fract_x
 _atom_site_fract_y
 _atom_site_fract_z
 _atom_site_occupancy
  H  25  1  0.36073400  0.01939500  0.17419600  1
  H  26  1  0.28981300  0.01266300  0.17727400  1
  H  27  1  0.21837400  0.01290400  0.17748500  1
  H  28  1  0.14755800  0.01943900  0.17370300  1
  H  29  1  0.16561400  0.11553000  0.14750900  1
  H  30  1  0.34338800  0.11583500  0.14841900  1
  H  31  1  0.25529800  0.13594300  0.19502800  1
  H  32  1  0.25440100  0.23749800  0.17756900  1
  H  33  1  0.25363300  0.22222800  0.14058600  1
  H  34  1  0.25434100  0.07696900  0.11071100  1
  H  35  1  0.25379700  0.19670300  0.10382500  1
  H  36  1  0.25374100  0.16312100  0.07203300  1
  H  42  1  0.41505900  0.09290000  0.15819400  1
  H  43  1  0.09483600  0.09103100  0.15125400  1
  H  44  1  0.25426800  0.07074600  0.07340700  1
  H  45  1  0.25940500  0.18093100  0.22337900  1
  H  70  1  0.14758700  0.01947600  0.83407700  1
  H  71  1  0.21851900  0.01265900  0.83121100  1
  H  72  1  0.28986500  0.01287800  0.83102600  1
  H  73  1  0.36069700  0.01948100  0.83459200  1
  H  74  1  0.34276200  0.11538800  0.86110300  1
  H  75  1  0.16486700  0.11571900  0.86017900  1
  H  76  1  0.25305800  0.13475900  0.81306600  1
  H  77  1  0.25401600  0.23677900  0.82957600  1
  H  78  1  0.25474600  0.22242300  0.86652800  1
  H  79  1  0.25408500  0.07923300  0.90019400  1
  H  80  1  0.25444700  0.19966800  0.90228400  1
  H  81  1  0.25448900  0.16946500  0.93510100  1
  H  87  1  0.09324100  0.09287300  0.85008600  1
  H  88  1  0.41354900  0.09098000  0.85705600  1
  H  89  1  0.25302800  0.07929800  0.94075000  1
  H  90  1  0.24879600  0.17979800  0.78421100  1
  H  115  1  0.86042400  0.02345100  0.83459400  1
  H  116  1  0.78981200  0.03011600  0.83077600  1
  H  117  1  0.71849600  0.03033300  0.83100800  1
  H  118  1  0.64757700  0.02361100  0.83408500  1
  H  119  1  0.66490500  0.92716900  0.85985800  1
  H  120  1  0.84269700  0.92745000  0.86079100  1
  H  121  1  0.75495300  0.90706700  0.81327500  1
  H  122  1  0.75445900  0.80550900  0.83073000  1
  H  123  1  0.75362500  0.82077000  0.86771500  1
  H  124  1  0.75400200  0.96602900  0.89759700  1
  H  125  1  0.75383500  0.84629700  0.90448100  1
  H  126  1  0.75386100  0.87987900  0.93627500  1
  H  132  1  0.91345000  0.95195100  0.85701900  1
  H  133  1  0.59324000  0.95012000  0.85010900  1
  H  134  1  0.75435500  0.97237300  0.93491600  1
  H  135  1  0.75928000  0.86208200  0.78492300  1
  H  160  1  0.64713000  0.02358900  0.17374200  1
  H  161  1  0.71823500  0.03002500  0.17727600  1
  H  162  1  0.78974300  0.03036400  0.17707000  1
  H  163  1  0.86068800  0.02356300  0.17420600  1
  H  164  1  0.84344100  0.92730300  0.14812700  1
  H  165  1  0.66556200  0.92758200  0.14718500  1
  H  166  1  0.75338900  0.90823800  0.19523600  1
  H  167  1  0.75390600  0.80621600  0.17872900  1
  H  168  1  0.75469700  0.82056900  0.14177600  1
  H  169  1  0.75439400  0.96375200  0.10810600  1
  H  170  1  0.75436100  0.84331500  0.10602400  1
  H  171  1  0.75430800  0.87351200  0.07320500  1
  H  177  1  0.59471100  0.95196800  0.15123800  1
  H  178  1  0.91505700  0.95016200  0.15818900  1
  H  179  1  0.75296000  0.96367000  0.06755400  1
  H  180  1  0.74887200  0.86320500  0.22408800  1
  H  205  1  0.86074500  0.51937300  0.67421700  1
  H  206  1  0.78982000  0.51262500  0.67727200  1
  H  207  1  0.71836300  0.51287900  0.67748000  1
  H  208  1  0.64754800  0.51943800  0.67370600  1
  H  209  1  0.66563800  0.61551900  0.64749600  1
  H  210  1  0.84339300  0.61581800  0.64845300  1
  H  211  1  0.75323900  0.63581900  0.69504900  1
  H  212  1  0.75372400  0.73740800  0.67767500  1
  H  213  1  0.75465600  0.72221600  0.64067700  1
  H  214  1  0.75418700  0.57699000  0.61071200  1
  H  215  1  0.75436600  0.69672900  0.60387300  1
  H  216  1  0.75396400  0.66317200  0.57206300  1
  H  222  1  0.91506400  0.59287900  0.65820000  1
  H  223  1  0.59485500  0.59103800  0.65124700  1
  H  224  1  0.75408100  0.57079700  0.57341600  1
  H  225  1  0.74883600  0.68073800  0.72343600  1
  H  250  1  0.64761800  0.51943500  0.33407500  1
  H  251  1  0.71855500  0.51261300  0.33122000  1
  H  252  1  0.78991400  0.51287900  0.33099400  1
  H  253  1  0.86074800  0.51949500  0.33457200  1
  H  254  1  0.84277700  0.61538700  0.36110500  1
  H  255  1  0.66489700  0.61568300  0.36016800  1
  H  256  1  0.75505000  0.63462900  0.31305300  1
  H  257  1  0.75450200  0.73668000  0.32947700  1
  H  258  1  0.75362600  0.72240300  0.36644100  1
  H  259  1  0.75429100  0.57926100  0.40021500  1
  H  260  1  0.75391100  0.69969800  0.40223000  1
  H  261  1  0.75434100  0.66954100  0.43506800  1
  H  267  1  0.59327500  0.59284200  0.35009200  1
  H  268  1  0.91357300  0.59100600  0.35703800  1
  H  269  1  0.75317900  0.57937800  0.44076800  1
  H  270  1  0.75960900  0.67959900  0.28416000  1
  H  295  1  0.36076300  0.52357700  0.33458400  1
  H  296  1  0.28994900  0.53013600  0.33082200  1
  H  297  1  0.21849800  0.53038300  0.33103100  1
  H  298  1  0.14757500  0.52363700  0.33409500  1
  H  299  1  0.16492600  0.42720000  0.35987500  1
  H  300  1  0.34268900  0.42748600  0.36077500  1
  H  301  1  0.25289900  0.40718300  0.31325000  1
  H  302  1  0.25380300  0.30559700  0.33062500  1
  H  303  1  0.25466400  0.32079200  0.36762200  1
  H  304  1  0.25384000  0.46601300  0.39759300  1
  H  305  1  0.25443000  0.34627300  0.40442200  1
  H  306  1  0.25414800  0.37982100  0.43623400  1
  H  312  1  0.41346900  0.45197700  0.35703500  1
  H  313  1  0.09326200  0.45012900  0.35011300  1
  H  314  1  0.25416600  0.47227500  0.43490400  1
  H  315  1  0.24873600  0.36225700  0.28485900  1
  H  340  1  0.14761200  0.52352300  0.67373200  1
  H  341  1  0.21844600  0.53014100  0.67729500  1
  H  342  1  0.28980200  0.53038800  0.67708000  1
  H  343  1  0.36073600  0.52356500  0.67422000  1
  H  344  1  0.34345800  0.42731700  0.64812700  1
  H  345  1  0.16557100  0.42762800  0.64720600  1
  H  346  1  0.25538400  0.40836900  0.69525200  1
  H  347  1  0.25441000  0.30632000  0.67882600  1
  H  348  1  0.25359600  0.32060200  0.64186200  1
  H  349  1  0.25460600  0.46374100  0.60809500  1
  H  350  1  0.25381800  0.34330700  0.60607200  1
  H  351  1  0.25415100  0.37347100  0.57323400  1
  H  357  1  0.09477100  0.45201700  0.65127500  1
  H  358  1  0.41507300  0.45015600  0.65820500  1
  H  359  1  0.25314400  0.46363900  0.56755000  1
  H  360  1  0.25971500  0.36339300  0.72414500  1
  H  368  1  0.23741900  0.03864400  0.97941200  1
  H  372  1  0.23888700  0.18489400  0.99086700  1
  H  373  1  0.26192800  0.02743800  0.01353000  1
  H  374  1  0.25718600  0.18323500  0.02580300  1
  H  384  1  0.73742100  0.00464000  0.02864400  1
  H  388  1  0.73911400  0.85810900  0.01751700  1
  H  389  1  0.76326600  0.01521900  0.99452800  1
  H  390  1  0.75597500  0.85978000  0.98244000  1
  H  400  1  0.73730300  0.53887400  0.47929900  1
  H  404  1  0.73867400  0.68471800  0.49065300  1
  H  405  1  0.76140300  0.52739800  0.51344200  1
  H  406  1  0.75630100  0.68329600  0.52580200  1
  H  416  1  0.23769500  0.50441000  0.52888800  1
  H  420  1  0.23882200  0.35812300  0.51748000  1
  H  421  1  0.26127700  0.51564600  0.49481300  1
  H  422  1  0.25711100  0.35972400  0.48250300  1
  H  432  1  0.00409900  0.09294000  0.13545700  1
  H  436  1  0.05462300  0.99810700  0.20070800  1
  H  437  1  0.95165500  0.04616700  0.11961500  1
  H  438  1  0.00362900  0.95166200  0.18628900  1
  H  448  1  0.50423300  0.09287700  0.87281600  1
  H  452  1  0.45366300  0.99807200  0.80759600  1
  H  453  1  0.55667900  0.04615000  0.88866800  1
  H  454  1  0.50466200  0.95160700  0.82198900  1
  H  464  1  0.00422700  0.95005500  0.87282600  1
  H  468  1  0.95364500  0.04486700  0.80758500  1
  H  469  1  0.05663800  0.99683600  0.88867400  1
  H  470  1  0.00461300  0.09132800  0.82198200  1
  H  480  1  0.50400900  0.95013000  0.13546900  1
  H  484  1  0.55464300  0.04492700  0.20071200  1
  H  485  1  0.45159700  0.99687900  0.11964500  1
  H  486  1  0.50367100  0.09139300  0.18631300  1
  H  496  1  0.50408900  0.59293900  0.63544500  1
  H  500  1  0.55464900  0.49811800  0.70071000  1
  H  501  1  0.45166400  0.54615700  0.61961900  1
  H  502  1  0.50366700  0.45166000  0.68628400  1
  H  512  1  0.00428400  0.59288400  0.37283200  1
  H  516  1  0.95367600  0.49808300  0.30759500  1
  H  517  1  0.05671300  0.54614700  0.38866400  1
  H  518  1  0.00466400  0.45161600  0.32199100  1
  H  528  1  0.50421900  0.45007100  0.37283700  1
  H  532  1  0.45369000  0.54490400  0.30757900  1
  H  533  1  0.55665700  0.49685000  0.38867300  1
  H  534  1  0.50468500  0.59134700  0.32200200  1
  H  544  1  0.00408300  0.45013100  0.63549000  1
  H  548  1  0.05466300  0.54493400  0.70071000  1
  H  549  1  0.95163700  0.49686000  0.61964200  1
  H  550  1  0.00366100  0.59139400  0.68632900  1
  H  560  1  0.21957500  0.34264200  0.23676500  1
  H  564  1  0.31930700  0.25502200  0.29023500  1
  H  565  1  0.18871400  0.28841500  0.21801700  1
  H  566  1  0.28909100  0.20071000  0.27152300  1
  H  576  1  0.28849100  0.34229800  0.77222900  1
  H  580  1  0.18887700  0.25537600  0.71799900  1
  H  581  1  0.31973100  0.28807600  0.79034900  1
  H  582  1  0.21945100  0.20106400  0.73607200  1
  H  592  1  0.71950800  0.70036600  0.77153800  1
  H  596  1  0.81930700  0.78800300  0.71807600  1
  H  597  1  0.68868500  0.75457700  0.79027200  1
  H  598  1  0.78908800  0.84229900  0.73677900  1
  H  608  1  0.78844000  0.70068500  0.23607600  1
  H  612  1  0.68884400  0.78761700  0.29029000  1
  H  613  1  0.81973400  0.75490400  0.21796200  1
  H  614  1  0.71941200  0.84193000  0.27222800  1
  C  1  1  0.25429600  0.12188500  0.12764500  1
  C  2  1  0.25403600  0.15637300  0.12562300  1
  C  3  1  0.25401700  0.17036800  0.14608600  1
  C  4  1  0.25435200  0.14525700  0.16164100  1
  C  5  1  0.25482800  0.15441400  0.18375100  1
  C  6  1  0.25485900  0.18847200  0.19041500  1
  C  7  1  0.25424700  0.21271700  0.17388700  1
  C  8  1  0.25384000  0.20399900  0.15201500  1
  C  9  1  0.25390600  0.17139300  0.10520200  1
  C  10  1  0.25390400  0.15143500  0.08651100  1
  C  11  1  0.25403300  0.11625800  0.08764100  1
  C  12  1  0.25425200  0.10220600  0.10877400  1
  C  13  1  0.28964900  0.09022800  0.15668700  1
  C  14  1  0.27510400  0.06031100  0.16502200  1
  C  15  1  0.23338300  0.06037000  0.16504600  1
  C  16  1  0.21902800  0.09027800  0.15663600  1
  C  17  1  0.20738200  0.03474400  0.17148400  1
  C  18  1  0.16558100  0.03886100  0.16908400  1
  C  19  1  0.14879900  0.06817300  0.16012400  1
  C  20  1  0.17638600  0.09403600  0.15414600  1
  C  21  1  0.33238100  0.09415000  0.15467400  1
  C  22  1  0.35977300  0.06822400  0.16076800  1
  C  23  1  0.34276500  0.03870000  0.16929800  1
  C  24  1  0.30092700  0.03451900  0.17136200  1
  C  37  1  0.25437600  0.11200500  0.15080100  1
  C  38  1  0.10667900  0.07014000  0.15694600  1
  C  39  1  0.40214400  0.07066100  0.15922100  1
  C  40  1  0.25396900  0.09478400  0.06966300  1
  C  41  1  0.25629500  0.19836700  0.21221400  1
  C  46  1  0.25407000  0.12263900  0.88114500  1
  C  47  1  0.25432300  0.15729900  0.88211100  1
  C  48  1  0.25432300  0.17037400  0.86151900  1
  C  49  1  0.25398000  0.14470400  0.84641400  1
  C  50  1  0.25353800  0.15344500  0.82418900  1
  C  51  1  0.25356300  0.18740500  0.81718300  1
  C  52  1  0.25416300  0.21205900  0.83343600  1
  C  53  1  0.25452900  0.20387100  0.85532400  1
  C  54  1  0.25443200  0.17429300  0.90178800  1
  C  55  1  0.25450100  0.15622100  0.92106600  1
  C  56  1  0.25454300  0.12102500  0.92132700  1
  C  57  1  0.25420400  0.10461400  0.90086700  1
  C  58  1  0.21867800  0.08998500  0.85223200  1
  C  59  1  0.23320200  0.06009000  0.84384400  1
  C  60  1  0.27490100  0.06015600  0.84379700  1
  C  61  1  0.28925300  0.09002400  0.85227500  1
  C  62  1  0.30087100  0.03465700  0.83711300  1
  C  63  1  0.34268900  0.03882100  0.83936900  1
  C  64  1  0.35950300  0.06808100  0.84837900  1
  C  65  1  0.33193400  0.09386900  0.85452700  1
  C  66  1  0.17591800  0.09399400  0.85400700  1
  C  67  1  0.14853000  0.06815100  0.84774100  1
  C  68  1  0.16555300  0.03867400  0.83915800  1
  C  69  1  0.20739900  0.03443200  0.83724600  1
  C  82  1  0.25394200  0.11188200  0.85800900  1
  C  83  1  0.40165500  0.07006800  0.85142600  1
  C  84  1  0.10614500  0.07062300  0.84913600  1
  C  85  1  0.25452200  0.10389500  0.94116800  1
  C  86  1  0.25214100  0.19720500  0.79537100  1
  C  91  1  0.75379300  0.92111300  0.88066300  1
  C  92  1  0.75371000  0.88662400  0.88268300  1
  C  93  1  0.75375800  0.87263300  0.86221800  1
  C  94  1  0.75401400  0.89774600  0.84666200  1
  C  95  1  0.75454500  0.88859200  0.82455300  1
  C  96  1  0.75471100  0.85453400  0.81788600  1
  C  97  1  0.75419600  0.83028800  0.83441300  1
  C  98  1  0.75375300  0.83900100  0.85628600  1
  C  99  1  0.75379100  0.87160700  0.90310400  1
  C  100  1  0.75384700  0.89156600  0.92179700  1
  C  101  1  0.75388500  0.92676000  0.92067500  1
  C  102  1  0.75389100  0.94079100  0.89953500  1
  C  103  1  0.78925700  0.95274000  0.85173400  1
  C  104  1  0.77486200  0.98260100  0.84326100  1
  C  105  1  0.73319000  0.98269100  0.84328300  1
  C  106  1  0.71865100  0.95277000  0.85160000  1
  C  107  1  0.70737900  0.00848300  0.83692900  1
  C  108  1  0.66554300  0.00430600  0.83898700  1
  C  109  1  0.64853000  0.97478500  0.84751600  1
  C  110  1  0.67591900  0.94885400  0.85360900  1
  C  111  1  0.83190400  0.94894400  0.85416000  1
  C  112  1  0.85939000  0.97483700  0.84815200  1
  C  113  1  0.84230900  0.00410200  0.83923200  1
  C  114  1  0.80066900  0.00826600  0.83680200  1
  C  127  1  0.75391800  0.93099500  0.85750800  1
  C  128  1  0.60615900  0.97235800  0.84907200  1
  C  129  1  0.90159000  0.97284700  0.85133000  1
  C  130  1  0.75399500  0.94842800  0.93865900  1
  C  131  1  0.75616800  0.84464300  0.79608800  1
  C  136  1  0.75453500  0.92035100  0.12715800  1
  C  137  1  0.75460300  0.88569000  0.12619300  1
  C  138  1  0.75455400  0.87261800  0.14678600  1
  C  139  1  0.75430000  0.89828900  0.16188900  1
  C  140  1  0.75380400  0.88955100  0.18411300  1
  C  141  1  0.75370500  0.85559300  0.19111900  1
  C  142  1  0.75419000  0.83093600  0.17486800  1
  C  143  1  0.75459500  0.83912100  0.15298000  1
  C  144  1  0.75449600  0.86869000  0.10651800  1
  C  145  1  0.75449700  0.88675900  0.08723900  1
  C  146  1  0.75465300  0.92195300  0.08697800  1
  C  147  1  0.75451700  0.93837300  0.10743500  1
  C  148  1  0.71903400  0.95299400  0.15598600  1
  C  149  1  0.73330800  0.98286200  0.16449400  1
  C  150  1  0.77506800  0.98290000  0.16449500  1
  C  151  1  0.78962200  0.95300200  0.15611700  1
  C  152  1  0.80087600  0.00857800  0.17106000  1
  C  153  1  0.84272700  0.00434900  0.16914500  1
  C  154  1  0.85976400  0.97486700  0.16057500  1
  C  155  1  0.83238400  0.94901600  0.15431500  1
  C  156  1  0.67635300  0.94912300  0.15374400  1
  C  157  1  0.64863600  0.97483900  0.15989300  1
  C  158  1  0.66500800  0.00416700  0.16896600  1
  C  159  1  0.70706000  0.00828800  0.17116800  1
  C  172  1  0.75437700  0.93111400  0.15029400  1
  C  173  1  0.90214600  0.97240800  0.15915500  1
  C  174  1  0.60658400  0.97287400  0.15686700  1
  C  175  1  0.75452300  0.93907500  0.06713500  1
  C  176  1  0.75223100  0.84579600  0.21293100  1
  C  181  1  0.75448700  0.62188800  0.62766100  1
  C  182  1  0.75458000  0.65637900  0.62565700  1
  C  183  1  0.75454700  0.67034600  0.64613200  1
  C  184  1  0.75428800  0.64520800  0.66167000  1
  C  185  1  0.75367800  0.65431700  0.68378700  1
  C  186  1  0.75346000  0.68835700  0.69047900  1
  C  187  1  0.75402400  0.71263600  0.67397000  1
  C  188  1  0.75452100  0.70396500  0.65209000  1
  C  189  1  0.75441000  0.67141700  0.60524100  1
  C  190  1  0.75418800  0.65147700  0.58654000  1
  C  191  1  0.75415000  0.61629800  0.58765700  1
  C  192  1  0.75429500  0.60222700  0.60878400  1
  C  193  1  0.78965300  0.59020600  0.65671500  1
  C  194  1  0.77510900  0.56026300  0.66500500  1
  C  195  1  0.73338900  0.56033000  0.66502500  1
  C  196  1  0.71903500  0.59023400  0.65660600  1
  C  197  1  0.70737900  0.53471400  0.67146900  1
  C  198  1  0.66557700  0.53885700  0.66909200  1
  C  199  1  0.64880500  0.56817200  0.66012500  1
  C  200  1  0.67639800  0.59402200  0.65413700  1
  C  201  1  0.83238600  0.59412700  0.65469700  1
  C  202  1  0.85978100  0.56820200  0.66079000  1
  C  203  1  0.84277300  0.53867500  0.66931400  1
  C  204  1  0.80093400  0.53448300  0.67136100  1
  C  217  1  0.75438300  0.61197700  0.65080900  1
  C  218  1  0.60669000  0.57015000  0.65694600  1
  C  219  1  0.90215200  0.57063800  0.65923600  1
  C  220  1  0.75396000  0.59484700  0.56967600  1
  C  221  1  0.75192700  0.69820100  0.71228800  1
  C  226  1  0.75392500  0.62264000  0.38114000  1
  C  227  1  0.75379900  0.65730100  0.38208200  1
  C  228  1  0.75375100  0.67034300  0.36147700  1
  C  229  1  0.75404800  0.64464700  0.34639200  1
  C  230  1  0.75459500  0.65333800  0.32416000  1
  C  231  1  0.75474200  0.68728400  0.31712300  1
  C  232  1  0.75420600  0.71197100  0.33333333  1
  C  233  1  0.75374100  0.70382800  0.35525200  1
  C  234  1  0.75396400  0.67432100  0.40175000  1
  C  235  1  0.75429400  0.65628000  0.42104100  1
  C  236  1  0.75450800  0.62108300  0.42132400  1
  C  237  1  0.75421300  0.60464300  0.40087400  1
  C  238  1  0.71871000  0.58996000  0.35220300  1
  C  239  1  0.73323700  0.56006600  0.34382200  1
  C  240  1  0.77493300  0.56012100  0.34381500  1
  C  241  1  0.78928000  0.58996700  0.35233100  1
  C  242  1  0.80091300  0.53462700  0.33713100  1
  C  243  1  0.84272400  0.53880700  0.33938300  1
  C  244  1  0.85952900  0.56807000  0.34839600  1
  C  245  1  0.83195400  0.59384500  0.35455500  1
  C  246  1  0.67594800  0.59396500  0.35398500  1
  C  247  1  0.64855900  0.56812400  0.34771900  1
  C  248  1  0.66558300  0.53864000  0.33914600  1
  C  249  1  0.70743400  0.53439800  0.33723700  1
  C  262  1  0.75396700  0.61184700  0.35801100  1
  C  263  1  0.90168400  0.57008500  0.35141900  1
  C  264  1  0.60617700  0.57059300  0.34913200  1
  C  265  1  0.75460800  0.60397800  0.44117900  1
  C  266  1  0.75627100  0.69703300  0.29530400  1
  C  271  1  0.25398100  0.42111700  0.38063900  1
  C  272  1  0.25426000  0.38662800  0.38264100  1
  C  273  1  0.25428400  0.37266200  0.36216700  1
  C  274  1  0.25393400  0.39780000  0.34662900  1
  C  275  1  0.25339400  0.38868800  0.32451100  1
  C  276  1  0.25331200  0.35464500  0.31781900  1
  C  277  1  0.25397700  0.33036900  0.33432800  1
  C  278  1  0.25443200  0.33904500  0.35620900  1
  C  279  1  0.25431100  0.37158600  0.40305600  1
  C  280  1  0.25415200  0.39152300  0.42175900  1
  C  281  1  0.25399100  0.42670900  0.42064900  1
  C  282  1  0.25393000  0.44077500  0.39951900  1
  C  283  1  0.28927700  0.45276100  0.35166900  1
  C  284  1  0.27492800  0.48267500  0.34326400  1
  C  285  1  0.23320800  0.48274700  0.34330300  1
  C  286  1  0.21865900  0.45281400  0.35160900  1
  C  287  1  0.20738500  0.50853000  0.33694900  1
  C  288  1  0.16554600  0.50433800  0.33900100  1
  C  289  1  0.14854000  0.47481100  0.34752800  1
  C  290  1  0.17593200  0.44889300  0.35362900  1
  C  291  1  0.33192000  0.44897500  0.35413000  1
  C  292  1  0.35951200  0.47483800  0.34815600  1
  C  293  1  0.34273800  0.50415600  0.33919900  1
  C  294  1  0.30093600  0.50828100  0.33680200  1
  C  307  1  0.25392600  0.43103100  0.35749100  1
  C  308  1  0.10617300  0.47237000  0.34907700  1
  C  309  1  0.40163100  0.47286500  0.35133700  1
  C  310  1  0.25395100  0.44824500  0.43863400  1
  C  311  1  0.25182400  0.34479900  0.29601300  1
  C  316  1  0.25439100  0.42036200  0.62716600  1
  C  317  1  0.25407700  0.38570200  0.62622300  1
  C  318  1  0.25397800  0.37265900  0.64682600  1
  C  319  1  0.25434400  0.39835500  0.66191300  1
  C  320  1  0.25485700  0.38966200  0.68414500  1
  C  321  1  0.25487600  0.35571600  0.69118000  1
  C  322  1  0.25422400  0.33103200  0.67494600  1
  C  323  1  0.25380000  0.33917400  0.65305100  1
  C  324  1  0.25402700  0.36868100  0.60655200  1
  C  325  1  0.25428500  0.38673000  0.58726300  1
  C  326  1  0.25461600  0.42192400  0.58698200  1
  C  327  1  0.25453400  0.43836200  0.60743400  1
  C  328  1  0.21908100  0.45302300  0.65599700  1
  C  329  1  0.23342300  0.48288900  0.66448500  1
  C  330  1  0.27512100  0.48295100  0.66445900  1
  C  331  1  0.28965300  0.45305500  0.65607600  1
  C  332  1  0.30092300  0.50861200  0.67105200  1
  C  333  1  0.34277200  0.50436500  0.66914500  1
  C  334  1  0.35979200  0.47488300  0.66056600  1
  C  335  1  0.33240900  0.44904000  0.65430300  1
  C  336  1  0.17640000  0.44916200  0.65376100  1
  C  337  1  0.14882200  0.47494000  0.65991700  1
  C  338  1  0.16563000  0.50420300  0.66893100  1
  C  339  1  0.20744600  0.50838300  0.67117300  1
  C  352  1  0.25440400  0.43115500  0.65029500  1
  C  353  1  0.40217200  0.47240700  0.65915900  1
  C  354  1  0.10666400  0.47294000  0.65688900  1
  C  355  1  0.25460500  0.43904200  0.56713300  1
  C  356  1  0.25637700  0.34596200  0.71299900  1
  C  361  1  0.25367700  0.10367700  0.02752200  1
  C  362  1  0.25441300  0.07589300  0.01347200  1
  C  363  1  0.25526000  0.08022100  0.99070400  1
  C  364  1  0.25554300  0.11224500  0.98130600  1
  C  365  1  0.25570500  0.13982400  0.99550700  1
  C  366  1  0.25497100  0.13566500  0.01833300  1
  C  377  1  0.75362100  0.93950400  0.98080200  1
  C  378  1  0.75411400  0.96711500  0.99486300  1
  C  379  1  0.75501700  0.96275900  0.01761900  1
  C  380  1  0.75550400  0.93072800  0.02700300  1
  C  381  1  0.75583400  0.90316400  0.01278900  1
  C  382  1  0.75513500  0.90736900  0.98996300  1
  C  393  1  0.75377800  0.60374200  0.52753500  1
  C  394  1  0.75448200  0.57594800  0.51347900  1
  C  395  1  0.75533000  0.58029000  0.49071100  1
  C  396  1  0.75561400  0.61231500  0.48131300  1
  C  397  1  0.75586100  0.63987500  0.49552700  1
  C  398  1  0.75514700  0.63571700  0.51834800  1
  C  409  1  0.25370300  0.43934800  0.48078000  1
  C  410  1  0.25445100  0.46708900  0.49482300  1
  C  411  1  0.25529900  0.46274700  0.51758900  1
  C  412  1  0.25554600  0.43072000  0.52699200  1
  C  413  1  0.25571700  0.40314300  0.51278800  1
  C  414  1  0.25498500  0.40731300  0.48996200  1
  C  425  1  0.96378700  0.00776900  0.15905800  1
  C  426  1  0.97426400  0.03597400  0.14673600  1
  C  427  1  0.01390500  0.04970600  0.14730500  1
  C  428  1  0.04414700  0.03534300  0.16039400  1
  C  429  1  0.03342200  0.00749600  0.17306700  1
  C  430  1  0.99378500  0.99363100  0.17240700  1
  C  441  1  0.54452200  0.00769600  0.84922200  1
  C  442  1  0.53407200  0.03589500  0.86155300  1
  C  443  1  0.49442700  0.04962600  0.86100200  1
  C  444  1  0.46416200  0.03527100  0.84792300  1
  C  445  1  0.47487000  0.00743200  0.83523800  1
  C  446  1  0.51450700  0.99357100  0.83587700  1
  C  457  1  0.04449800  0.03524800  0.84923300  1
  C  458  1  0.03403600  0.00703500  0.86155300  1
  C  459  1  0.99440200  0.99328700  0.86098100  1
  C  460  1  0.96414900  0.00764100  0.84789100  1
  C  461  1  0.97486500  0.03549700  0.83522200  1
  C  462  1  0.01449400  0.04937700  0.83588500  1
  C  473  1  0.46378300  0.03531100  0.15908700  1
  C  474  1  0.47422000  0.00710400  0.14675900  1
  C  475  1  0.51385400  0.99335900  0.14731000  1
  C  476  1  0.54412400  0.00770700  0.16038800  1
  C  477  1  0.53343400  0.03555200  0.17307200  1
  C  478  1  0.49380500  0.04942900  0.17242900  1
  C  489  1  0.46381400  0.50776800  0.65906200  1
  C  490  1  0.47427800  0.53597700  0.64674100  1
  C  491  1  0.51391800  0.54971700  0.64730900  1
  C  492  1  0.54416100  0.53535700  0.66039900  1
  C  493  1  0.53344400  0.50750600  0.67307200  1
  C  494  1  0.49381300  0.49363400  0.67241000  1
  C  505  1  0.04453600  0.50770500  0.34922000  1
  C  506  1  0.03409400  0.53591000  0.36155000  1
  C  507  1  0.99445400  0.54964700  0.36099700  1
  C  508  1  0.96418900  0.53529200  0.34791900  1
  C  509  1  0.97488700  0.50744600  0.33523500  1
  C  510  1  0.01452200  0.49358000  0.33587800  1
  C  521  1  0.54452500  0.53523700  0.34922800  1
  C  522  1  0.53404900  0.50703300  0.36155200  1
  C  523  1  0.49440600  0.49330100  0.36098100  1
  C  524  1  0.46416600  0.50766300  0.34789200  1
  C  525  1  0.47489200  0.53551100  0.33521900  1
  C  526  1  0.51452900  0.54937600  0.33587900  1
  C  537  1  0.96379700  0.53530700  0.65908800  1
  C  538  1  0.97424600  0.50710800  0.64675700  1
  C  539  1  0.01389000  0.49337800  0.64730800  1
  C  540  1  0.04415500  0.50773500  0.66038600  1
  C  541  1  0.03344800  0.53557600  0.67307000  1
  C  542  1  0.99381000  0.54943800  0.67243000  1
  C  553  1  0.25369200  0.24833500  0.23627900  1
  C  554  1  0.23545600  0.28009500  0.23475300  1
  C  555  1  0.23585000  0.30316600  0.25214200  1
  C  556  1  0.25438300  0.29485200  0.27192200  1
  C  557  1  0.27257100  0.26307300  0.27345200  1
  C  558  1  0.27221800  0.24000800  0.25605900  1
  C  569  1  0.25479600  0.24780700  0.77169300  1
  C  570  1  0.27300100  0.27953500  0.77361500  1
  C  571  1  0.27245800  0.30311600  0.75652400  1
  C  572  1  0.25376600  0.29537700  0.73670300  1
  C  573  1  0.23561000  0.26363300  0.73477500  1
  C  574  1  0.23611100  0.24005500  0.75187100  1
  C  585  1  0.75364200  0.79467100  0.77202200  1
  C  586  1  0.73543300  0.76289700  0.77354200  1
  C  587  1  0.73586400  0.73982400  0.75615500  1
  C  588  1  0.75440800  0.74815100  0.73638000  1
  C  589  1  0.77256700  0.77994000  0.73485300  1
  C  590  1  0.77218000  0.80300800  0.75224400  1
  C  601  1  0.75482000  0.79519100  0.23660900  1
  C  602  1  0.77299800  0.76345500  0.23469100  1
  C  603  1  0.77242000  0.73987100  0.25178000  1
  C  604  1  0.75371800  0.74761800  0.27159700  1
  C  605  1  0.73558600  0.77937200  0.27352200  1
  C  606  1  0.73612200  0.80295100  0.25642600  1
  N  375  1  0.25382900  0.09846000  0.04897500  1
  N  376  1  0.25563300  0.11829500  0.95985200  1
  N  391  1  0.75381600  0.94416400  0.95930100  1
  N  392  1  0.75565000  0.92467000  0.04845400  1
  N  407  1  0.75386900  0.59848100  0.54898400  1
  N  408  1  0.75568100  0.61839100  0.45985900  1
  N  423  1  0.25382600  0.44429700  0.45930200  1
  N  424  1  0.25566300  0.42464900  0.54844600  1
  N  439  1  0.92485000  0.99860200  0.15934000  1
  N  440  1  0.08280100  0.04542700  0.16101700  1
  N  455  1  0.58346300  0.99855500  0.84887700  1
  N  456  1  0.42549200  0.04532800  0.84735500  1
  N  471  1  0.08343000  0.04443200  0.84896100  1
  N  472  1  0.92547900  0.99755400  0.84726800  1
  N  487  1  0.42484500  0.04446800  0.15942100  1
  N  488  1  0.58276500  0.99762800  0.16094700  1
  N  503  1  0.42488200  0.49859600  0.65933900  1
  N  504  1  0.58281000  0.54544200  0.66102100  1
  N  519  1  0.08347200  0.49856100  0.34888100  1
  N  520  1  0.92552200  0.54534300  0.34735500  1
  N  535  1  0.58346000  0.54440400  0.34895000  1
  N  536  1  0.42551400  0.49757800  0.34726700  1
  N  551  1  0.92485300  0.54444600  0.65943100  1
  N  552  1  0.08282600  0.49768200  0.66095100  1
  N  567  1  0.25345200  0.22900600  0.21850800  1
  N  568  1  0.25463100  0.31417100  0.28969400  1
  N  583  1  0.25505400  0.22788800  0.78915400  1
  N  584  1  0.25349100  0.31529200  0.71924200  1
  N  599  1  0.75336300  0.81400300  0.78979000  1
  N  600  1  0.75470200  0.72882900  0.71860900  1
  N  615  1  0.75511900  0.81511400  0.21915100  1
  N  616  1  0.75341100  0.72770300  0.28905800  1
  O  367  1  0.26075400  0.05362100  0.97759600  1
  O  369  1  0.25325100  0.04539300  0.02314800  1
  O  370  1  0.26145500  0.17039400  0.98653900  1
  O  371  1  0.25642400  0.16134100  0.03267000  1
  O  383  1  0.76038300  0.98936900  0.03074500  1
  O  385  1  0.75219300  0.99764100  0.98530200  1
  O  386  1  0.76176900  0.87260100  0.02172800  1
  O  387  1  0.75740400  0.88169800  0.97563600  1
  O  399  1  0.76082400  0.55369000  0.47760700  1
  O  401  1  0.75357200  0.54545500  0.52317800  1
  O  402  1  0.76166500  0.67046300  0.48661300  1
  O  403  1  0.75714700  0.66139600  0.53266300  1
  O  415  1  0.26092300  0.48932500  0.53070600  1
  O  417  1  0.25358000  0.49754300  0.48508700  1
  O  418  1  0.26148800  0.37257000  0.52174200  1
  O  419  1  0.25652500  0.38161700  0.47563000  1
  O  431  1  0.02437500  0.07513000  0.13400900  1
  O  433  1  0.94508500  0.05092000  0.13473800  1
  O  434  1  0.06222100  0.99329700  0.18572200  1
  O  435  1  0.98243100  0.96886900  0.18607300  1
  O  447  1  0.48398700  0.07504800  0.87430400  1
  O  449  1  0.56327100  0.05083800  0.87353700  1
  O  450  1  0.44606100  0.99324900  0.82258000  1
  O  451  1  0.52584700  0.96882400  0.82219500  1
  O  463  1  0.98394100  0.96785700  0.87427400  1
  O  465  1  0.06321900  0.99209600  0.87355000  1
  O  466  1  0.94605700  0.04968900  0.82256900  1
  O  467  1  0.02584200  0.07414900  0.82222200  1
  O  479  1  0.52429100  0.96793500  0.13400800  1
  O  481  1  0.44501300  0.99217100  0.13477300  1
  O  482  1  0.56225000  0.04972800  0.18572700  1
  O  483  1  0.48247400  0.07418500  0.18610700  1
  O  495  1  0.52438500  0.57514100  0.63401500  1
  O  497  1  0.44509900  0.55091700  0.63474300  1
  O  498  1  0.56224700  0.49330800  0.68572500  1
  O  499  1  0.48246500  0.46886500  0.68607400  1
  O  511  1  0.98401300  0.57507200  0.37429800  1
  O  513  1  0.06329700  0.55085000  0.37353500  1
  O  514  1  0.94607700  0.49326600  0.32258000  1
  O  515  1  0.02585800  0.46882500  0.32220000  1
  O  527  1  0.48393600  0.46787600  0.37427700  1
  O  529  1  0.56322500  0.49208800  0.37355100  1
  O  530  1  0.44609200  0.54971200  0.32256400  1
  O  531  1  0.52588000  0.57414200  0.32221500  1
  O  543  1  0.02433300  0.46795600  0.63400700  1
  O  545  1  0.94504700  0.49216500  0.63477000  1
  O  546  1  0.06225600  0.54976200  0.68572600  1
  O  547  1  0.98246700  0.57418700  0.68611100  1
  O  559  1  0.21533200  0.33249400  0.25097700  1
  O  561  1  0.21824500  0.28898000  0.21576200  1
  O  562  1  0.28977400  0.25419800  0.29244800  1
  O  563  1  0.29270100  0.21065200  0.25720300  1
  O  575  1  0.29301400  0.33239400  0.75797000  1
  O  577  1  0.29022000  0.28788900  0.79270700  1
  O  578  1  0.21839900  0.25528900  0.71568000  1
  O  579  1  0.21559000  0.21075000  0.75044500  1
  O  591  1  0.71537400  0.71047900  0.75730800  1
  O  593  1  0.71821400  0.75400200  0.79253000  1
  O  594  1  0.78977500  0.78882700  0.71586000  1
  O  595  1  0.79263300  0.83237800  0.75110900  1
  O  607  1  0.79295200  0.71058300  0.25033600  1
  O  609  1  0.79022300  0.75509300  0.21560100  1
  O  610  1  0.71836400  0.78772100  0.29261100  1
  O  611  1  0.71562300  0.83226800  0.25784200  1
