# generated using pymatgen
data_Cd3H20C30(NO2)5
_symmetry_space_group_name_H-M   'P 1'
_cell_length_a   12.08004000
_cell_length_b   12.35950000
_cell_length_c   19.28403000
_cell_angle_alpha   92.19470000
_cell_angle_beta   95.82186000
_cell_angle_gamma   117.81484000
_symmetry_Int_Tables_number   1
_chemical_formula_structural   Cd3H20C30(NO2)5
_chemical_formula_sum   'Cd6 H40 C60 N10 O20'
_cell_volume   2521.35081516
_cell_formula_units_Z   2
loop_
 _symmetry_equiv_pos_site_id
 _symmetry_equiv_pos_as_xyz
  1  'x, y, z'
loop_
 _atom_site_type_symbol
 _atom_site_label
 _atom_site_symmetry_multiplicity
 _atom_site_fract_x
 _atom_site_fract_y
 _atom_site_fract_z
 _atom_site_occupancy
  Cd  Cd0  1  0.75847000  0.50465000  0.76216000  1
  Cd  Cd1  1  0.58606000  0.66912000  0.69860000  1
  Cd  Cd2  1  0.42962000  0.32650000  0.80294000  1
  Cd  Cd3  1  0.24152000  0.49535000  0.23784000  1
  Cd  Cd4  1  0.41393000  0.33088000  0.30140000  1
  Cd  Cd5  1  0.57038000  0.67350000  0.19706000  1
  H  H6  1  0.71082000  0.52214000  0.97346000  1
  H  H7  1  0.69451000  0.56219000  0.09966000  1
  H  H8  1  0.08517000  0.32547000  0.78651000  1
  H  H9  1  0.22102000  0.66005000  0.68466000  1
  H  H10  1  0.73110000  0.15379000  0.68744000  1
  H  H11  1  0.44751000  0.97766000  0.82237000  1
  H  H12  1  0.44348000  0.77817000  0.78515000  1
  H  H13  1  0.71661000  0.94764000  0.65613000  1
  H  H14  1  0.87960000  0.32988000  0.78739000  1
  H  H15  1  0.01577000  0.65898000  0.69698000  1
  H  H16  1  0.95900000  0.00486000  0.66903000  1
  H  H17  1  0.09777000  0.85618000  0.83367000  1
  H  H18  1  0.16551000  0.20043000  0.69381000  1
  H  H19  1  0.29794000  0.05832000  0.85282000  1
  H  H20  1  0.29183000  0.23818000  0.56222000  1
  H  H21  1  0.68651000  0.48481000  0.55743000  1
  H  H22  1  0.64387000  0.44625000  0.42589000  1
  H  H23  1  0.26250000  0.22061000  0.43026000  1
  H  H24  1  0.53857000  0.75101000  0.92191000  1
  H  H25  1  0.51749000  0.77181000  0.04951000  1
  H  H26  1  0.28917000  0.47786000  0.02654000  1
  H  H27  1  0.30549000  0.43781000  0.90034000  1
  H  H28  1  0.91482000  0.67453000  0.21349000  1
  H  H29  1  0.77897000  0.33994000  0.31534000  1
  H  H30  1  0.26889000  0.84621000  0.31256000  1
  H  H31  1  0.55248000  0.02234000  0.17763000  1
  H  H32  1  0.55651000  0.22182000  0.21485000  1
  H  H33  1  0.28338000  0.05236000  0.34387000  1
  H  H34  1  0.12039000  0.67012000  0.21261000  1
  H  H35  1  0.98422000  0.34101000  0.30302000  1
  H  H36  1  0.04099000  0.99514000  0.33097000  1
  H  H37  1  0.90222000  0.14382000  0.16633000  1
  H  H38  1  0.83448000  0.79956000  0.30619000  1
  H  H39  1  0.70205000  0.94167000  0.14718000  1
  H  H40  1  0.70817000  0.76182000  0.43778000  1
  H  H41  1  0.31348000  0.51518000  0.44257000  1
  H  H42  1  0.35612000  0.55375000  0.57411000  1
  H  H43  1  0.73750000  0.77939000  0.56973000  1
  H  H44  1  0.46142000  0.24899000  0.07809000  1
  H  H45  1  0.48250000  0.22819000  0.95049000  1
  C  C46  1  0.17076000  0.49387000  0.73640000  1
  C  C47  1  0.29649000  0.49662000  0.73738000  1
  C  C48  1  0.67027000  0.58023000  0.98860000  1
  C  C49  1  0.62533000  0.63342000  0.93715000  1
  C  C50  1  0.62806000  0.60878000  0.86151000  1
  C  C51  1  0.89038000  0.79621000  0.73860000  1
  C  C52  1  0.51324000  0.38800000  0.64771000  1
  C  C53  1  0.66043000  0.60107000  0.05827000  1
  C  C54  1  0.07211000  0.39970000  0.76539000  1
  C  C55  1  0.01212000  0.91531000  0.75016000  1
  C  C56  1  0.59848000  0.20348000  0.77900000  1
  C  C57  1  0.14837000  0.58686000  0.70896000  1
  C  C58  1  0.59141000  0.08182000  0.75842000  1
  C  C59  1  0.66734000  0.07246000  0.71044000  1
  C  C60  1  0.50866000  0.97404000  0.78574000  1
  C  C61  1  0.50591000  0.86378000  0.76515000  1
  C  C62  1  0.65880000  0.95862000  0.69266000  1
  C  C63  1  0.95909000  0.40256000  0.76710000  1
  C  C64  1  0.03423000  0.58579000  0.71476000  1
  C  C65  1  0.03216000  0.01374000  0.71011000  1
  C  C66  1  0.10993000  0.93099000  0.80213000  1
  C  C67  1  0.14607000  0.12210000  0.72376000  1
  C  C68  1  0.22036000  0.04246000  0.81275000  1
  C  C69  1  0.49228000  0.36396000  0.57025000  1
  C  C70  1  0.37157000  0.28624000  0.53369000  1
  C  C71  1  0.59239000  0.42298000  0.53080000  1
  C  C72  1  0.56900000  0.40321000  0.45837000  1
  C  C73  1  0.35502000  0.27484000  0.46098000  1
  C  C74  1  0.57275000  0.70692000  0.95990000  1
  C  C75  1  0.56238000  0.71992000  0.03043000  1
  C  C76  1  0.82923000  0.50613000  0.26360000  1
  C  C77  1  0.70350000  0.50338000  0.26262000  1
  C  C78  1  0.32973000  0.41977000  0.01140000  1
  C  C79  1  0.37466000  0.36658000  0.06285000  1
  C  C80  1  0.37193000  0.39122000  0.13849000  1
  C  C81  1  0.10961000  0.20379000  0.26140000  1
  C  C82  1  0.48675000  0.61199000  0.35229000  1
  C  C83  1  0.33956000  0.39893000  0.94173000  1
  C  C84  1  0.92788000  0.60030000  0.23461000  1
  C  C85  1  0.98787000  0.08469000  0.24984000  1
  C  C86  1  0.40151000  0.79652000  0.22099000  1
  C  C87  1  0.85163000  0.41314000  0.29104000  1
  C  C88  1  0.40858000  0.91818000  0.24157000  1
  C  C89  1  0.33265000  0.92754000  0.28956000  1
  C  C90  1  0.49133000  0.02596000  0.21426000  1
  C  C91  1  0.49408000  0.13622000  0.23485000  1
  C  C92  1  0.34119000  0.04138000  0.30734000  1
  C  C93  1  0.04091000  0.59744000  0.23290000  1
  C  C94  1  0.96576000  0.41421000  0.28524000  1
  C  C95  1  0.96784000  0.98626000  0.28989000  1
  C  C96  1  0.89006000  0.06901000  0.19787000  1
  C  C97  1  0.85393000  0.87790000  0.27624000  1
  C  C98  1  0.77963000  0.95753000  0.18725000  1
  C  C99  1  0.50771000  0.63604000  0.42975000  1
  C  C100  1  0.62842000  0.71375000  0.46631000  1
  C  C101  1  0.40760000  0.57702000  0.46920000  1
  C  C102  1  0.43099000  0.59679000  0.54163000  1
  C  C103  1  0.64497000  0.72516000  0.53902000  1
  C  C104  1  0.42725000  0.29307000  0.04010000  1
  C  C105  1  0.43761000  0.28008000  0.96957000  1
  N  N106  1  0.57983000  0.85520000  0.71946000  1
  N  N107  1  0.93974000  0.49544000  0.74352000  1
  N  N108  1  0.23905000  0.13758000  0.77470000  1
  N  N109  1  0.45181000  0.33183000  0.42320000  1
  N  N110  1  0.60534000  0.66796000  0.07974000  1
  N  N111  1  0.42017000  0.14479000  0.28054000  1
  N  N112  1  0.06025000  0.50456000  0.25648000  1
  N  N113  1  0.76094000  0.86241000  0.22530000  1
  N  N114  1  0.54818000  0.66817000  0.57680000  1
  N  N115  1  0.39466000  0.33203000  0.92026000  1
  O  O116  1  0.61796000  0.68114000  0.81975000  1
  O  O117  1  0.61327000  0.48967000  0.67358000  1
  O  O118  1  0.36810000  0.56269000  0.69489000  1
  O  O119  1  0.63808000  0.51096000  0.84375000  1
  O  O120  1  0.52699000  0.20587000  0.82269000  1
  O  O121  1  0.31957000  0.43370000  0.78181000  1
  O  O122  1  0.80431000  0.78826000  0.69155000  1
  O  O123  1  0.43384000  0.31227000  0.68275000  1
  O  O124  1  0.88603000  0.71318000  0.77737000  1
  O  O125  1  0.67674000  0.29454000  0.75035000  1
  O  O126  1  0.38203000  0.31886000  0.18025000  1
  O  O127  1  0.38672000  0.51032000  0.32642000  1
  O  O128  1  0.63189000  0.43731000  0.30511000  1
  O  O129  1  0.36191000  0.48903000  0.15625000  1
  O  O130  1  0.47301000  0.79412000  0.17731000  1
  O  O131  1  0.68043000  0.56630000  0.21819000  1
  O  O132  1  0.19568000  0.21173000  0.30845000  1
  O  O133  1  0.56615000  0.68772000  0.31725000  1
  O  O134  1  0.11396000  0.28682000  0.22263000  1
  O  O135  1  0.32325000  0.70545000  0.24965000  1
