# generated using pymatgen
data_Zn2H23C40(ClO5)2
_symmetry_space_group_name_H-M   'P 1'
_cell_length_a   10.23018000
_cell_length_b   16.87222000
_cell_length_c   19.96189000
_cell_angle_alpha   89.91184000
_cell_angle_beta   78.46182000
_cell_angle_gamma   89.87275000
_symmetry_Int_Tables_number   1
_chemical_formula_structural   Zn2H23C40(ClO5)2
_chemical_formula_sum   'Zn4 H46 C80 Cl4 O20'
_cell_volume   3375.89980222
_cell_formula_units_Z   2
loop_
 _symmetry_equiv_pos_site_id
 _symmetry_equiv_pos_as_xyz
  1  'x, y, z'
loop_
 _atom_site_type_symbol
 _atom_site_label
 _atom_site_symmetry_multiplicity
 _atom_site_fract_x
 _atom_site_fract_y
 _atom_site_fract_z
 _atom_site_occupancy
  Zn  Zn0  1  0.49056000  0.66062000  0.61819000  1
  Zn  Zn1  1  0.70257000  0.58151000  0.52277000  1
  Zn  Zn2  1  0.50971000  0.16043000  0.38201000  1
  Zn  Zn3  1  0.29536000  0.08163000  0.47956000  1
  H  H4  1  0.58569000  0.93733000  0.28094000  1
  H  H5  1  0.70254000  0.70067000  0.33021000  1
  H  H6  1  0.90550000  0.78429000  0.28848000  1
  H  H7  1  0.19710000  0.71553000  0.11187000  1
  H  H8  1  0.03109000  0.73377000  0.03823000  1
  H  H9  1  0.37065000  0.80185000  0.12751000  1
  H  H10  1  0.43751000  0.89937000  0.12072000  1
  H  H11  1  0.35420000  0.80841000  0.00187000  1
  H  H12  1  0.25855000  0.88394000  0.05092000  1
  H  H13  1  0.41610000  0.90697000  0.99786000  1
  H  H14  1  0.50537000  0.82898000  0.20160000  1
  H  H15  1  0.77600000  0.91967000  0.03346000  1
  H  H16  1  0.79380000  0.03149000  0.95148000  1
  H  H17  1  0.90047000  0.87010000  0.78278000  1
  H  H18  1  0.89894000  0.61431000  0.88674000  1
  H  H19  1  0.97875000  0.55158000  0.97937000  1
  H  H20  1  0.81874000  0.52702000  0.96306000  1
  H  H21  1  0.73782000  0.49233000  0.08650000  1
  H  H22  1  0.88383000  0.43621000  0.05217000  1
  H  H23  1  0.89499000  0.51954000  0.10490000  1
  H  H24  1  0.14086000  0.71983000  0.78694000  1
  H  H25  1  0.04467000  0.64545000  0.59725000  1
  H  H26  1  0.72922000  0.70971000  0.76607000  1
  H  H27  1  0.41238000  0.43762000  0.71834000  1
  H  H28  1  0.29722000  0.20025000  0.67208000  1
  H  H29  1  0.09493000  0.28460000  0.71176000  1
  H  H30  1  0.80351000  0.21553000  0.88827000  1
  H  H31  1  0.96906000  0.23389000  0.96208000  1
  H  H32  1  0.62934000  0.30186000  0.87255000  1
  H  H33  1  0.56189000  0.39939000  0.87926000  1
  H  H34  1  0.64590000  0.30829000  0.99819000  1
  H  H35  1  0.74121000  0.38376000  0.94902000  1
  H  H36  1  0.58357000  0.40691000  0.00204000  1
  H  H37  1  0.49429000  0.32951000  0.79871000  1
  H  H38  1  0.22389000  0.41961000  0.96666000  1
  H  H39  1  0.20588000  0.53121000  0.04864000  1
  H  H40  1  0.09987000  0.36944000  0.21735000  1
  H  H41  1  0.10150000  0.11402000  0.11349000  1
  H  H42  1  0.02124000  0.05193000  0.02079000  1
  H  H43  1  0.18122000  0.02684000  0.03713000  1
  H  H44  1  0.26223000  0.99251000  0.91366000  1
  H  H45  1  0.11641000  0.93649000  0.94796000  1
  H  H46  1  0.10498000  0.02008000  0.89529000  1
  H  H47  1  0.85959000  0.21943000  0.21324000  1
  H  H48  1  0.95669000  0.14581000  0.40325000  1
  H  H49  1  0.27128000  0.21022000  0.23428000  1
  C  C50  1  0.60591000  0.70904000  0.46773000  1
  C  C51  1  0.59797000  0.77012000  0.41482000  1
  C  C52  1  0.53374000  0.84121000  0.43139000  1
  C  C53  1  0.52838000  0.90246000  0.38679000  1
  C  C54  1  0.58814000  0.88948000  0.31746000  1
  C  C55  1  0.64875000  0.81660000  0.29605000  1
  C  C56  1  0.65541000  0.75769000  0.34514000  1
  C  C57  1  0.46322000  0.97942000  0.40913000  1
  C  C58  1  0.69782000  0.80276000  0.22173000  1
  C  C59  1  0.83195000  0.77962000  0.19344000  1
  C  C60  1  0.93072000  0.77180000  0.23408000  1
  C  C61  1  0.05895000  0.74931000  0.20442000  1
  C  C62  1  0.09577000  0.73418000  0.13353000  1
  C  C63  1  0.00251000  0.74365000  0.09299000  1
  C  C64  1  0.86863000  0.76637000  0.12081000  1
  C  C65  1  0.77420000  0.77750000  0.07778000  1
  C  C66  1  0.64488000  0.80206000  0.10736000  1
  C  C67  1  0.42744000  0.84504000  0.09181000  1
  C  C68  1  0.36052000  0.86213000  0.03194000  1
  C  C69  1  0.60778000  0.81362000  0.17884000  1
  C  C70  1  0.81243000  0.76411000  0.00282000  1
  C  C71  1  0.82416000  0.82879000  0.95590000  1
  C  C72  1  0.80159000  0.90844000  0.97881000  1
  C  C73  1  0.81156000  0.97090000  0.93349000  1
  C  C74  1  0.84653000  0.95624000  0.86237000  1
  C  C75  1  0.87198000  0.88037000  0.83748000  1
  C  C76  1  0.86119000  0.81514000  0.88341000  1
  C  C77  1  0.88791000  0.73596000  0.85967000  1
  C  C78  1  0.87782000  0.67408000  0.90605000  1
  C  C79  1  0.83903000  0.68731000  0.97726000  1
  C  C80  1  0.87166000  0.54871000  0.00226000  1
  C  C81  1  0.84513000  0.49619000  0.06530000  1
  C  C82  1  0.92967000  0.71673000  0.78562000  1
  C  C83  1  0.06554000  0.70796000  0.75678000  1
  C  C84  1  0.10663000  0.68291000  0.68894000  1
  C  C85  1  0.01183000  0.66623000  0.64942000  1
  C  C86  1  0.87620000  0.67696000  0.67713000  1
  C  C87  1  0.83520000  0.70262000  0.74505000  1
  C  C88  1  0.25075000  0.67278000  0.65855000  1
  C  C89  1  0.77498000  0.65895000  0.63519000  1
  C  C90  1  0.39126000  0.20713000  0.53465000  1
  C  C91  1  0.40071000  0.26887000  0.58647000  1
  C  C92  1  0.46518000  0.33966000  0.56896000  1
  C  C93  1  0.47007000  0.40150000  0.61293000  1
  C  C94  1  0.41060000  0.38921000  0.68241000  1
  C  C95  1  0.35083000  0.31651000  0.70456000  1
  C  C96  1  0.34391000  0.25709000  0.65626000  1
  C  C97  1  0.53414000  0.47872000  0.59061000  1
  C  C98  1  0.30197000  0.30320000  0.77882000  1
  C  C99  1  0.16805000  0.27997000  0.80698000  1
  C  C100  1  0.06961000  0.27208000  0.76619000  1
  C  C101  1  0.94156000  0.24944000  0.79577000  1
  C  C102  1  0.90471000  0.23428000  0.86668000  1
  C  C103  1  0.99770000  0.24379000  0.90731000  1
  C  C104  1  0.13143000  0.26658000  0.87956000  1
  C  C105  1  0.22590000  0.27758000  0.92251000  1
  C  C106  1  0.35506000  0.30228000  0.89299000  1
  C  C107  1  0.57239000  0.34504000  0.90823000  1
  C  C108  1  0.63934000  0.36204000  0.96803000  1
  C  C109  1  0.39202000  0.31414000  0.82158000  1
  C  C110  1  0.18773000  0.26400000  0.99740000  1
  C  C111  1  0.17600000  0.32859000  0.04426000  1
  C  C112  1  0.19839000  0.40826000  0.02132000  1
  C  C113  1  0.18830000  0.47060000  0.06663000  1
  C  C114  1  0.15345000  0.45577000  0.13775000  1
  C  C115  1  0.12820000  0.37987000  0.16265000  1
  C  C116  1  0.13904000  0.31479000  0.11673000  1
  C  C117  1  0.11237000  0.23561000  0.14052000  1
  C  C118  1  0.12246000  0.17381000  0.09417000  1
  C  C119  1  0.16113000  0.18718000  0.02295000  1
  C  C120  1  0.12833000  0.04881000  0.99791000  1
  C  C121  1  0.15491000  0.99647000  0.93487000  1
  C  C122  1  0.07077000  0.21654000  0.21464000  1
  C  C123  1  0.93494000  0.20782000  0.24349000  1
  C  C124  1  0.89373000  0.18305000  0.31144000  1
  C  C125  1  0.98871000  0.16648000  0.35098000  1
  C  C126  1  0.12430000  0.17719000  0.32329000  1
  C  C127  1  0.16538000  0.20278000  0.25532000  1
  C  C128  1  0.74953000  0.17275000  0.34155000  1
  C  C129  1  0.22478000  0.15953000  0.36593000  1
  Cl  Cl130  1  0.18067000  0.74033000  0.25419000  1
  Cl  Cl131  1  0.85867000  0.03645000  0.80626000  1
  Cl  Cl132  1  0.82012000  0.24038000  0.74590000  1
  Cl  Cl133  1  0.14116000  0.53579000  0.19388000  1
  O  O134  1  0.54600000  0.72224000  0.52867000  1
  O  O135  1  0.67592000  0.64662000  0.44751000  1
  O  O136  1  0.38285000  0.98019000  0.46803000  1
  O  O137  1  0.48698000  0.03907000  0.36998000  1
  O  O138  1  0.33812000  0.69459000  0.69358000  1
  O  O139  1  0.28661000  0.64316000  0.59929000  1
  O  O140  1  0.81816000  0.61925000  0.57948000  1
  O  O141  1  0.65620000  0.68240000  0.65627000  1
  O  O142  1  0.55859000  0.81325000  0.06396000  1
  O  O143  1  0.82427000  0.62730000  0.02416000  1
  O  O144  1  0.45398000  0.21796000  0.47388000  1
  O  O145  1  0.31698000  0.14661000  0.55557000  1
  O  O146  1  0.61660000  0.47990000  0.53233000  1
  O  O147  1  0.50740000  0.53828000  0.62963000  1
  O  O148  1  0.66215000  0.19462000  0.30643000  1
  O  O149  1  0.71340000  0.14285000  0.40075000  1
  O  O150  1  0.18176000  0.11890000  0.42106000  1
  O  O151  1  0.34287000  0.18448000  0.34616000  1
  O  O152  1  0.44149000  0.31323000  0.93624000  1
  O  O153  1  0.17577000  0.12733000  0.97600000  1
