# generated using pymatgen
data_Zn3H20C31N2O15
_symmetry_space_group_name_H-M   'P 1'
_cell_length_a   11.74615000
_cell_length_b   13.46135000
_cell_length_c   15.74472000
_cell_angle_alpha   113.93704000
_cell_angle_beta   99.04007000
_cell_angle_gamma   102.19968000
_symmetry_Int_Tables_number   1
_chemical_formula_structural   Zn3H20C31N2O15
_chemical_formula_sum   'Zn6 H40 C62 N4 O30'
_cell_volume   2140.27093943
_cell_formula_units_Z   2
loop_
 _symmetry_equiv_pos_site_id
 _symmetry_equiv_pos_as_xyz
  1  'x, y, z'
loop_
 _atom_site_type_symbol
 _atom_site_label
 _atom_site_symmetry_multiplicity
 _atom_site_fract_x
 _atom_site_fract_y
 _atom_site_fract_z
 _atom_site_occupancy
  Zn  Zn1  1  0.35171000  0.34578000  0.65463000  1.0
  Zn  Zn2  1  0.47831000  0.80625000  0.30834000  1.0
  Zn  Zn3  1  0.09198000  0.43600000  0.69154000  1.0
  Zn  Zn4  1  0.64829000  0.65421000  0.34537000  1.0
  Zn  Zn5  1  0.52168000  0.19375000  0.69166000  1.0
  Zn  Zn6  1  0.90801000  0.56399000  0.30846000  1.0
  H  H1  1  0.11836000  0.00569000  0.37702000  1.0
  H  H2  1  0.89840000  0.83673000  0.29391000  1.0
  H  H3  1  0.53462000  0.65255000  0.94986000  1.0
  H  H4  1  0.65420000  0.74107000  0.14342000  1.0
  H  H5  1  0.18022000  0.73136000  0.64034000  1.0
  H  H6  1  0.26370000  0.82150000  0.52460000  1.0
  H  H7  1  0.99603000  0.45448000  0.41681000  1.0
  H  H8  1  0.16682000  0.37750000  0.44328000  1.0
  H  H9  1  0.12449000  0.54626000  0.21985000  1.0
  H  H10  1  0.29974000  0.47210000  0.23810000  1.0
  H  H11  1  0.35762000  0.35304000  0.41642000  1.0
  H  H12  1  0.43832000  0.44834000  0.38076000  1.0
  H  H13  1  0.35107000  0.30102000  0.20548000  1.0
  H  H14  1  0.44849000  0.26512000  0.27684000  1.0
  H  H15  1  0.18889000  0.17903000  0.27161000  1.0
  H  H16  1  0.21254000  0.12517000  0.15572000  1.0
  H  H17  1  0.31843000  0.98446000  0.10482000  1.0
  H  H18  1  0.31481000  0.14550000  0.40386000  1.0
  H  H19  1  0.40303000  0.00293000  0.42759000  1.0
  H  H20  1  0.40372000  0.84552000  0.13981000  1.0
  H  H21  1  0.88164000  0.99431000  0.62298000  1.0
  H  H22  1  0.10159000  0.16327000  0.70609000  1.0
  H  H23  1  0.46537000  0.34744000  0.05014000  1.0
  H  H24  1  0.34579000  0.25892000  0.85658000  1.0
  H  H25  1  0.81978000  0.26863000  0.35966000  1.0
  H  H26  1  0.73629000  0.17850000  0.47540000  1.0
  H  H27  1  0.00396000  0.54551000  0.58319000  1.0
  H  H28  1  0.83318000  0.62250000  0.55672000  1.0
  H  H29  1  0.87551000  0.45373000  0.78015000  1.0
  H  H30  1  0.70026000  0.52789000  0.76190000  1.0
  H  H31  1  0.64238000  0.64696000  0.58358000  1.0
  H  H32  1  0.56168000  0.55165000  0.61924000  1.0
  H  H33  1  0.64893000  0.69898000  0.79452000  1.0
  H  H34  1  0.55151000  0.73488000  0.72316000  1.0
  H  H35  1  0.81110000  0.82097000  0.72839000  1.0
  H  H36  1  0.78746000  0.87482000  0.84428000  1.0
  H  H37  1  0.68157000  0.01553000  0.89518000  1.0
  H  H38  1  0.68518000  0.85449000  0.59614000  1.0
  H  H39  1  0.59697000  0.99706000  0.57241000  1.0
  H  H40  1  0.59627000  0.15447000  0.86019000  1.0
  C  C1  1  0.09244000  0.22217000  0.52500000  1.0
  C  C2  1  0.01151000  0.10736000  0.45534000  1.0
  C  C3  1  0.03165000  0.01160000  0.39008000  1.0
  C  C4  1  0.91859000  0.92445000  0.34728000  1.0
  C  C5  1  0.83620000  0.97125000  0.39005000  1.0
  C  C6  1  0.70837000  0.92514000  0.38326000  1.0
  C  C7  1  0.56178000  0.42209000  0.83749000  1.0
  C  C8  1  0.61258000  0.51465000  0.93696000  1.0
  C  C9  1  0.59119000  0.61768000  0.98392000  1.0
  C  C10  1  0.65217000  0.66308000  0.08309000  1.0
  C  C11  1  0.70860000  0.58562000  0.09057000  1.0
  C  C12  1  0.78404000  0.58500000  0.17369000  1.0
  C  C13  1  0.29233000  0.55433000  0.64326000  1.0
  C  C14  1  0.30927000  0.63540000  0.60245000  1.0
  C  C15  1  0.24799000  0.71240000  0.60218000  1.0
  C  C16  1  0.28990000  0.75815000  0.54223000  1.0
  C  C17  1  0.37531000  0.70722000  0.51013000  1.0
  C  C18  1  0.44733000  0.72250000  0.44570000  1.0
  C  C19  1  0.06581000  0.45716000  0.37903000  1.0
  C  C20  1  0.16027000  0.41321000  0.39242000  1.0
  C  C21  1  0.24842000  0.41806000  0.34242000  1.0
  C  C22  1  0.13702000  0.50813000  0.26844000  1.0
  C  C23  1  0.23371000  0.46586000  0.27849000  1.0
  C  C24  1  0.35554000  0.37665000  0.35724000  1.0
  C  C25  1  0.35897000  0.27725000  0.26466000  1.0
  C  C26  1  0.25843000  0.16280000  0.23299000  1.0
  C  C27  1  0.30898000  0.07742000  0.25150000  1.0
  C  C28  1  0.33623000  0.99186000  0.17744000  1.0
  C  C29  1  0.33401000  0.08140000  0.34318000  1.0
  C  C30  1  0.38390000  0.00251000  0.35744000  1.0
  C  C31  1  0.38470000  0.91489000  0.19614000  1.0
  C  C32  1  0.90756000  0.77782000  0.47501000  1.0
  C  C33  1  0.98848000  0.89263000  0.54466000  1.0
  C  C34  1  0.96835000  0.98839000  0.60992000  1.0
  C  C35  1  0.08141000  0.07554000  0.65272000  1.0
  C  C36  1  0.16380000  0.02875000  0.60995000  1.0
  C  C37  1  0.29163000  0.07485000  0.61674000  1.0
  C  C38  1  0.43821000  0.57790000  0.16251000  1.0
  C  C39  1  0.38742000  0.48535000  0.06304000  1.0
  C  C40  1  0.40881000  0.38231000  0.01608000  1.0
  C  C41  1  0.34782000  0.33691000  0.91691000  1.0
  C  C42  1  0.29140000  0.41438000  0.90944000  1.0
  C  C43  1  0.21596000  0.41500000  0.82631000  1.0
  C  C44  1  0.70766000  0.44567000  0.35674000  1.0
  C  C45  1  0.69073000  0.36459000  0.39755000  1.0
  C  C46  1  0.75201000  0.28759000  0.39782000  1.0
  C  C47  1  0.71010000  0.24184000  0.45777000  1.0
  C  C48  1  0.62469000  0.29277000  0.48987000  1.0
  C  C49  1  0.55267000  0.27749000  0.55430000  1.0
  C  C50  1  0.93419000  0.54284000  0.62097000  1.0
  C  C51  1  0.83973000  0.58679000  0.60758000  1.0
  C  C52  1  0.75157000  0.58194000  0.65758000  1.0
  C  C53  1  0.86298000  0.49187000  0.73156000  1.0
  C  C54  1  0.76629000  0.53413000  0.72151000  1.0
  C  C55  1  0.64446000  0.62334000  0.64276000  1.0
  C  C56  1  0.64103000  0.72274000  0.73534000  1.0
  C  C57  1  0.74156000  0.83720000  0.76702000  1.0
  C  C58  1  0.69101000  0.92257000  0.74850000  1.0
  C  C59  1  0.66377000  0.00814000  0.82256000  1.0
  C  C60  1  0.66598000  0.91860000  0.65682000  1.0
  C  C61  1  0.61610000  0.99748000  0.64256000  1.0
  C  C62  1  0.61530000  0.08510000  0.80386000  1.0
  N  N1  1  0.05379000  0.50468000  0.31851000  1.0
  N  N2  1  0.40872000  0.92016000  0.28491000  1.0
  N  N3  1  0.94620000  0.49531000  0.68149000  1.0
  N  N4  1  0.59128000  0.07984000  0.71509000  1.0
  O  O1  1  0.20544000  0.23519000  0.53718000  1.0
  O  O2  1  0.04007000  0.29624000  0.56478000  1.0
  O  O3  1  0.89201000  0.08375000  0.45537000  1.0
  O  O4  1  0.65291000  0.81973000  0.31565000  1.0
  O  O5  1  0.65630000  0.98486000  0.43710000  1.0
  O  O6  1  0.59351000  0.33191000  0.81903000  1.0
  O  O7  1  0.49107000  0.44130000  0.78002000  1.0
  O  O8  1  0.68624000  0.49515000  0.00143000  1.0
  O  O9  1  0.77625000  0.64614000  0.25887000  1.0
  O  O10  1  0.85864000  0.52750000  0.16253000  1.0
  O  O11  1  0.21183000  0.56228000  0.69016000  1.0
  O  O12  1  0.35381000  0.48513000  0.62803000  1.0
  O  O13  1  0.38870000  0.63214000  0.54665000  1.0
  O  O14  1  0.53580000  0.68268000  0.43758000  1.0
  O  O15  1  0.41061000  0.77884000  0.40388000  1.0
  O  O16  1  0.79455000  0.76480000  0.46282000  1.0
  O  O17  1  0.95993000  0.70375000  0.43522000  1.0
  O  O18  1  0.10798000  0.91624000  0.54464000  1.0
  O  O19  1  0.34708000  0.18027000  0.68435000  1.0
  O  O20  1  0.34369000  0.01513000  0.56290000  1.0
  O  O21  1  0.40649000  0.66809000  0.18097000  1.0
  O  O22  1  0.50893000  0.55869000  0.21998000  1.0
  O  O23  1  0.31376000  0.50485000  0.99857000  1.0
  O  O24  1  0.22375000  0.35385000  0.74113000  1.0
  O  O25  1  0.14135000  0.47249000  0.83747000  1.0
  O  O26  1  0.78817000  0.43772000  0.30984000  1.0
  O  O27  1  0.64619000  0.51486000  0.37197000  1.0
  O  O28  1  0.61130000  0.36786000  0.45335000  1.0
  O  O29  1  0.46420000  0.31731000  0.56242000  1.0
  O  O30  1  0.58939000  0.22115000  0.59612000  1.0
