# generated using pymatgen
data_LaH20C24(NO2)4
_symmetry_space_group_name_H-M   'P 1'
_cell_length_a   14.73527000
_cell_length_b   14.74490000
_cell_length_c   17.22570000
_cell_angle_alpha   103.37578000
_cell_angle_beta   103.27818000
_cell_angle_gamma   117.40508000
_symmetry_Int_Tables_number   1
_chemical_formula_structural   LaH20C24(NO2)4
_chemical_formula_sum   'La4 H80 C96 N16 O32'
_cell_volume   2977.59599143
_cell_formula_units_Z   4
loop_
 _symmetry_equiv_pos_site_id
 _symmetry_equiv_pos_as_xyz
  1  'x, y, z'
loop_
 _atom_site_type_symbol
 _atom_site_label
 _atom_site_symmetry_multiplicity
 _atom_site_fract_x
 _atom_site_fract_y
 _atom_site_fract_z
 _atom_site_occupancy
  La  La0  1  0.27386000  0.52442000  0.75021000  1
  La  La1  1  0.97554000  0.22604000  0.74981000  1
  La  La2  1  0.72614000  0.47558000  0.24979000  1
  La  La3  1  0.02446000  0.77395000  0.25020000  1
  H  H4  1  0.18518000  0.77399000  0.52531000  1
  H  H5  1  0.30449000  0.74844000  0.64046000  1
  H  H6  1  0.43443000  0.95319000  0.04428000  1
  H  H7  1  0.44452000  0.83175000  0.91979000  1
  H  H8  1  0.12924000  0.41023000  0.50041000  1
  H  H9  1  0.99408000  0.42033000  0.38487000  1
  H  H10  1  0.09305000  0.81059000  0.88270000  1
  H  H11  1  0.30751000  0.97536000  0.10877000  1
  H  H12  1  0.16956000  0.92284000  0.04439000  1
  H  H13  1  0.11900000  0.69714000  0.76521000  1
  H  H14  1  0.84133000  0.75212000  0.52651000  1
  H  H15  1  0.83672000  0.89337000  0.64071000  1
  H  H16  1  0.10886000  0.09097000  0.04394000  1
  H  H17  1  0.97489000  0.08797000  0.91930000  1
  H  H18  1  0.87103000  0.08925000  0.49893000  1
  H  H19  1  0.89109000  0.96364000  0.38424000  1
  H  H20  1  0.28973000  0.07245000  0.88296000  1
  H  H21  1  0.29985000  0.13314000  0.10886000  1
  H  H22  1  0.37416000  0.12182000  0.04482000  1
  H  H23  1  0.14702000  0.06848000  0.76526000  1
  H  H24  1  0.72601000  0.31502000  0.97479000  1
  H  H25  1  0.75158000  0.19554000  0.85953000  1
  H  H26  1  0.54677000  0.06555000  0.45562000  1
  H  H27  1  0.66803000  0.05536000  0.57999000  1
  H  H28  1  0.08979000  0.37053000  0.99947000  1
  H  H29  1  0.07974000  0.50590000  0.11512000  1
  H  H30  1  0.68939000  0.40686000  0.61731000  1
  H  H31  1  0.52492000  0.19258000  0.39121000  1
  H  H32  1  0.57735000  0.33041000  0.45577000  1
  H  H33  1  0.80271000  0.38092000  0.73471000  1
  H  H34  1  0.74804000  0.65880000  0.97353000  1
  H  H35  1  0.60683000  0.66323000  0.85934000  1
  H  H36  1  0.40893000  0.39092000  0.45606000  1
  H  H37  1  0.41197000  0.52503000  0.58084000  1
  H  H38  1  0.41065000  0.62891000  0.00112000  1
  H  H39  1  0.53626000  0.60907000  0.11581000  1
  H  H40  1  0.42746000  0.21038000  0.61708000  1
  H  H41  1  0.36695000  0.20003000  0.39110000  1
  H  H42  1  0.37816000  0.12581000  0.45513000  1
  H  H43  1  0.43148000  0.35330000  0.73484000  1
  H  H44  1  0.81483000  0.22601000  0.47469000  1
  H  H45  1  0.69551000  0.25156000  0.35954000  1
  H  H46  1  0.56557000  0.04681000  0.95572000  1
  H  H47  1  0.55548000  0.16824000  0.08021000  1
  H  H48  1  0.87077000  0.58977000  0.49959000  1
  H  H49  1  0.00592000  0.57966000  0.61513000  1
  H  H50  1  0.90695000  0.18941000  0.11730000  1
  H  H51  1  0.69249000  0.02464000  0.89123000  1
  H  H52  1  0.83044000  0.07716000  0.95561000  1
  H  H53  1  0.88101000  0.30286000  0.23479000  1
  H  H54  1  0.15867000  0.24788000  0.47349000  1
  H  H55  1  0.16329000  0.10663000  0.35930000  1
  H  H56  1  0.89114000  0.90903000  0.95606000  1
  H  H57  1  0.02512000  0.91202000  0.08071000  1
  H  H58  1  0.12897000  0.91074000  0.50107000  1
  H  H59  1  0.10891000  0.03636000  0.61576000  1
  H  H60  1  0.71027000  0.92755000  0.11704000  1
  H  H61  1  0.70015000  0.86686000  0.89114000  1
  H  H62  1  0.62584000  0.87817000  0.95518000  1
  H  H63  1  0.85298000  0.93152000  0.23474000  1
  H  H64  1  0.27399000  0.68498000  0.02522000  1
  H  H65  1  0.24842000  0.80446000  0.14047000  1
  H  H66  1  0.45323000  0.93445000  0.54438000  1
  H  H67  1  0.33197000  0.94464000  0.42001000  1
  H  H68  1  0.91021000  0.62947000  0.00053000  1
  H  H69  1  0.92027000  0.49410000  0.88488000  1
  H  H70  1  0.31061000  0.59314000  0.38269000  1
  H  H71  1  0.47508000  0.80742000  0.60879000  1
  H  H72  1  0.42265000  0.66959000  0.54423000  1
  H  H73  1  0.19730000  0.61907000  0.26529000  1
  H  H74  1  0.25196000  0.34120000  0.02648000  1
  H  H75  1  0.39317000  0.33676000  0.14066000  1
  H  H76  1  0.59108000  0.60908000  0.54394000  1
  H  H77  1  0.58803000  0.47497000  0.41916000  1
  H  H78  1  0.58935000  0.37109000  0.99888000  1
  H  H79  1  0.46374000  0.39093000  0.88419000  1
  H  H80  1  0.57254000  0.78962000  0.38292000  1
  H  H81  1  0.63305000  0.79997000  0.60890000  1
  H  H82  1  0.62184000  0.87419000  0.54487000  1
  H  H83  1  0.56852000  0.64670000  0.26517000  1
  C  C84  1  0.08273000  0.59904000  0.44393000  1
  C  C85  1  0.01123000  0.60979000  0.37479000  1
  C  C86  1  0.17069000  0.69262000  0.51779000  1
  C  C87  1  0.23806000  0.68197000  0.58016000  1
  C  C88  1  0.36270000  0.89945000  0.98317000  1
  C  C89  1  0.37240000  0.83646000  0.91652000  1
  C  C90  1  0.13603000  0.48659000  0.49983000  1
  C  C91  1  0.06542000  0.49487000  0.43817000  1
  C  C92  1  0.17338000  0.82047000  0.89379000  1
  C  C93  1  0.26267000  0.89367000  0.97404000  1
  C  C94  1  0.25449000  0.96460000  0.04656000  1
  C  C95  1  0.18457000  0.75770000  0.82792000  1
  C  C96  1  0.86126000  0.84392000  0.44365000  1
  C  C97  1  0.86384000  0.76368000  0.37483000  1
  C  C98  1  0.84771000  0.82535000  0.51807000  1
  C  C99  1  0.84260000  0.89879000  0.58013000  1
  C  C100  1  0.11995000  0.08386000  0.98297000  1
  C  C101  1  0.04387000  0.08018000  0.91620000  1
  C  C102  1  0.86375000  0.01248000  0.49876000  1
  C  C103  1  0.87280000  0.94219000  0.43743000  1
  C  C104  1  0.22042000  0.07369000  0.89390000  1
  C  C105  1  0.21101000  0.08062000  0.97409000  1
  C  C106  1  0.29124000  0.08200000  0.04670000  1
  C  C107  1  0.14362000  0.07058000  0.82788000  1
  C  C108  1  0.90098000  0.41735000  0.05606000  1
  C  C109  1  0.89015000  0.48889000  0.12516000  1
  C  C110  1  0.80738000  0.32939000  0.98224000  1
  C  C111  1  0.81802000  0.26193000  0.91986000  1
  C  C112  1  0.60049000  0.13724000  0.51676000  1
  C  C113  1  0.66344000  0.12751000  0.58335000  1
  C  C114  1  0.01344000  0.36386000  0.00013000  1
  C  C115  1  0.00520000  0.43458000  0.06181000  1
  C  C116  1  0.67947000  0.32654000  0.60620000  1
  C  C117  1  0.60630000  0.23724000  0.52595000  1
  C  C118  1  0.53552000  0.24548000  0.45348000  1
  C  C119  1  0.74220000  0.31533000  0.67201000  1
  C  C120  1  0.65610000  0.63875000  0.05636000  1
  C  C121  1  0.73637000  0.63607000  0.12504000  1
  C  C122  1  0.67473000  0.65236000  0.98196000  1
  C  C123  1  0.60133000  0.65741000  0.91992000  1
  C  C124  1  0.41607000  0.37992000  0.51705000  1
  C  C125  1  0.41980000  0.45608000  0.58386000  1
  C  C126  1  0.48751000  0.63626000  0.00129000  1
  C  C127  1  0.55778000  0.62728000  0.06261000  1
  C  C128  1  0.42622000  0.27962000  0.60611000  1
  C  C129  1  0.41929000  0.28891000  0.52590000  1
  C  C130  1  0.41801000  0.20867000  0.45326000  1
  C  C131  1  0.42937000  0.35651000  0.67218000  1
  C  C132  1  0.91727000  0.40096000  0.55608000  1
  C  C133  1  0.98878000  0.39021000  0.62521000  1
  C  C134  1  0.82931000  0.30738000  0.48222000  1
  C  C135  1  0.76194000  0.31803000  0.41984000  1
  C  C136  1  0.63730000  0.10054000  0.01683000  1
  C  C137  1  0.62760000  0.16354000  0.08348000  1
  C  C138  1  0.86397000  0.51341000  0.50017000  1
  C  C139  1  0.93459000  0.50513000  0.56183000  1
  C  C140  1  0.82662000  0.17952000  0.10621000  1
  C  C141  1  0.73733000  0.10633000  0.02596000  1
  C  C142  1  0.74552000  0.03540000  0.95345000  1
  C  C143  1  0.81543000  0.24230000  0.17209000  1
  C  C144  1  0.13874000  0.15608000  0.55635000  1
  C  C145  1  0.13617000  0.23632000  0.62517000  1
  C  C146  1  0.15230000  0.17465000  0.48193000  1
  C  C147  1  0.15740000  0.10121000  0.41987000  1
  C  C148  1  0.88005000  0.91614000  0.01704000  1
  C  C149  1  0.95613000  0.91982000  0.08380000  1
  C  C150  1  0.13625000  0.98752000  0.50124000  1
  C  C151  1  0.12721000  0.05781000  0.56257000  1
  C  C152  1  0.77958000  0.92630000  0.10610000  1
  C  C153  1  0.78899000  0.91938000  0.02592000  1
  C  C154  1  0.70876000  0.91800000  0.95330000  1
  C  C155  1  0.85638000  0.92942000  0.17213000  1
  C  C156  1  0.09902000  0.58265000  0.94394000  1
  C  C157  1  0.10985000  0.51110000  0.87485000  1
  C  C158  1  0.19263000  0.67061000  0.01776000  1
  C  C159  1  0.18198000  0.73807000  0.08015000  1
  C  C160  1  0.39952000  0.86276000  0.48324000  1
  C  C161  1  0.33656000  0.87249000  0.41665000  1
  C  C162  1  0.98656000  0.63613000  0.99987000  1
  C  C163  1  0.99480000  0.56542000  0.93819000  1
  C  C164  1  0.32053000  0.67346000  0.39380000  1
  C  C165  1  0.39370000  0.76276000  0.47405000  1
  C  C166  1  0.46448000  0.75452000  0.54653000  1
  C  C167  1  0.25780000  0.68466000  0.32799000  1
  C  C168  1  0.34390000  0.36124000  0.94364000  1
  C  C169  1  0.26363000  0.36392000  0.87496000  1
  C  C170  1  0.32527000  0.34763000  0.01804000  1
  C  C171  1  0.39867000  0.34259000  0.08008000  1
  C  C172  1  0.58393000  0.62008000  0.48295000  1
  C  C173  1  0.58020000  0.54392000  0.41614000  1
  C  C174  1  0.51250000  0.36374000  0.99871000  1
  C  C175  1  0.44222000  0.37272000  0.93739000  1
  C  C176  1  0.57378000  0.72038000  0.39389000  1
  C  C177  1  0.58072000  0.71109000  0.47410000  1
  C  C178  1  0.58200000  0.79133000  0.54674000  1
  C  C179  1  0.57063000  0.64348000  0.32782000  1
  N  N180  1  0.22401000  0.58047000  0.56906000  1
  N  N181  1  0.28399000  0.76734000  0.83858000  1
  N  N182  1  0.84484000  0.98853000  0.56820000  1
  N  N183  1  0.05465000  0.07144000  0.83829000  1
  N  N184  1  0.91953000  0.27589000  0.93094000  1
  N  N185  1  0.73253000  0.21595000  0.66131000  1
  N  N186  1  0.51147000  0.65510000  0.93184000  1
  N  N187  1  0.42856000  0.44542000  0.66178000  1
  N  N188  1  0.77599000  0.41953000  0.43094000  1
  N  N189  1  0.71602000  0.23266000  0.16142000  1
  N  N190  1  0.15517000  0.01146000  0.43180000  1
  N  N191  1  0.94535000  0.92855000  0.16171000  1
  N  N192  1  0.08047000  0.72411000  0.06906000  1
  N  N193  1  0.26747000  0.78405000  0.33869000  1
  N  N194  1  0.48853000  0.34490000  0.06816000  1
  N  N195  1  0.57145000  0.55457000  0.33822000  1
  O  O196  1  0.29856000  0.57361000  0.62384000  1
  O  O197  1  0.29520000  0.71175000  0.77361000  1
  O  O198  1  0.04947000  0.70530000  0.37111000  1
  O  O199  1  0.91689000  0.52185000  0.32383000  1
  O  O200  1  0.82466000  0.05046000  0.62238000  1
  O  O201  1  0.97874000  0.06222000  0.77333000  1
  O  O202  1  0.82186000  0.66454000  0.37135000  1
  O  O203  1  0.90756000  0.80035000  0.32384000  1
  O  O204  1  0.92633000  0.20127000  0.87608000  1
  O  O205  1  0.78804000  0.20482000  0.72630000  1
  O  O206  1  0.79455000  0.45060000  0.12884000  1
  O  O207  1  0.97804000  0.58325000  0.17608000  1
  O  O208  1  0.44955000  0.67517000  0.87769000  1
  O  O209  1  0.43782000  0.52145000  0.72678000  1
  O  O210  1  0.83556000  0.67814000  0.12849000  1
  O  O211  1  0.69974000  0.59224000  0.17598000  1
  O  O212  1  0.70144000  0.42639000  0.37616000  1
  O  O213  1  0.70480000  0.28825000  0.22639000  1
  O  O214  1  0.95054000  0.29470000  0.62890000  1
  O  O215  1  0.08311000  0.47815000  0.67617000  1
  O  O216  1  0.17534000  0.94954000  0.37762000  1
  O  O217  1  0.02127000  0.93777000  0.22668000  1
  O  O218  1  0.17815000  0.33546000  0.62865000  1
  O  O219  1  0.09245000  0.19965000  0.67616000  1
  O  O220  1  0.07367000  0.79873000  0.12393000  1
  O  O221  1  0.21196000  0.79518000  0.27370000  1
  O  O222  1  0.20546000  0.54940000  0.87117000  1
  O  O223  1  0.02197000  0.41675000  0.82392000  1
  O  O224  1  0.55046000  0.32483000  0.12232000  1
  O  O225  1  0.56218000  0.47855000  0.27322000  1
  O  O226  1  0.16445000  0.32186000  0.87152000  1
  O  O227  1  0.30026000  0.40775000  0.82402000  1
