# generated using pymatgen
data_H36C57N8
_symmetry_space_group_name_H-M   'P 1'
_cell_length_a   21.00130000
_cell_length_b   21.00135000
_cell_length_c   42.00260000
_cell_angle_alpha   89.99710000
_cell_angle_beta   90.00290000
_cell_angle_gamma   90.00000000
_symmetry_Int_Tables_number   1
_chemical_formula_structural   H36C57N8
_chemical_formula_sum   'H72 C114 N16'
_cell_volume   18525.48407095
_cell_formula_units_Z   2
loop_
 _symmetry_equiv_pos_site_id
 _symmetry_equiv_pos_as_xyz
  1  'x, y, z'
loop_
 _atom_site_type_symbol
 _atom_site_label
 _atom_site_symmetry_multiplicity
 _atom_site_fract_x
 _atom_site_fract_y
 _atom_site_fract_z
 _atom_site_occupancy
  C  1  1  0.95437100  0.12539900  0.99459300  1
  C  2  1  0.97536400  0.18865000  0.99360500  1
  C  3  1  0.04156000  0.18923700  0.99377800  1
  C  4  1  0.06369400  0.12642000  0.99519700  1
  C  5  1  0.12982000  0.11402900  0.99607000  1
  C  6  1  0.17357100  0.16548000  0.99529400  1
  C  7  1  0.14999100  0.22847900  0.99336500  1
  C  8  1  0.08415700  0.24080700  0.99274600  1
  C  9  1  0.93186800  0.23949700  0.99265200  1
  C  10  1  0.86626200  0.22598500  0.99286900  1
  C  11  1  0.84389300  0.16234700  0.99420400  1
  C  12  1  0.88843200  0.11176400  0.99452900  1
  C  13  1  0.01035000  0.03514100  0.96864700  1
  C  14  1  0.00917200  0.97245900  0.97998800  1
  C  15  1  0.00843900  0.97377100  0.01302600  1
  C  16  1  0.00902100  0.03727200  0.02317800  1
  C  17  1  0.00882200  0.92328600  0.03497500  1
  C  18  1  0.00978700  0.93747800  0.06768000  1
  C  19  1  0.00962700  0.00144700  0.07854900  1
  C  20  1  0.01018000  0.05154900  0.05603300  1
  C  21  1  0.01278700  0.04696300  0.93556900  1
  C  22  1  0.01289700  0.99510700  0.91409600  1
  C  23  1  0.01211000  0.93201900  0.92605400  1
  C  24  1  0.01008500  0.92032700  0.95900300  1
  C  37  1  0.00945300  0.08109300  0.99546600  1
  C  42  1  0.12699500  0.05947100  0.49487200  1
  C  43  1  0.18996000  0.03779600  0.49353000  1
  C  44  1  0.18967600  0.97159300  0.49323000  1
  C  45  1  0.12660000  0.95010500  0.49463400  1
  C  46  1  0.11358800  0.88405200  0.49531500  1
  C  47  1  0.16464000  0.83980600  0.49432700  1
  C  48  1  0.22783400  0.86282000  0.49231500  1
  C  49  1  0.24080200  0.92851900  0.49189900  1
  C  50  1  0.24125200  0.08079500  0.49265300  1
  C  51  1  0.22843600  0.14655800  0.49318900  1
  C  52  1  0.16504000  0.16953000  0.49475100  1
  C  53  1  0.11403900  0.12552500  0.49509600  1
  C  54  1  0.03581200  0.00635800  0.46870000  1
  C  55  1  0.97329300  0.00919000  0.48016600  1
  C  56  1  0.97487200  0.00836700  0.51320000  1
  C  57  1  0.03840600  0.00562300  0.52322800  1
  C  58  1  0.92460200  0.01032500  0.53524400  1
  C  59  1  0.93906200  0.00987600  0.56791800  1
  C  60  1  0.00310000  0.00841300  0.57864600  1
  C  61  1  0.05295800  0.00504700  0.55606100  1
  C  62  1  0.04745400  0.00835600  0.43560900  1
  C  63  1  0.99552300  0.01387500  0.41424200  1
  C  64  1  0.93282500  0.01764700  0.42636000  1
  C  65  1  0.92123700  0.01473400  0.45930800  1
  C  78  1  0.08198300  0.00496000  0.49542500  1
  C  83  1  0.03409600  0.99962900  0.33047100  1
  C  84  1  0.08491000  0.98606800  0.30901000  1
  C  86  1  0.01841600  0.00879900  0.26369900  1
  C  87  1  0.96672200  0.02468000  0.28385000  1
  C  88  1  0.97533500  0.01966700  0.31704300  1
  C  90  1  0.01052600  0.00968300  0.23031500  1
  C  91  1  0.99427100  0.00282700  0.16384300  1
  C  93  1  0.05336000  0.98721600  0.17844200  1
  C  94  1  0.94348400  0.02287100  0.18354200  1
  C  95  1  0.95086800  0.02657500  0.21688000  1
  C  96  1  0.90007200  0.04394100  0.23710000  1
  C  97  1  0.90791600  0.04291500  0.27033600  1
  C  101  1  0.15044200  0.96661100  0.31782200  1
  C  105  1  0.10949800  0.96307500  0.16083100  1
  C  109  1  0.98153300  0.98980600  0.13222800  1
  C  110  1  0.03878200  0.98966800  0.36324200  1
  C  113  1  0.98605800  0.99466800  0.82986500  1
  C  114  1  0.97457500  0.94350700  0.80837400  1
  C  116  1  0.00114900  0.00971500  0.76366300  1
  C  117  1  0.01444500  0.06196000  0.78398500  1
  C  118  1  0.00670600  0.05362400  0.81713000  1
  C  120  1  0.00526400  0.01667100  0.73032400  1
  C  121  1  0.00458100  0.03038900  0.66363100  1
  C  123  1  0.98862800  0.97152800  0.67841100  1
  C  124  1  0.02187800  0.08220700  0.68339400  1
  C  125  1  0.02251400  0.07612800  0.71687000  1
  C  126  1  0.03713200  0.12766300  0.73720500  1
  C  127  1  0.03317100  0.12062700  0.77047700  1
  C  131  1  0.95479100  0.87798200  0.81704700  1
  C  135  1  0.96700800  0.91409900  0.66100000  1
  C  139  1  0.99386500  0.04189300  0.63162600  1
  C  140  1  0.97488000  0.98864500  0.86220200  1
  C  143  1  0.67564700  0.16221100  0.01036700  1
  C  144  1  0.63256300  0.21398300  0.01439300  1
  C  146  1  0.54264300  0.14500700  0.00640500  1
  C  147  1  0.58326000  0.09196100  0.00150800  1
  C  148  1  0.64979900  0.10133700  0.00366800  1
  C  150  1  0.47586100  0.13761000  0.00526700  1
  C  151  1  0.34164600  0.12525100  0.00414800  1
  C  153  1  0.37198600  0.18465900  0.01071000  1
  C  154  1  0.38159200  0.07196900  0.99838700  1
  C  155  1  0.44868000  0.07719900  0.99891800  1
  C  156  1  0.48929600  0.02457700  0.99374200  1
  C  157  1  0.55592000  0.03184100  0.99513500  1
  C  161  1  0.65001600  0.28137100  0.02032800  1
  C  165  1  0.33850500  0.24481300  0.01847400  1
  C  169  1  0.27579800  0.11571200  0.00462200  1
  C  170  1  0.74073300  0.16990300  0.01445500  1
  C  173  1  0.16494800  0.33784300  0.51074700  1
  C  174  1  0.21621200  0.38147600  0.51490900  1
  C  176  1  0.14648000  0.47065900  0.50640300  1
  C  177  1  0.09392100  0.42947300  0.50140300  1
  C  178  1  0.10392600  0.36305700  0.50376500  1
  C  180  1  0.13842600  0.53735400  0.50500500  1
  C  181  1  0.12479100  0.67149700  0.50329100  1
  C  183  1  0.18436900  0.64177900  0.51021900  1
  C  184  1  0.07200600  0.63090600  0.49747700  1
  C  185  1  0.07787400  0.56387100  0.49829400  1
  C  186  1  0.02574600  0.52265700  0.49303900  1
  C  187  1  0.03364200  0.45612600  0.49468700  1
  C  191  1  0.28367600  0.36472200  0.52113000  1
  C  195  1  0.24411800  0.67585800  0.51810700  1
  C  199  1  0.11462200  0.73731700  0.50343100  1
  C  200  1  0.17317500  0.27281700  0.51486900  1
  H  25  1  0.01347500  0.89412400  0.91075500  1
  H  26  1  0.00983800  0.87463700  0.96736700  1
  H  27  1  0.00941700  0.87699900  0.02748000  1
  H  28  1  0.01160800  0.90063600  0.08358400  1
  H  29  1  0.01142500  0.09798100  0.06335900  1
  H  30  1  0.01409300  0.09276700  0.92732400  1
  H  31  1  0.14552100  0.06804100  0.99716100  1
  H  32  1  0.18076100  0.26627500  0.99282300  1
  H  33  1  0.06791300  0.28662000  0.99163500  1
  H  34  1  0.87322200  0.06552400  0.99516200  1
  H  35  1  0.94730500  0.28561000  0.99179100  1
  H  36  1  0.83466900  0.26303100  0.99196700  1
  H  66  1  0.89493800  0.02241900  0.41120400  1
  H  67  1  0.87574500  0.01790900  0.46779100  1
  H  68  1  0.87827000  0.01179700  0.52784400  1
  H  69  1  0.90235500  0.01032500  0.58392600  1
  H  70  1  0.09940600  0.00306100  0.56331600  1
  H  71  1  0.09323300  0.00778100  0.42734300  1
  H  72  1  0.06748900  0.86874400  0.49659800  1
  H  73  1  0.26536200  0.83172700  0.49167000  1
  H  74  1  0.28677800  0.94432000  0.49083400  1
  H  75  1  0.06795400  0.14119400  0.49582500  1
  H  76  1  0.28718200  0.06489400  0.49152200  1
  H  77  1  0.26577000  0.17780100  0.49224400  1
  H  89  1  0.93715200  0.02885600  0.33151400  1
  H  98  1  0.85659000  0.05584300  0.22784900  1
  H  99  1  0.86999800  0.05424300  0.28455500  1
  H  100  1  0.89987100  0.03257100  0.17368500  1
  H  102  1  0.15964400  0.96883700  0.34329600  1
  H  103  1  0.18468000  0.99802600  0.30617700  1
  H  104  1  0.15891200  0.91795700  0.30975800  1
  H  106  1  0.14886100  0.95196900  0.17689000  1
  H  107  1  0.12591400  0.99895500  0.14394900  1
  H  108  1  0.09700000  0.91976000  0.14791800  1
  H  111  1  0.06752600  0.95587400  0.37144200  1
  H  112  1  0.94805100  0.95755900  0.12750700  1
  H  119  1  0.01464100  0.09144700  0.83203300  1
  H  128  1  0.04925200  0.17108100  0.72795300  1
  H  129  1  0.04262700  0.15903700  0.78470100  1
  H  130  1  0.03174300  0.12565800  0.67340900  1
  H  132  1  0.95284000  0.86993300  0.84263900  1
  H  133  1  0.98855900  0.84387500  0.80708400  1
  H  134  1  0.90775300  0.86833900  0.80712600  1
  H  136  1  0.95473800  0.87545400  0.67728500  1
  H  137  1  0.00479400  0.89720700  0.64532000  1
  H  138  1  0.92492200  0.92525700  0.64682700  1
  H  141  1  0.93498900  0.96712800  0.86919600  1
  H  142  1  0.96432300  0.07727700  0.62599700  1
  H  149  1  0.67962500  0.06311100  0.00092500  1
  H  158  1  0.47069200  0.98045800  0.98923200  1
  H  159  1  0.58427400  0.99286200  0.99157100  1
  H  160  1  0.36165900  0.02830800  0.99392400  1
  H  162  1  0.70115300  0.28988700  0.01979700  1
  H  163  1  0.63201400  0.29593700  0.04358200  1
  H  164  1  0.62837700  0.31150900  0.00213200  1
  H  166  1  0.37182200  0.28264200  0.02489200  1
  H  167  1  0.30645400  0.23747200  0.03858400  1
  H  168  1  0.31129600  0.26105700  0.99791500  1
  H  171  1  0.75555800  0.19508900  0.03313200  1
  H  172  1  0.25879800  0.07397600  0.01188100  1
  H  179  1  0.06603300  0.33284300  0.50091200  1
  H  188  1  0.98152800  0.54075600  0.48826800  1
  H  189  1  0.99501300  0.42734200  0.49103700  1
  H  190  1  0.02823400  0.65033700  0.49273900  1
  H  192  1  0.29270800  0.31367100  0.52072500  1
  H  193  1  0.29771600  0.38303500  0.54440500  1
  H  194  1  0.31387400  0.38652300  0.50300700  1
  H  196  1  0.28210700  0.64295900  0.52482500  1
  H  197  1  0.23618300  0.70817200  0.53805300  1
  H  198  1  0.26049400  0.70284800  0.49750300  1
  H  201  1  0.19854700  0.25813900  0.53351000  1
  H  202  1  0.07250500  0.75409600  0.51024800  1
  N  38  1  0.01389800  0.01475700  0.10942500  1
  N  39  1  0.78157300  0.15077100  0.99368900  1
  N  40  1  0.23648600  0.15968700  0.99658100  1
  N  41  1  0.01681200  0.00498500  0.88296600  1
  N  79  1  0.01619400  0.00569900  0.60957700  1
  N  80  1  0.15376900  0.23186400  0.49423400  1
  N  81  1  0.15859000  0.77691500  0.49575300  1
  N  82  1  0.00202500  0.01855900  0.38297700  1
  N  85  1  0.07432200  0.99077200  0.27714300  1
  N  92  1  0.05838000  0.99122900  0.21065400  1
  N  115  1  0.98231900  0.95374800  0.77669700  1
  N  122  1  0.98957400  0.96783000  0.71069900  1
  N  145  1  0.56901000  0.20269900  0.01238400  1
  N  152  1  0.43663400  0.18760700  0.01086500  1
  N  175  1  0.20433000  0.44490300  0.51269300  1
  N  182  1  0.18793100  0.57716100  0.51065000  1
