# generated using pymatgen
data_ZnH6(C2O)5
_symmetry_space_group_name_H-M   'P 1'
_cell_length_a   13.51136000
_cell_length_b   13.71332000
_cell_length_c   17.17722000
_cell_angle_alpha   87.64511000
_cell_angle_beta   67.11053000
_cell_angle_gamma   89.79175000
_symmetry_Int_Tables_number   1
_chemical_formula_structural   ZnH6(C2O)5
_chemical_formula_sum   'Zn8 H48 C80 O40'
_cell_volume   2929.33684263
_cell_formula_units_Z   8
loop_
 _symmetry_equiv_pos_site_id
 _symmetry_equiv_pos_as_xyz
  1  'x, y, z'
loop_
 _atom_site_type_symbol
 _atom_site_label
 _atom_site_symmetry_multiplicity
 _atom_site_fract_x
 _atom_site_fract_y
 _atom_site_fract_z
 _atom_site_occupancy
  Zn  Zn1  1  0.15994000  0.71268000  0.62721000  1.0
  Zn  Zn2  1  0.56436000  0.09782000  0.69966000  1.0
  Zn  Zn3  1  0.41804000  0.21137000  0.82843000  1.0
  Zn  Zn4  1  0.01864000  0.58878000  0.76061000  1.0
  Zn  Zn5  1  0.84005000  0.28732000  0.37279000  1.0
  Zn  Zn6  1  0.43563000  0.90219000  0.30034000  1.0
  Zn  Zn7  1  0.58196000  0.78864000  0.17157000  1.0
  Zn  Zn8  1  0.98136000  0.41122000  0.23939000  1.0
  H  H1  1  0.26984000  0.92038000  0.75232000  1.0
  H  H2  1  0.17568000  0.01236000  0.00825000  1.0
  H  H3  1  0.01907000  0.76414000  0.95585000  1.0
  H  H4  1  0.89129000  0.82411000  0.07939000  1.0
  H  H5  1  0.97422000  0.73706000  0.10601000  1.0
  H  H6  1  0.87265000  0.91378000  0.21463000  1.0
  H  H7  1  0.76739000  0.82474000  0.72805000  1.0
  H  H8  1  0.71421000  0.89017000  0.50061000  1.0
  H  H9  1  0.95665000  0.68318000  0.49729000  1.0
  H  H10  1  0.72585000  0.77592000  0.38787000  1.0
  H  H11  1  0.80828000  0.88356000  0.36152000  1.0
  H  H12  1  0.88463000  0.69584000  0.26165000  1.0
  H  H13  1  0.31709000  0.42649000  0.69895000  1.0
  H  H14  1  0.53111000  0.25991000  0.49626000  1.0
  H  H15  1  0.36340000  0.50460000  0.44100000  1.0
  H  H16  1  0.62962000  0.28764000  0.36095000  1.0
  H  H17  1  0.51287000  0.21916000  0.37049000  1.0
  H  H18  1  0.65722000  0.34311000  0.21092000  1.0
  H  H19  1  0.50195000  0.16757000  0.24661000  1.0
  H  H20  1  0.52481000  0.23729000  0.09974000  1.0
  H  H21  1  0.61032000  0.13839000  0.09912000  1.0
  H  H22  1  0.59611000  0.18434000  0.97396000  1.0
  H  H23  1  0.81552000  0.31621000  0.73826000  1.0
  H  H24  1  0.83933000  0.38813000  0.97243000  1.0
  H  H25  1  0.73016000  0.07963000  0.24768000  1.0
  H  H26  1  0.82432000  0.98765000  0.99175000  1.0
  H  H27  1  0.98092000  0.23587000  0.04415000  1.0
  H  H28  1  0.10871000  0.17589000  0.92061000  1.0
  H  H29  1  0.02577000  0.26294000  0.89399000  1.0
  H  H30  1  0.12735000  0.08623000  0.78537000  1.0
  H  H31  1  0.23261000  0.17527000  0.27195000  1.0
  H  H32  1  0.28579000  0.10984000  0.49939000  1.0
  H  H33  1  0.04335000  0.31683000  0.50271000  1.0
  H  H34  1  0.27415000  0.22408000  0.61213000  1.0
  H  H35  1  0.19172000  0.11645000  0.63848000  1.0
  H  H36  1  0.11537000  0.30416000  0.73835000  1.0
  H  H37  1  0.68291000  0.57352000  0.30105000  1.0
  H  H38  1  0.46888000  0.74010000  0.50374000  1.0
  H  H39  1  0.63660000  0.49540000  0.55900000  1.0
  H  H40  1  0.37037000  0.71237000  0.63905000  1.0
  H  H41  1  0.48713000  0.78084000  0.62951000  1.0
  H  H42  1  0.34278000  0.65689000  0.78908000  1.0
  H  H43  1  0.49804000  0.83243000  0.75339000  1.0
  H  H44  1  0.47518000  0.76271000  0.90026000  1.0
  H  H45  1  0.38968000  0.86162000  0.90087000  1.0
  H  H46  1  0.40389000  0.81567000  0.02604000  1.0
  H  H47  1  0.18448000  0.68379000  0.26174000  1.0
  H  H48  1  0.16067000  0.61187000  0.02757000  1.0
  C  C1  1  0.12514000  0.77205000  0.78738000  1.0
  C  C2  1  0.31342000  0.05382000  0.84735000  1.0
  C  C3  1  0.14065000  0.83801000  0.84853000  1.0
  C  C4  1  0.21924000  0.91159000  0.81909000  1.0
  C  C5  1  0.23189000  0.97397000  0.87716000  1.0
  C  C6  1  0.16683000  0.96313000  0.96328000  1.0
  C  C7  1  0.09053000  0.88688000  0.99289000  1.0
  C  C8  1  0.07715000  0.82400000  0.93536000  1.0
  C  C9  1  0.94515000  0.81251000  0.11329000  1.0
  C  C10  1  0.89042000  0.83672000  0.20395000  1.0
  C  C11  1  0.94052000  0.70295000  0.65508000  1.0
  C  C12  1  0.66043000  0.94512000  0.65728000  1.0
  C  C13  1  0.86679000  0.74638000  0.61781000  1.0
  C  C14  1  0.78508000  0.81068000  0.66221000  1.0
  C  C15  1  0.73277000  0.86303000  0.61787000  1.0
  C  C16  1  0.75609000  0.84680000  0.53220000  1.0
  C  C17  1  0.83511000  0.77994000  0.48958000  1.0
  C  C18  1  0.89168000  0.73120000  0.53220000  1.0
  C  C19  1  0.80926000  0.80348000  0.35899000  1.0
  C  C20  1  0.86491000  0.77292000  0.26995000  1.0
  C  C21  1  0.25635000  0.55450000  0.60335000  1.0
  C  C22  1  0.45431000  0.27500000  0.66432000  1.0
  C  C23  1  0.33076000  0.47217000  0.57323000  1.0
  C  C24  1  0.35456000  0.41327000  0.63196000  1.0
  C  C25  1  0.42843000  0.33839000  0.60270000  1.0
  C  C26  1  0.47571000  0.32000000  0.51602000  1.0
  C  C27  1  0.45206000  0.38012000  0.45777000  1.0
  C  C28  1  0.38034000  0.45738000  0.48660000  1.0
  C  C29  1  0.56108000  0.28535000  0.34147000  1.0
  C  C30  1  0.59838000  0.28756000  0.24753000  1.0
  C  C31  1  0.56161000  0.22232000  0.20925000  1.0
  C  C32  1  0.59285000  0.21494000  0.11659000  1.0
  C  C33  1  0.71677000  0.28091000  0.98420000  1.0
  C  C34  1  0.66569000  0.23092000  0.94085000  1.0
  C  C35  1  0.70100000  0.24369000  0.85232000  1.0
  C  C36  1  0.78884000  0.30465000  0.80639000  1.0
  C  C37  1  0.83765000  0.35695000  0.85103000  1.0
  C  C38  1  0.80263000  0.34473000  0.93898000  1.0
  C  C39  1  0.63102000  0.20194000  0.81287000  1.0
  C  C40  1  0.91832000  0.43563000  0.80718000  1.0
  C  C41  1  0.87486000  0.22795000  0.21262000  1.0
  C  C42  1  0.68657000  0.94618000  0.15265000  1.0
  C  C43  1  0.85935000  0.16200000  0.15147000  1.0
  C  C44  1  0.78076000  0.08841000  0.18091000  1.0
  C  C45  1  0.76811000  0.02604000  0.12284000  1.0
  C  C46  1  0.83317000  0.03688000  0.03672000  1.0
  C  C47  1  0.90947000  0.11312000  0.00711000  1.0
  C  C48  1  0.92285000  0.17600000  0.06464000  1.0
  C  C49  1  0.05484000  0.18749000  0.88671000  1.0
  C  C50  1  0.10958000  0.16329000  0.79605000  1.0
  C  C51  1  0.05948000  0.29706000  0.34492000  1.0
  C  C52  1  0.33957000  0.05489000  0.34272000  1.0
  C  C53  1  0.13320000  0.25362000  0.38219000  1.0
  C  C54  1  0.21491000  0.18932000  0.33779000  1.0
  C  C55  1  0.26722000  0.13698000  0.38213000  1.0
  C  C56  1  0.24391000  0.15321000  0.46780000  1.0
  C  C57  1  0.16489000  0.22006000  0.51042000  1.0
  C  C58  1  0.10832000  0.26881000  0.46780000  1.0
  C  C59  1  0.19074000  0.19653000  0.64101000  1.0
  C  C60  1  0.13509000  0.22709000  0.73005000  1.0
  C  C61  1  0.74365000  0.44550000  0.39665000  1.0
  C  C62  1  0.54568000  0.72501000  0.33568000  1.0
  C  C63  1  0.66924000  0.52783000  0.42677000  1.0
  C  C64  1  0.64544000  0.58674000  0.36804000  1.0
  C  C65  1  0.57157000  0.66162000  0.39729000  1.0
  C  C66  1  0.52429000  0.68001000  0.48398000  1.0
  C  C67  1  0.54793000  0.61988000  0.54223000  1.0
  C  C68  1  0.61966000  0.54263000  0.51340000  1.0
  C  C69  1  0.43892000  0.71465000  0.65853000  1.0
  C  C70  1  0.40162000  0.71245000  0.75247000  1.0
  C  C71  1  0.43838000  0.77769000  0.79075000  1.0
  C  C72  1  0.40715000  0.78507000  0.88341000  1.0
  C  C73  1  0.28322000  0.71909000  0.01580000  1.0
  C  C74  1  0.33430000  0.76909000  0.05915000  1.0
  C  C75  1  0.29899000  0.75632000  0.14768000  1.0
  C  C76  1  0.21116000  0.69535000  0.19360000  1.0
  C  C77  1  0.16235000  0.64305000  0.14897000  1.0
  C  C78  1  0.19737000  0.65528000  0.06102000  1.0
  C  C79  1  0.36898000  0.79806000  0.18712000  1.0
  C  C80  1  0.08168000  0.56437000  0.19282000  1.0
  O  O1  1  0.07045000  0.69435000  0.81599000  1.0
  O  O2  1  0.16991000  0.79980000  0.70783000  1.0
  O  O3  1  0.39523000  0.04815000  0.77808000  1.0
  O  O4  1  0.29560000  0.12855000  0.89463000  1.0
  O  O5  1  0.03512000  0.88096000  0.07816000  1.0
  O  O6  1  0.03783000  0.69167000  0.60005000  1.0
  O  O7  1  0.91119000  0.68021000  0.73311000  1.0
  O  O8  1  0.63076000  0.00289000  0.60875000  1.0
  O  O9  1  0.63098000  0.96165000  0.73531000  1.0
  O  O10  1  0.86848000  0.76097000  0.40594000  1.0
  O  O11  1  0.18521000  0.55262000  0.67909000  1.0
  O  O12  1  0.26988000  0.62924000  0.55171000  1.0
  O  O13  1  0.51102000  0.20015000  0.63785000  1.0
  O  O14  1  0.41458000  0.30082000  0.74219000  1.0
  O  O15  1  0.49523000  0.37087000  0.37230000  1.0
  O  O16  1  0.68515000  0.27591000  0.07030000  1.0
  O  O17  1  0.53171000  0.18650000  0.86525000  1.0
  O  O18  1  0.66437000  0.18517000  0.73490000  1.0
  O  O19  1  0.95518000  0.48610000  0.85269000  1.0
  O  O20  1  0.94568000  0.45731000  0.72909000  1.0
  O  O21  1  0.92954000  0.30566000  0.18401000  1.0
  O  O22  1  0.83009000  0.20020000  0.29217000  1.0
  O  O23  1  0.60477000  0.95185000  0.22192000  1.0
  O  O24  1  0.70440000  0.87146000  0.10537000  1.0
  O  O25  1  0.96488000  0.11905000  0.92184000  1.0
  O  O26  1  0.96217000  0.30833000  0.39995000  1.0
  O  O27  1  0.08880000  0.31979000  0.26689000  1.0
  O  O28  1  0.36923000  0.99712000  0.39125000  1.0
  O  O29  1  0.36901000  0.03836000  0.26469000  1.0
  O  O30  1  0.13152000  0.23903000  0.59406000  1.0
  O  O31  1  0.81479000  0.44738000  0.32091000  1.0
  O  O32  1  0.73012000  0.37076000  0.44829000  1.0
  O  O33  1  0.48898000  0.79986000  0.36215000  1.0
  O  O34  1  0.58541000  0.69918000  0.25781000  1.0
  O  O35  1  0.50477000  0.62913000  0.62770000  1.0
  O  O36  1  0.31485000  0.72409000  0.92970000  1.0
  O  O37  1  0.46829000  0.81350000  0.13475000  1.0
  O  O38  1  0.33562000  0.81484000  0.26510000  1.0
  O  O39  1  0.04482000  0.51390000  0.14731000  1.0
  O  O40  1  0.05432000  0.54269000  0.27091000  1.0
