# generated using pymatgen
data_H15C17N
_symmetry_space_group_name_H-M   'P 1'
_cell_length_a   32.45586085
_cell_length_b   32.45586085
_cell_length_c   32.45586085
_cell_angle_alpha   109.47122063
_cell_angle_beta   109.47122063
_cell_angle_gamma   109.47122063
_symmetry_Int_Tables_number   1
_chemical_formula_structural   H15C17N
_chemical_formula_sum   'H180 C204 N12'
_cell_volume   26318.28026976
_cell_formula_units_Z   12
loop_
 _symmetry_equiv_pos_site_id
 _symmetry_equiv_pos_as_xyz
  1  'x, y, z'
loop_
 _atom_site_type_symbol
 _atom_site_label
 _atom_site_symmetry_multiplicity
 _atom_site_fract_x
 _atom_site_fract_y
 _atom_site_fract_z
 _atom_site_occupancy
  C  1  1  0.21709750  0.74145450  0.45406000  1
  C  2  1  0.22916500  0.72198100  0.49255700  1
  C  3  1  0.24598350  0.73362150  0.42430200  1
  C  4  1  0.30426650  0.75908800  0.46020050  1
  C  7  1  0.31313300  0.73873900  0.49826900  1
  C  8  1  0.28713150  0.74840450  0.53106300  1
  C  13  1  0.30906100  0.80704750  0.56083450  1
  C  14  1  0.29864700  0.82944700  0.52494500  1
  C  17  1  0.32401200  0.81682100  0.49257700  1
  C  20  1  0.24022950  0.80024950  0.48686500  1
  C  23  1  0.79723300  0.25159700  0.52413600  1
  C  24  1  0.78516800  0.27801900  0.49258600  1
  C  25  1  0.76835250  0.19295200  0.48742750  1
  C  26  1  0.71006700  0.17056300  0.45460100  1
  C  29  1  0.70120650  0.19975900  0.42537650  1
  C  30  1  0.72720400  0.25855750  0.46103750  1
  C  35  1  0.70527000  0.26640450  0.49774850  1
  C  36  1  0.71568150  0.24093800  0.53056850  1
  C  39  1  0.69031700  0.18320200  0.49258300  1
  C  42  1  0.77409650  0.26127550  0.55979500  1
  C  45  1  0.75560950  0.53851100  0.27253650  1
  C  46  1  0.72918050  0.50001250  0.21456700  1
  C  47  1  0.81425350  0.56826950  0.29446200  1
  C  48  1  0.83663950  0.53237150  0.28403200  1
  C  51  1  0.80743850  0.49430200  0.22561550  1
  C  52  1  0.74864050  0.46150600  0.20248450  1
  C  57  1  0.74080050  0.43173850  0.23136000  1
  C  58  1  0.76627450  0.46762800  0.28964750  1
  C  61  1  0.82400850  0.49999600  0.30938950  1
  C  64  1  0.74593600  0.50570500  0.29852600  1
  C  67  1  0.26567150  0.46843850  0.71261200  1
  C  68  1  0.28515150  0.49998900  0.77058350  1
  C  69  1  0.27350000  0.50514650  0.69067450  1
  C  70  1  0.24803600  0.53796900  0.70110600  1
  C  73  1  0.26839550  0.56719550  0.75952400  1
  C  74  1  0.25873150  0.53153700  0.78266450  1
  C  79  1  0.20008700  0.49482350  0.75379550  1
  C  80  1  0.17768350  0.46200150  0.69551000  1
  C  83  1  0.19030400  0.49998500  0.67575900  1
  C  86  1  0.20687500  0.43277750  0.68662950  1
  C  89  1  0.47564500  0.72002950  0.25111950  1
  C  90  1  0.50718350  0.77799950  0.27059400  1
  C  91  1  0.51236400  0.69810500  0.25895300  1
  C  92  1  0.54518350  0.70854050  0.23348900  1
  C  95  1  0.57439700  0.76695950  0.25383950  1
  C  96  1  0.53872750  0.79008650  0.24417200  1
  C  101  1  0.50201400  0.76121250  0.18552750  1
  C  102  1  0.46920250  0.70292500  0.16312850  1
  C  105  1  0.50719750  0.68318400  0.17575450  1
  C  108  1  0.43998400  0.69404150  0.19232350  1
  C  111  1  0.54563600  0.27996350  0.74097250  1
  C  112  1  0.50714650  0.22199300  0.71455250  1
  C  113  1  0.57540250  0.30189950  0.79961900  1
  C  114  1  0.53950950  0.29146650  0.82201000  1
  C  117  1  0.50145050  0.23304750  0.79281700  1
  C  118  1  0.46864500  0.20990850  0.73401850  1
  C  123  1  0.43886650  0.23877500  0.72617350  1
  C  124  1  0.47474850  0.29706350  0.75164100  1
  C  127  1  0.50712200  0.31681150  0.80937350  1
  C  130  1  0.51282200  0.30594650  0.73129850  1
  C  265  1  0.43249500  0.15295100  0.70432000  1
  C  266  1  0.40135800  0.12780400  0.65105400  1
  C  267  1  0.37174850  0.07469150  0.62023300  1
  C  268  1  0.37332450  0.04460550  0.64345600  1
  C  269  1  0.40152050  0.06866800  0.69655550  1
  C  270  1  0.42997350  0.12159000  0.72621850  1
  C  273  1  0.35447750  0.99197100  0.61489250  1
  C  274  1  0.37511550  0.97519950  0.58535700  1
  C  275  1  0.35733750  0.92355000  0.55648050  1
  C  276  1  0.31843800  0.88590650  0.55582650  1
  C  277  1  0.29886350  0.90384650  0.58665400  1
  C  278  1  0.31653650  0.95565650  0.61582500  1
  C  287  1  0.58179050  0.28642350  0.72016900  1
  C  288  1  0.61294750  0.26431450  0.72618100  1
  C  289  1  0.64256000  0.26310350  0.70268050  1
  C  290  1  0.64097550  0.28476100  0.67102850  1
  C  291  1  0.61279350  0.30967600  0.66688950  1
  C  292  1  0.58428600  0.31081550  0.69130250  1
  C  295  1  0.65983500  0.27505300  0.63724800  1
  C  296  1  0.63919300  0.22488300  0.59983300  1
  C  297  1  0.65697400  0.21378400  0.56596500  1
  C  298  1  0.69588500  0.25202800  0.56723200  1
  C  299  1  0.71545800  0.30243100  0.60474400  1
  C  300  1  0.69777450  0.31392950  0.63887600  1
  C  309  1  0.56598300  0.84704350  0.26497250  1
  C  310  1  0.53785450  0.87218700  0.25901050  1
  C  311  1  0.56013250  0.92530100  0.28252150  1
  C  312  1  0.61344100  0.95538200  0.31420800  1
  C  313  1  0.64249850  0.93134000  0.31828950  1
  C  314  1  0.61923950  0.87842100  0.29385650  1
  C  317  1  0.63747450  0.00802550  0.34793600  1
  C  318  1  0.62469700  0.02481700  0.38532900  1
  C  319  1  0.64746650  0.07647050  0.41918400  1
  C  320  1  0.68447550  0.11410150  0.41793600  1
  C  321  1  0.69738500  0.09614500  0.38044400  1
  C  322  1  0.67473900  0.04432750  0.34631450  1
  C  331  1  0.44838350  0.71354850  0.28081200  1
  C  332  1  0.47650950  0.73568950  0.33408000  1
  C  333  1  0.45422350  0.73690400  0.36490750  1
  C  334  1  0.40091250  0.71525400  0.34168850  1
  C  335  1  0.37186800  0.69032600  0.28858600  1
  C  336  1  0.39512650  0.68914100  0.25892250  1
  C  339  1  0.37685000  0.72497400  0.37025800  1
  C  340  1  0.38962500  0.77514800  0.39980700  1
  C  341  1  0.36685400  0.78624800  0.42868600  1
  C  342  1  0.32985550  0.74800150  0.42932900  1
  C  343  1  0.31694800  0.69759500  0.39848300  1
  C  344  1  0.33958850  0.68609750  0.36930900  1
  C  353  1  0.72075750  0.28825700  0.43377650  1
  C  354  1  0.74288450  0.34152200  0.46189650  1
  C  355  1  0.74409050  0.37234250  0.43960400  1
  C  356  1  0.72243800  0.34911850  0.38629350  1
  C  357  1  0.69753100  0.29601850  0.35725750  1
  C  358  1  0.69632350  0.26635700  0.38051850  1
  C  361  1  0.73215650  0.37768200  0.36222450  1
  C  362  1  0.78232700  0.40721350  0.37498450  1
  C  363  1  0.79342850  0.43609150  0.35221300  1
  C  364  1  0.75518550  0.43675150  0.31523000  1
  C  365  1  0.70478200  0.40592000  0.30233600  1
  C  366  1  0.69328150  0.37674750  0.32497700  1
  C  375  1  0.85419200  0.27239800  0.55139800  1
  C  376  1  0.87933650  0.26638400  0.52327650  1
  C  377  1  0.93244800  0.28988450  0.54556550  1
  C  378  1  0.96251750  0.32153900  0.59887350  1
  C  379  1  0.93847500  0.32567750  0.62792750  1
  C  380  1  0.88555650  0.30126900  0.60465750  1
  C  383  1  0.01515700  0.35531900  0.62294500  1
  C  384  1  0.03193050  0.39273050  0.61018700  1
  C  385  1  0.08358000  0.42660200  0.63295700  1
  C  386  1  0.12122350  0.42533750  0.66993600  1
  C  387  1  0.10328450  0.38782600  0.68282950  1
  C  388  1  0.05146950  0.35369350  0.66019600  1
  C  397  1  0.29358800  0.72760400  0.56722000  1
  C  398  1  0.27142250  0.73356550  0.59832700  1
  C  399  1  0.27018750  0.71005200  0.62792750  1
  C  400  1  0.29181050  0.67836350  0.62631900  1
  C  401  1  0.31678600  0.67428500  0.59819800  1
  C  402  1  0.31795850  0.69871950  0.56971200  1
  C  405  1  0.28211400  0.64463400  0.64523400  1
  C  406  1  0.23194250  0.60724200  0.62463050  1
  C  407  1  0.22085450  0.57338550  0.64242700  1
  C  408  1  0.25911250  0.57463350  0.68130800  1
  C  409  1  0.30951450  0.61212650  0.70084600  1
  C  410  1  0.32099950  0.64625650  0.68315900  1
  C  419  1  0.16014200  0.71175850  0.41789050  1
  C  420  1  0.13500250  0.65849250  0.38676000  1
  C  421  1  0.08188950  0.62766600  0.35714450  1
  C  422  1  0.05179750  0.65088500  0.35871150  1
  C  423  1  0.07585450  0.70398700  0.38688350  1
  C  424  1  0.12877550  0.73365000  0.41536250  1
  C  427  1  0.99916500  0.62231550  0.33986250  1
  C  428  1  0.98239100  0.59276900  0.36048700  1
  C  429  1  0.93074050  0.56388800  0.34270850  1
  C  430  1  0.89309950  0.56324300  0.30381750  1
  C  431  1  0.91103800  0.59408750  0.28425550  1
  C  432  1  0.96285250  0.62326300  0.30193250  1
  C  441  1  0.27953650  0.55879900  0.83962150  1
  C  442  1  0.27355400  0.53068150  0.86477250  1
  C  443  1  0.29706100  0.55297150  0.91788550  1
  C  444  1  0.32872650  0.60628100  0.94797150  1
  C  445  1  0.33286250  0.63531600  0.92390650  1
  C  446  1  0.30839000  0.61205650  0.87098550  1
  C  449  1  0.36251350  0.63034850  0.00060300  1
  C  450  1  0.39992350  0.61758950  0.01737600  1
  C  451  1  0.43379500  0.64036050  0.06902650  1
  C  452  1  0.43253500  0.67734450  0.10666950  1
  C  453  1  0.39502250  0.69023500  0.08872950  1
  C  454  1  0.36088400  0.66759550  0.03691750  1
  C  463  1  0.29537050  0.44117950  0.70615500  1
  C  464  1  0.34863450  0.46929950  0.72826400  1
  C  465  1  0.37946150  0.44701200  0.72947950  1
  C  466  1  0.35622150  0.39370350  0.70782400  1
  C  467  1  0.30312550  0.36465000  0.68291050  1
  C  468  1  0.27347650  0.38791950  0.68176900  1
  C  471  1  0.38479100  0.36963250  0.71753150  1
  C  472  1  0.41432050  0.38238700  0.76769950  1
  C  473  1  0.44320050  0.35961750  0.77879800  1
  C  474  1  0.44386350  0.32263900  0.74055350  1
  C  475  1  0.41303150  0.30974750  0.69015000  1
  C  476  1  0.38385000  0.33238100  0.67865400  1
  C  485  1  0.71894250  0.42534950  0.14552800  1
  C  486  1  0.66567050  0.39424000  0.12038350  1
  C  487  1  0.63483550  0.36463800  0.06726850  1
  C  488  1  0.65806600  0.36624500  0.03718900  1
  C  489  1  0.71116450  0.39436850  0.06123300  1
  C  490  1  0.74082500  0.42285600  0.11415400  1
  C  493  1  0.62945700  0.34733450  0.98454550  1
  C  494  1  0.59989000  0.36793750  0.96775750  1
  C  495  1  0.57100500  0.35014100  0.91610600  1
  C  496  1  0.57038400  0.31126350  0.87847350  1
  C  497  1  0.60124500  0.29172300  0.89642400  1
  C  498  1  0.63041750  0.30941000  0.94824150  1
  C  507  1  0.73482000  0.57467750  0.27900350  1
  C  508  1  0.74081450  0.60581100  0.25687150  1
  C  509  1  0.71732250  0.63543100  0.25566650  1
  C  510  1  0.68566950  0.63386850  0.27732300  1
  C  511  1  0.68155600  0.60569700  0.30225500  1
  C  512  1  0.70599400  0.57721600  0.30343600  1
  C  515  1  0.65188650  0.65271900  0.26760350  1
  C  516  1  0.61448750  0.63209350  0.21743000  1
  C  517  1  0.58061400  0.64987150  0.20632950  1
  C  518  1  0.58186150  0.68875950  0.24457600  1
  C  519  1  0.61935950  0.70831950  0.29498000  1
  C  520  1  0.65349850  0.69064400  0.30647850  1
  H  5  1  0.23912350  0.74869100  0.39869350  1
  H  6  1  0.23101100  0.69345050  0.40064050  1
  H  9  1  0.29841150  0.69814300  0.47710050  1
  H  10  1  0.35378650  0.75636250  0.52319400  1
  H  11  1  0.21480750  0.68133350  0.47256100  1
  H  12  1  0.20850600  0.72761450  0.51254350  1
  H  15  1  0.34973650  0.82579250  0.58645000  1
  H  16  1  0.29254000  0.81573350  0.58448750  1
  H  18  1  0.36476500  0.83572150  0.51795550  1
  H  19  1  0.31754650  0.83220350  0.46720300  1
  H  21  1  0.22079750  0.80669150  0.50802900  1
  H  22  1  0.23293800  0.81598750  0.46194950  1
  H  27  1  0.77521050  0.17421000  0.50936250  1
  H  28  1  0.78332450  0.18425600  0.46222850  1
  H  31  1  0.71593250  0.19330700  0.39950650  1
  H  32  1  0.66055400  0.18402950  0.40234150  1
  H  33  1  0.79953000  0.27237650  0.46630050  1
  H  34  1  0.80582500  0.31866750  0.51887350  1
  H  37  1  0.66459450  0.25134350  0.47581300  1
  H  38  1  0.72178950  0.30657850  0.52295000  1
  H  40  1  0.64956600  0.16782950  0.47072650  1
  H  41  1  0.69677900  0.16429900  0.51443600  1
  H  43  1  0.79352950  0.30187250  0.58566500  1
  H  44  1  0.78138600  0.24365350  0.58282750  1
  H  49  1  0.83300100  0.59387900  0.33514000  1
  H  50  1  0.82294300  0.59192950  0.27794950  1
  H  53  1  0.81388500  0.51546900  0.20618600  1
  H  54  1  0.82316800  0.46937700  0.21831500  1
  H  55  1  0.73481850  0.52000600  0.19391350  1
  H  56  1  0.68853450  0.48002550  0.20021200  1
  H  59  1  0.75586200  0.40612350  0.22449150  1
  H  60  1  0.70062700  0.40808450  0.21638950  1
  H  62  1  0.83938200  0.47461750  0.30291150  1
  H  63  1  0.84291550  0.52537000  0.35014450  1
  H  65  1  0.70534000  0.48454350  0.28380650  1
  H  66  1  0.76356100  0.53062400  0.33918200  1
  H  71  1  0.25842400  0.48321000  0.64999700  1
  H  72  1  0.31367050  0.53034500  0.70717950  1
  H  75  1  0.30899250  0.59306550  0.77894300  1
  H  76  1  0.25077950  0.59023150  0.76682800  1
  H  77  1  0.32579800  0.52627800  0.79122900  1
  H  78  1  0.27951900  0.47370350  0.78494450  1
  H  81  1  0.18134700  0.51675850  0.76066750  1
  H  82  1  0.19140450  0.46962250  0.76876900  1
  H  84  1  0.17140700  0.52184100  0.68224000  1
  H  85  1  0.17491650  0.47813250  0.63500500  1
  H  87  1  0.20043650  0.40690800  0.70135450  1
  H  88  1  0.19113300  0.40974300  0.64597300  1
  H  93  1  0.49043650  0.65742650  0.24388100  1
  H  94  1  0.53756500  0.71461500  0.29912500  1
  H  97  1  0.60027200  0.78638750  0.29443450  1
  H  98  1  0.59742650  0.77426250  0.23621500  1
  H  99  1  0.53347450  0.79865150  0.31124100  1
  H  100  1  0.48088950  0.79235150  0.26496100  1
  H  103  1  0.52394600  0.76808550  0.16678450  1
  H  104  1  0.47680800  0.77618050  0.17684550  1
  H  106  1  0.52904800  0.68966300  0.15685400  1
  H  107  1  0.48535000  0.64243050  0.16037250  1
  H  109  1  0.41410750  0.70876050  0.18588100  1
  H  110  1  0.41695300  0.65338400  0.17658500  1
  H  115  1  0.60100350  0.34257750  0.81836100  1
  H  116  1  0.59906900  0.28539550  0.80831150  1
  H  119  1  0.52262600  0.21362750  0.79926450  1
  H  120  1  0.47652950  0.22574200  0.80854850  1
  H  121  1  0.52714750  0.20134800  0.72019350  1
  H  122  1  0.48715200  0.20763300  0.67390500  1
  H  125  1  0.41325650  0.23190500  0.74123750  1
  H  126  1  0.41520950  0.22380400  0.68600050  1
  H  128  1  0.48174500  0.31033000  0.82475000  1
  H  129  1  0.53248800  0.35756800  0.82827800  1
  H  131  1  0.49165700  0.29122100  0.69070200  1
  H  132  1  0.53773600  0.34660100  0.74892100  1
  H  271  1  0.40410250  0.04781950  0.71405600  1
  H  272  1  0.45111400  0.13640300  0.76413300  1
  H  279  1  0.40339700  0.00060150  0.58452650  1
  H  280  1  0.37404700  0.91453700  0.53601200  1
  H  281  1  0.27107550  0.87911200  0.58840250  1
  H  282  1  0.40155400  0.14854100  0.63331800  1
  H  283  1  0.30099500  0.96664200  0.63713000  1
  H  285  1  0.34228050  0.07571050  0.55440200  1
  H  286  1  0.32031250  0.01837450  0.54710900  1
  H  293  1  0.61023850  0.32462200  0.64348650  1
  H  294  1  0.56321750  0.32767600  0.68506750  1
  H  301  1  0.61090850  0.19576850  0.59694900  1
  H  302  1  0.64026600  0.17660450  0.54024250  1
  H  303  1  0.74325150  0.33196750  0.60780600  1
  H  304  1  0.61274700  0.24638250  0.74672250  1
  H  305  1  0.71332700  0.35077150  0.66541250  1
  H  307  1  0.67203300  0.22674600  0.73316900  1
  H  308  1  0.69400350  0.24142850  0.69780500  1
  H  315  1  0.68085000  0.95219350  0.34169150  1
  H  316  1  0.64234350  0.86359350  0.30006900  1
  H  323  1  0.59845750  0.99942500  0.38821250  1
  H  324  1  0.63600100  0.08549500  0.44489400  1
  H  325  1  0.72388350  0.12086800  0.37739550  1
  H  326  1  0.49938100  0.85144250  0.23846250  1
  H  327  1  0.68509550  0.03333000  0.31982350  1
  H  329  1  0.49331750  0.92424000  0.25177650  1
  H  330  1  0.54336500  0.98158200  0.28716900  1
  H  337  1  0.33352700  0.67545000  0.27110300  1
  H  338  1  0.37202300  0.67237500  0.22100900  1
  H  345  1  0.41586950  0.80426350  0.40065100  1
  H  346  1  0.37831700  0.82342500  0.44916500  1
  H  347  1  0.29045950  0.66805700  0.39672450  1
  H  348  1  0.51498200  0.75362750  0.35181350  1
  H  349  1  0.32925650  0.64924900  0.34799350  1
  H  351  1  0.52105150  0.77312650  0.43069300  1
  H  352  1  0.47101600  0.75845950  0.43800250  1
  H  359  1  0.68260450  0.27851450  0.31890900  1
  H  360  1  0.67954250  0.22843950  0.35741500  1
  H  367  1  0.81144150  0.40804500  0.40121750  1
  H  368  1  0.83060500  0.45655750  0.36366650  1
  H  369  1  0.67524400  0.40417150  0.27585450  1
  H  370  1  0.76082000  0.35925850  0.50036950  1
  H  371  1  0.65643500  0.35544550  0.31465750  1
  H  373  1  0.78045850  0.43817250  0.50645500  1
  H  374  1  0.76577700  0.44546450  0.45641050  1
  H  381  1  0.95932600  0.34908650  0.66627950  1
  H  382  1  0.87072450  0.30750650  0.62775400  1
  H  389  1  0.00652900  0.39561300  0.58395300  1
  H  390  1  0.09259400  0.45232100  0.62149900  1
  H  391  1  0.12801600  0.38476400  0.70930500  1
  H  392  1  0.85859450  0.24584100  0.48480450  1
  H  393  1  0.04048650  0.32715900  0.67050550  1
  H  395  1  0.93143100  0.25938900  0.47871900  1
  H  396  1  0.98876750  0.29475650  0.52876400  1
  H  403  1  0.33173250  0.65088050  0.59564700  1
  H  404  1  0.33485100  0.69250700  0.54867200  1
  H  411  1  0.20281950  0.60435800  0.59635450  1
  H  412  1  0.18367900  0.54767500  0.62574100  1
  H  413  1  0.33905900  0.61517500  0.72861800  1
  H  414  1  0.25349700  0.75411300  0.59813100  1
  H  415  1  0.35784650  0.67274850  0.69865400  1
  H  417  1  0.23411900  0.74079600  0.65761400  1
  H  418  1  0.24877400  0.70540300  0.67956300  1
  H  425  1  0.05499650  0.72147100  0.38948650  1
  H  426  1  0.14358650  0.77156400  0.43650850  1
  H  433  1  0.00779350  0.59192650  0.38876100  1
  H  434  1  0.92172500  0.54340900  0.35940700  1
  H  435  1  0.88630800  0.59584450  0.25647450  1
  H  436  1  0.15574150  0.64075850  0.38696600  1
  H  437  1  0.97383500  0.64457500  0.28639800  1
  H  439  1  0.08292900  0.56187850  0.32758250  1
  H  440  1  0.02558550  0.55457050  0.30560300  1
  H  447  1  0.35629550  0.67366300  0.94475250  1
  H  448  1  0.31471650  0.63515650  0.85617100  1
  H  455  1  0.40280400  0.59135650  0.99197350  1
  H  456  1  0.45951650  0.62890600  0.07803850  1
  H  457  1  0.39196350  0.71671400  0.11346250  1
  H  458  1  0.25300800  0.49220550  0.84403250  1
  H  459  1  0.33435750  0.67791400  0.02593350  1
  H  461  1  0.26657350  0.48612200  0.91686450  1
  H  462  1  0.30194750  0.53616500  0.97420250  1
  H  469  1  0.28562550  0.32629950  0.66796800  1
  H  470  1  0.23554800  0.36482200  0.66490900  1
  H  477  1  0.41515400  0.40862000  0.79681800  1
  H  478  1  0.46367350  0.37107450  0.81597600  1
  H  479  1  0.41128550  0.28327150  0.66061200  1
  H  480  1  0.36636550  0.50777300  0.74619450  1
  H  481  1  0.36255900  0.32207450  0.64180950  1
  H  483  1  0.44528900  0.51385950  0.76583350  1
  H  484  1  0.45258200  0.46381450  0.75115650  1
  H  491  1  0.72866350  0.39691850  0.04038100  1
  H  492  1  0.77875500  0.44389450  0.12898050  1
  H  499  1  0.59904150  0.39621100  0.99314950  1
  H  500  1  0.55051650  0.36682950  0.90708400  1
  H  501  1  0.60302000  0.26395250  0.87170150  1
  H  502  1  0.64794150  0.39443850  0.14112700  1
  H  503  1  0.65176900  0.29391450  0.95923850  1
  H  505  1  0.56907900  0.33495100  0.06832700  1
  H  506  1  0.56178750  0.31300300  0.01098550  1
  H  513  1  0.65809950  0.60310150  0.31714200  1
  H  514  1  0.69966000  0.55607200  0.32020700  1
  H  521  1  0.61161650  0.60382200  0.18831450  1
  H  522  1  0.55490150  0.63317100  0.16915050  1
  H  523  1  0.62240700  0.73609700  0.32451800  1
  H  524  1  0.76134450  0.60560150  0.23892800  1
  H  525  1  0.68001500  0.70617650  0.34332650  1
  H  527  1  0.74792500  0.66499150  0.21943950  1
  H  528  1  0.71256650  0.68697700  0.23411650  1
  N  284  1  0.34328000  0.05443250  0.56949350  1
  N  306  1  0.67103300  0.24084000  0.71089300  1
  N  328  1  0.52964050  0.94555500  0.27434650  1
  N  350  1  0.48470250  0.75919600  0.41565050  1
  N  372  1  0.76636550  0.42308450  0.47008500  1
  N  394  1  0.95271000  0.28166850  0.51508950  1
  N  416  1  0.24787200  0.71822800  0.65636100  1
  N  438  1  0.06162450  0.57692200  0.32869350  1
  N  460  1  0.28885400  0.52249150  0.93814450  1
  N  482  1  0.43019800  0.47748800  0.75174200  1
  N  504  1  0.58408900  0.33620700  0.04701300  1
  N  526  1  0.72551150  0.66388350  0.23337500  1
