# generated using pymatgen
data_ZnH8C12NO5
_symmetry_space_group_name_H-M   'P 1'
_cell_length_a   7.77260000
_cell_length_b   8.55151000
_cell_length_c   14.87391000
_cell_angle_alpha   88.88912000
_cell_angle_beta   85.93792000
_cell_angle_gamma   86.42191000
_symmetry_Int_Tables_number   1
_chemical_formula_structural   ZnH8C12NO5
_chemical_formula_sum   'Zn2 H16 C24 N2 O10'
_cell_volume   984.11400413
_cell_formula_units_Z   2
loop_
 _symmetry_equiv_pos_site_id
 _symmetry_equiv_pos_as_xyz
  1  'x, y, z'
loop_
 _atom_site_type_symbol
 _atom_site_label
 _atom_site_symmetry_multiplicity
 _atom_site_fract_x
 _atom_site_fract_y
 _atom_site_fract_z
 _atom_site_occupancy
  Zn  Zn0  1  0.69306000  0.51799000  0.48958000  1
  Zn  Zn1  1  0.30694000  0.48201000  0.51042000  1
  H  H2  1  0.67441000  0.29400000  0.77112000  1
  H  H3  1  0.01368000  0.61750000  0.43195000  1
  H  H4  1  0.31805000  0.04466000  0.02114000  1
  H  H5  1  0.43939000  0.97737000  0.11694000  1
  H  H6  1  0.23664000  0.08814000  0.13413000  1
  H  H7  1  0.56058000  0.02280000  0.88281000  1
  H  H8  1  0.76324000  0.91183000  0.86591000  1
  H  H9  1  0.68136000  0.95547000  0.97878000  1
  H  H10  1  0.32557000  0.70599000  0.22888000  1
  H  H11  1  0.33663000  0.71066000  0.77925000  1
  H  H12  1  0.66340000  0.28935000  0.22075000  1
  H  H13  1  0.24137000  0.83240000  0.92144000  1
  H  H14  1  0.75864000  0.16760000  0.07856000  1
  H  H15  1  0.29818000  0.00907000  0.51075000  1
  H  H16  1  0.70182000  0.99093000  0.48925000  1
  H  H17  1  0.98632000  0.38250000  0.56805000  1
  C  C18  1  0.45430000  0.79467000  0.50233000  1
  C  C19  1  0.39782000  0.61573000  0.18915000  1
  C  C20  1  0.50654000  0.50258000  0.76788000  1
  C  C21  1  0.49346000  0.49742000  0.23212000  1
  C  C22  1  0.40957000  0.62011000  0.81518000  1
  C  C23  1  0.59045000  0.37990000  0.18482000  1
  C  C24  1  0.40825000  0.62127000  0.90816000  1
  C  C25  1  0.59176000  0.37874000  0.09184000  1
  C  C26  1  0.50205000  0.50046000  0.95317000  1
  C  C27  1  0.49795000  0.49955000  0.04683000  1
  C  C28  1  0.59879000  0.38006000  0.90431000  1
  C  C29  1  0.54570000  0.20533000  0.49767000  1
  C  C30  1  0.40120000  0.61994000  0.09569000  1
  C  C31  1  0.31396000  0.74061000  0.95641000  1
  C  C32  1  0.68605000  0.25940000  0.04360000  1
  C  C33  1  0.30835000  0.99744000  0.09142000  1
  C  C34  1  0.69144000  0.00262000  0.90851000  1
  C  C35  1  0.31276000  0.74283000  0.05023000  1
  C  C36  1  0.68722000  0.25716000  0.94978000  1
  C  C37  1  0.43016000  0.95815000  0.50369000  1
  C  C38  1  0.56984000  0.04185000  0.49631000  1
  C  C39  1  0.49777000  0.49969000  0.32720000  1
  C  C40  1  0.50223000  0.50031000  0.67280000  1
  C  C41  1  0.60216000  0.38427000  0.81085000  1
  N  N42  1  0.04967000  0.45795000  0.52434000  1
  N  N43  1  0.95033000  0.54205000  0.47566000  1
  O  O44  1  0.61075000  0.73857000  0.49403000  1
  O  O45  1  0.78312000  0.14017000  0.90228000  1
  O  O46  1  0.38925000  0.26143000  0.50597000  1
  O  O47  1  0.32161000  0.71162000  0.50963000  1
  O  O48  1  0.67839000  0.28838000  0.49037000  1
  O  O49  1  0.64458000  0.51351000  0.36005000  1
  O  O50  1  0.35542000  0.48649000  0.63995000  1
  O  O51  1  0.35544000  0.48656000  0.37565000  1
  O  O52  1  0.64456000  0.51344000  0.62435000  1
  O  O53  1  0.21683000  0.85980000  0.09773000  1
