# generated using pymatgen
data_Cr6H40C60NClO28
_symmetry_space_group_name_H-M   'P 1'
_cell_length_a   10.98846000
_cell_length_b   10.99934000
_cell_length_c   18.82462000
_cell_angle_alpha   89.88254000
_cell_angle_beta   89.49242000
_cell_angle_gamma   119.76898000
_symmetry_Int_Tables_number   1
_chemical_formula_structural   Cr6H40C60NClO28
_chemical_formula_sum   'Cr6 H40 C60 N1 Cl1 O28'
_cell_volume   1974.86575887
_cell_formula_units_Z   1
loop_
 _symmetry_equiv_pos_site_id
 _symmetry_equiv_pos_as_xyz
  1  'x, y, z'
loop_
 _atom_site_type_symbol
 _atom_site_label
 _atom_site_symmetry_multiplicity
 _atom_site_fract_x
 _atom_site_fract_y
 _atom_site_fract_z
 _atom_site_occupancy
  Cr  Cr0  1  0.60208000  0.39296000  0.50224000  1
  Cr  Cr1  1  0.29152000  0.39834000  0.50125000  1
  Cr  Cr2  1  0.60643000  0.70867000  0.49646000  1
  Cr  Cr3  1  0.06146000  0.93765000  0.00761000  1
  Cr  Cr4  1  0.06263000  0.62533000  0.99452000  1
  Cr  Cr5  1  0.37477000  0.93794000  0.00119000  1
  H  H6  1  0.10872000  0.62591000  0.78900000  1
  H  H7  1  0.14300000  0.48517000  0.80666000  1
  H  H8  1  0.16235000  0.46193000  0.68758000  1
  H  H9  1  0.13021000  0.60394000  0.66993000  1
  H  H10  1  0.30191000  0.87482000  0.77981000  1
  H  H11  1  0.32970000  0.85351000  0.66165000  1
  H  H12  1  0.53644000  0.72223000  0.82230000  1
  H  H13  1  0.39610000  0.54476000  0.82990000  1
  H  H14  1  0.41164000  0.51260000  0.71105000  1
  H  H15  1  0.55627000  0.68570000  0.70427000  1
  H  H16  1  0.48204000  0.91967000  0.79248000  1
  H  H17  1  0.50695000  0.89406000  0.67661000  1
  H  H18  1  0.86145000  0.48954000  0.68346000  1
  H  H19  1  0.86325000  0.49304000  0.80853000  1
  H  H20  1  0.95507000  0.01593000  0.80238000  1
  H  H21  1  0.75993000  0.91705000  0.81109000  1
  H  H22  1  0.74000000  0.90342000  0.68253000  1
  H  H23  1  0.93534000  0.00285000  0.67370000  1
  H  H24  1  0.16103000  0.23642000  0.70095000  1
  H  H25  1  0.16098000  0.22472000  0.82854000  1
  H  H26  1  0.61888000  0.16037000  0.81823000  1
  H  H27  1  0.62001000  0.33078000  0.82268000  1
  H  H28  1  0.62304000  0.34110000  0.69498000  1
  H  H29  1  0.61953000  0.16897000  0.69088000  1
  H  H30  1  0.12269000  0.54556000  0.32223000  1
  H  H31  1  0.10206000  0.53870000  0.19194000  1
  H  H32  1  0.51875000  0.95090000  0.17697000  1
  H  H33  1  0.66051000  0.90720000  0.17076000  1
  H  H34  1  0.67349000  0.91804000  0.29740000  1
  H  H35  1  0.52357000  0.94923000  0.30208000  1
  H  H36  1  0.80144000  0.82736000  0.31139000  1
  H  H37  1  0.79972000  0.81761000  0.18106000  1
  H  H38  1  0.87308000  0.36720000  0.19047000  1
  H  H39  1  0.70053000  0.36156000  0.18639000  1
  H  H40  1  0.68953000  0.35922000  0.31232000  1
  H  H41  1  0.86265000  0.36567000  0.31730000  1
  H  H42  1  0.51935000  0.15175000  0.32769000  1
  H  H43  1  0.51240000  0.13934000  0.19719000  1
  H  H44  1  0.96957000  0.02102000  0.20506000  1
  H  H45  1  0.97893000  0.05746000  0.33078000  1
  C  C46  1  0.35418000  0.23951000  0.61030000  1
  C  C47  1  0.37793000  0.65328000  0.60097000  1
  C  C48  1  0.77513000  0.63036000  0.60109000  1
  C  C49  1  0.34850000  0.21793000  0.40295000  1
  C  C50  1  0.37571000  0.64558000  0.39363000  1
  C  C51  1  0.77162000  0.61718000  0.39519000  1
  C  C52  1  0.18430000  0.58893000  0.78000000  1
  C  C53  1  0.19837000  0.57363000  0.69953000  1
  C  C54  1  0.37911000  0.83845000  0.77178000  1
  C  C55  1  0.43237000  0.64552000  0.80095000  1
  C  C56  1  0.32747000  0.69788000  0.81234000  1
  C  C57  1  0.35308000  0.66827000  0.67650000  1
  C  C58  1  0.39587000  0.82202000  0.69237000  1
  C  C59  1  0.44486000  0.62448000  0.72089000  1
  C  C60  1  0.86091000  0.69043000  0.82084000  1
  C  C61  1  0.85732000  0.79457000  0.78027000  1
  C  C62  1  0.84729000  0.78693000  0.70805000  1
  C  C63  1  0.85818000  0.57601000  0.70908000  1
  C  C64  1  0.85770000  0.57804000  0.78254000  1
  C  C65  1  0.85476000  0.92834000  0.78357000  1
  C  C66  1  0.84182000  0.91934000  0.70199000  1
  C  C67  1  0.83938000  0.67392000  0.67021000  1
  C  C68  1  0.33006000  0.17751000  0.83435000  1
  C  C69  1  0.42207000  0.15236000  0.79353000  1
  C  C70  1  0.42422000  0.16085000  0.71985000  1
  C  C71  1  0.23427000  0.21066000  0.72534000  1
  C  C72  1  0.23627000  0.20767000  0.79910000  1
  C  C73  1  0.57808000  0.22721000  0.79679000  1
  C  C74  1  0.57991000  0.23382000  0.71642000  1
  C  C75  1  0.33265000  0.19309000  0.68439000  1
  C  C76  1  0.32419000  0.66143000  0.17106000  1
  C  C77  1  0.45575000  0.73367000  0.20321000  1
  C  C78  1  0.46668000  0.73621000  0.27629000  1
  C  C79  1  0.21593000  0.59714000  0.28934000  1
  C  C80  1  0.20455000  0.59091000  0.21510000  1
  C  C81  1  0.56202000  0.88672000  0.19758000  1
  C  C82  1  0.56911000  0.88962000  0.27711000  1
  C  C83  1  0.34848000  0.66700000  0.32031000  1
  C  C84  1  0.84522000  0.64991000  0.17650000  1
  C  C85  1  0.87515000  0.56155000  0.21635000  1
  C  C86  1  0.86900000  0.56130000  0.28945000  1
  C  C87  1  0.82232000  0.75304000  0.28525000  1
  C  C88  1  0.82038000  0.74712000  0.21148000  1
  C  C89  1  0.80446000  0.40611000  0.21200000  1
  C  C90  1  0.79778000  0.40481000  0.29197000  1
  C  C91  1  0.83490000  0.65243000  0.32501000  1
  C  C92  1  0.30205000  0.10583000  0.19063000  1
  C  C93  1  0.18323000  0.07616000  0.23105000  1
  C  C94  1  0.18921000  0.09157000  0.30313000  1
  C  C95  1  0.42570000  0.13331000  0.30063000  1
  C  C96  1  0.42114000  0.12416000  0.22640000  1
  C  C97  1  0.06873000  0.11088000  0.22163000  1
  C  C98  1  0.07614000  0.13210000  0.30161000  1
  C  C99  1  0.31661000  0.13670000  0.33831000  1
  C  C100  1  0.90124000  0.70317000  0.89528000  1
  C  C101  1  0.31273000  0.72279000  0.88849000  1
  C  C102  1  0.29394000  0.11831000  0.90581000  1
  C  C103  1  0.89243000  0.67428000  0.10372000  1
  C  C104  1  0.30814000  0.69783000  0.09862000  1
  C  C105  1  0.28542000  0.08457000  0.11498000  1
  N  N106  1  0.12621000  0.27727000  0.31982000  1
  Cl  Cl107  1  0.11415000  0.26263000  0.16719000  1
  O  O108  1  0.74430000  0.50738000  0.58144000  1
  O  O109  1  0.47265000  0.28032000  0.57893000  1
  O  O110  1  0.26041000  0.26051000  0.58459000  1
  O  O111  1  0.30492000  0.53230000  0.57382000  1
  O  O112  1  0.49650000  0.74484000  0.57637000  1
  O  O113  1  0.72344000  0.69912000  0.57196000  1
  O  O114  1  0.74350000  0.49894000  0.41986000  1
  O  O115  1  0.47192000  0.27250000  0.42915000  1
  O  O116  1  0.25962000  0.25206000  0.42301000  1
  O  O117  1  0.30419000  0.52448000  0.42404000  1
  O  O118  1  0.49571000  0.73639000  0.41479000  1
  O  O119  1  0.72271000  0.69130000  0.42217000  1
  O  O120  1  0.50001000  0.49999000  0.49998000  1
  O  O121  1  0.17431000  0.08940000  0.93057000  1
  O  O122  1  0.94556000  0.81846000  0.92985000  1
  O  O123  1  0.92285000  0.60606000  0.91551000  1
  O  O124  1  0.19332000  0.64655000  0.91757000  1
  O  O125  1  0.40659000  0.83717000  0.91525000  1
  O  O126  1  0.36447000  0.06520000  0.93157000  1
  O  O127  1  0.17111000  0.06826000  0.09184000  1
  O  O128  1  0.94259000  0.79887000  0.07934000  1
  O  O129  1  0.91965000  0.58493000  0.07678000  1
  O  O130  1  0.19035000  0.62696000  0.06706000  1
  O  O131  1  0.40339000  0.81604000  0.07651000  1
  O  O132  1  0.36150000  0.04561000  0.08106000  1
  O  O133  1  0.16629000  0.83364000  0.00110000  1
  O  O134  1  0.25309000  0.37202000  0.30155000  1
  O  O135  1  0.05393000  0.30737000  0.36427000  1
