# generated using pymatgen
data_NiH2(C5O4)2
_symmetry_space_group_name_H-M   'P 1'
_cell_length_a   7.17418000
_cell_length_b   10.66383107
_cell_length_c   10.66305000
_cell_angle_alpha   95.22172887
_cell_angle_beta   109.63939000
_cell_angle_gamma   109.43454569
_symmetry_Int_Tables_number   1
_chemical_formula_structural   NiH2(C5O4)2
_chemical_formula_sum   'Ni2 H4 C20 O16'
_cell_volume   705.38750174
_cell_formula_units_Z   2
loop_
 _symmetry_equiv_pos_site_id
 _symmetry_equiv_pos_as_xyz
  1  'x, y, z'
loop_
 _atom_site_type_symbol
 _atom_site_label
 _atom_site_symmetry_multiplicity
 _atom_site_fract_x
 _atom_site_fract_y
 _atom_site_fract_z
 _atom_site_occupancy
  Ni  Ni0  1  0.17376000  0.17748000  0.17309000  1
  Ni  Ni1  1  0.18146000  0.67782000  0.67329000  1
  H  H2  1  0.09094000  0.31493000  0.81299000  1
  H  H3  1  0.09810000  0.97301000  0.46856000  1
  H  H4  1  0.03921000  0.81275000  0.31490000  1
  H  H5  1  0.34738000  0.47485000  0.96896000  1
  C  C6  1  0.09628000  0.11511000  0.76710000  1
  C  C7  1  0.09498000  0.01757000  0.66800000  1
  C  C8  1  0.12622000  0.09008000  0.90770000  1
  C  C9  1  0.10368000  0.88205000  0.68563000  1
  C  C10  1  0.79127000  0.77080000  0.11504000  1
  C  C11  1  0.59706000  0.67321000  0.01582000  1
  C  C12  1  0.87625000  0.91247000  0.09266000  1
  C  C13  1  0.47572000  0.69356000  0.88018000  1
  C  C14  1  0.78797000  0.61401000  0.26765000  1
  C  C15  1  0.59312000  0.51714000  0.16848000  1
  C  C16  1  0.87207000  0.58891000  0.40834000  1
  C  C17  1  0.46691000  0.38189000  0.18654000  1
  C  C18  1  0.09924000  0.27123000  0.61390000  1
  C  C19  1  0.09605000  0.17286000  0.51484000  1
  C  C20  1  0.13334000  0.41259000  0.59081000  1
  C  C21  1  0.10302000  0.19250000  0.37935000  1
  C  C22  1  0.09515000  0.24067000  0.73833000  1
  C  C23  1  0.09251000  0.04704000  0.54279000  1
  C  C24  1  0.88699000  0.73935000  0.23938000  1
  C  C25  1  0.50144000  0.54754000  0.04342000  1
  O  O26  1  0.06978000  0.16241000  0.98159000  1
  O  O27  1  0.20828000  0.00646000  0.94359000  1
  O  O28  1  0.28116000  0.86963000  0.69372000  1
  O  O29  1  0.94425000  0.77994000  0.67500000  1
  O  O30  1  0.07820000  0.98660000  0.16319000  1
  O  O31  1  0.74488000  0.94958000  0.01202000  1
  O  O32  1  0.29603000  0.70536000  0.86647000  1
  O  O33  1  0.52466000  0.68118000  0.77881000  1
  O  O34  1  0.07511000  0.65914000  0.48143000  1
  O  O35  1  0.74128000  0.50745000  0.44453000  1
  O  O36  1  0.28545000  0.36958000  0.19476000  1
  O  O37  1  0.51442000  0.27960000  0.17576000  1
  O  O38  1  0.07818000  0.48745000  0.66299000  1
  O  O39  1  0.21815000  0.44874000  0.50864000  1
  O  O40  1  0.27995000  0.20198000  0.36588000  1
  O  O41  1  0.94171000  0.18138000  0.27750000  1
