# generated using pymatgen
data_H54C60N8O3
_symmetry_space_group_name_H-M   'P 1'
_cell_length_a   9.85793333
_cell_length_b   38.77835000
_cell_length_c   38.77840000
_cell_angle_alpha   120.00012796
_cell_angle_beta   90.00000000
_cell_angle_gamma   90.00000000
_symmetry_Int_Tables_number   1
_chemical_formula_structural   H54C60N8O3
_chemical_formula_sum   'H108 C120 N16 O6'
_cell_volume   12837.93465311
_cell_formula_units_Z   2
loop_
 _symmetry_equiv_pos_site_id
 _symmetry_equiv_pos_as_xyz
  1  'x, y, z'
loop_
 _atom_site_type_symbol
 _atom_site_label
 _atom_site_symmetry_multiplicity
 _atom_site_fract_x
 _atom_site_fract_y
 _atom_site_fract_z
 _atom_site_occupancy
  C  2  1  0.99464800  0.95388800  0.97747100  1
  C  3  1  0.99498200  0.01941100  0.97993400  1
  C  4  1  0.99474900  0.01693400  0.04297600  1
  C  5  1  0.10671000  0.03978700  0.06562200  1
  C  6  1  0.10558400  0.05971000  0.10776400  1
  C  7  1  0.99309700  0.05778800  0.12974400  1
  C  8  1  0.88106200  0.03480900  0.10649100  1
  C  9  1  0.88176300  0.01495800  0.06434400  1
  C  10  1  0.88193500  0.93253800  0.95395100  1
  C  11  1  0.88114300  0.89039000  0.93167200  1
  C  12  1  0.99275200  0.86712800  0.93163900  1
  C  13  1  0.10494400  0.88907300  0.95572100  1
  C  14  1  0.10620300  0.93121800  0.97789000  1
  C  15  1  0.10678200  0.01903200  0.95694500  1
  C  16  1  0.10582900  0.04123500  0.93700500  1
  C  17  1  0.99370400  0.06531000  0.93906900  1
  C  18  1  0.88183400  0.06522800  0.96219500  1
  C  19  1  0.88234200  0.04293000  0.98204300  1
  C  33  1  0.98893900  0.55058500  0.81326400  1
  C  34  1  0.98629800  0.60928600  0.80531800  1
  C  35  1  0.97645800  0.53772500  0.74393900  1
  C  36  1  0.98026400  0.49580100  0.72882100  1
  C  37  1  0.97450900  0.46765000  0.68801600  1
  C  38  1  0.96205300  0.47967600  0.65936800  1
  C  39  1  0.96354600  0.52107500  0.67325300  1
  C  40  1  0.96763100  0.54929300  0.71455300  1
  C  41  1  0.86801600  0.53649300  0.82146200  1
  C  42  1  0.87068700  0.50674200  0.83224200  1
  C  43  1  0.99392900  0.48905200  0.83476500  1
  C  44  1  0.11508000  0.50588500  0.82959900  1
  C  45  1  0.11283700  0.53589400  0.81906000  1
  C  46  1  0.88748300  0.63342600  0.83376400  1
  C  47  1  0.89615800  0.67548800  0.85455400  1
  C  48  1  0.00274300  0.69561600  0.84734600  1
  C  49  1  0.09515500  0.67155900  0.81664200  1
  C  50  1  0.09043000  0.62944500  0.79730600  1
  C  64  1  0.98624400  0.25562800  0.44692400  1
  C  65  1  0.99102800  0.18898000  0.38762000  1
  C  66  1  0.98727400  0.19869100  0.45888300  1
  C  67  1  0.01010900  0.22465700  0.50036700  1
  C  68  1  0.00189200  0.21203700  0.52851500  1
  C  69  1  0.97129400  0.17216000  0.51682200  1
  C  70  1  0.95720500  0.14510200  0.47553300  1
  C  71  1  0.96186100  0.15830900  0.44742100  1
  C  72  1  0.86388600  0.27594100  0.46400800  1
  C  73  1  0.86423200  0.31644200  0.49380900  1
  C  74  1  0.98655400  0.33855800  0.50832800  1
  C  75  1  0.10739100  0.31852800  0.48824200  1
  C  76  1  0.10759300  0.27794400  0.45829200  1
  C  77  1  0.89260500  0.19388000  0.36375600  1
  C  78  1  0.90028500  0.17265900  0.32167400  1
  C  79  1  0.00505500  0.14470600  0.30127500  1
  C  80  1  0.09627300  0.13732300  0.32507400  1
  C  81  1  0.09290400  0.16008900  0.36719500  1
  C  95  1  0.99018600  0.18380700  0.74091500  1
  C  96  1  0.98941300  0.19168700  0.80759300  1
  C  97  1  0.98205900  0.25310500  0.79750700  1
  C  98  1  0.99274300  0.26836400  0.77091800  1
  C  99  1  0.98667500  0.30918000  0.78361600  1
  C  100  1  0.96782700  0.33766500  0.82409800  1
  C  101  1  0.96343300  0.32365800  0.85149800  1
  C  102  1  0.96744900  0.28234200  0.83834000  1
  C  103  1  0.86836200  0.17717700  0.71931300  1
  C  104  1  0.87007700  0.16619200  0.67872700  1
  C  105  1  0.99317800  0.16197100  0.65783100  1
  C  106  1  0.11465300  0.16563100  0.67921100  1
  C  107  1  0.11344200  0.17627800  0.71979300  1
  C  108  1  0.89070800  0.16314200  0.80309300  1
  C  109  1  0.89894500  0.14235800  0.82437700  1
  C  110  1  0.00495300  0.14966200  0.85190600  1
  C  111  1  0.09697400  0.18052800  0.85880400  1
  C  112  1  0.09277400  0.19985500  0.83601200  1
  C  125  1  0.09982200  0.76271100  0.90078400  1
  C  126  1  0.00902300  0.73863500  0.86864600  1
  C  127  1  0.91192100  0.75965300  0.85904000  1
  C  129  1  0.99325700  0.82374800  0.90917900  1
  C  131  1  0.21070300  0.74869700  0.91844800  1
  C  132  1  0.26947200  0.78400000  0.95838600  1
  C  136  1  0.33364500  0.73114300  0.88917400  1
  C  140  1  0.15633400  0.71722500  0.92914200  1
  C  146  1  0.10343300  0.13044400  0.23412000  1
  C  147  1  0.01056500  0.12307500  0.25824600  1
  C  148  1  0.91113900  0.09318200  0.23729200  1
  C  150  1  0.99383800  0.07865500  0.17313400  1
  C  152  1  0.21692700  0.16134400  0.24805500  1
  C  153  1  0.27844100  0.16532400  0.21265000  1
  C  157  1  0.33754000  0.14903500  0.26587700  1
  C  161  1  0.16502000  0.20391900  0.27927900  1
  C  167  1  0.10229800  0.09642300  0.86582000  1
  C  168  1  0.01084800  0.12834900  0.87361800  1
  C  169  1  0.91303700  0.13780100  0.90403200  1
  C  171  1  0.99454500  0.08781100  0.91818800  1
  C  173  1  0.21400400  0.07893600  0.83438200  1
  C  174  1  0.27398800  0.03927100  0.83011000  1
  C  178  1  0.33604800  0.10852600  0.84615100  1
  C  182  1  0.16017200  0.06784200  0.79205500  1
  C  188  1  0.84349900  0.42877200  0.59639900  1
  C  189  1  0.96217400  0.44941000  0.61822800  1
  C  190  1  0.08943600  0.43257800  0.60072700  1
  C  192  1  0.98598500  0.37752900  0.54400100  1
  C  194  1  0.69590100  0.44075900  0.60795700  1
  C  195  1  0.59390200  0.40934400  0.57677000  1
  C  199  1  0.66698100  0.48096300  0.60909500  1
  C  203  1  0.65911900  0.44471200  0.64908500  1
  C  209  1  0.84970700  0.16319700  0.56933000  1
  C  210  1  0.96815000  0.16122400  0.54705200  1
  C  211  1  0.09475900  0.15713900  0.56215000  1
  C  213  1  0.99172500  0.15853600  0.61878900  1
  C  215  1  0.70232300  0.16652700  0.55936200  1
  C  216  1  0.60139800  0.17009800  0.59252800  1
  C  220  1  0.66057400  0.12800300  0.52008500  1
  C  224  1  0.67698500  0.20410400  0.55510200  1
  C  230  1  0.84894600  0.40009300  0.83475600  1
  C  231  1  0.96721600  0.37882600  0.83504700  1
  C  232  1  0.09454700  0.39714100  0.83772900  1
  C  234  1  0.99232600  0.45331000  0.83796200  1
  C  236  1  0.70111400  0.38790400  0.83348900  1
  C  237  1  0.59994900  0.41860600  0.83199000  1
  C  241  1  0.66637400  0.38678100  0.87226700  1
  C  245  1  0.66885700  0.34656500  0.79600000  1
  H  20  1  0.79520400  0.87693600  0.91599900  1
  H  21  1  0.79857000  0.94781600  0.95313800  1
  H  22  1  0.18987200  0.94550500  0.99452600  1
  H  23  1  0.18921200  0.87445000  0.95714200  1
  H  24  1  0.19060300  0.04197700  0.05131800  1
  H  25  1  0.19019700  0.07555900  0.12235500  1
  H  26  1  0.19041900  0.00240300  0.95465100  1
  H  27  1  0.19028900  0.03984700  0.92104400  1
  H  28  1  0.79596300  0.08091300  0.96439100  1
  H  29  1  0.79881600  0.04372100  0.99807100  1
  H  30  1  0.79812600  0.99902600  0.04907700  1
  H  31  1  0.79494900  0.03269300  0.11993300  1
  H  51  1  0.77926600  0.49586000  0.83495100  1
  H  52  1  0.77650800  0.54443900  0.81505700  1
  H  53  1  0.20164100  0.54346900  0.81086500  1
  H  54  1  0.20762300  0.49431600  0.82994900  1
  H  55  1  0.98786100  0.48439100  0.74736900  1
  H  56  1  0.97777800  0.43799400  0.67938400  1
  H  57  1  0.81001300  0.62034200  0.84056300  1
  H  58  1  0.82436600  0.69148600  0.87565800  1
  H  59  1  0.16919700  0.68466000  0.80861900  1
  H  60  1  0.16316300  0.61330500  0.77666800  1
  H  61  1  0.96491200  0.57878700  0.72297800  1
  H  62  1  0.96006400  0.53098800  0.65328200  1
  H  82  1  0.77345400  0.32852700  0.50715200  1
  H  83  1  0.77542000  0.26017200  0.45815700  1
  H  84  1  0.19843400  0.26361800  0.44814600  1
  H  85  1  0.19942700  0.33224600  0.49688600  1
  H  86  1  0.03263800  0.25396500  0.51137500  1
  H  87  1  0.01744300  0.23253200  0.55794600  1
  H  88  1  0.81666600  0.21428600  0.37706000  1
  H  89  1  0.82924600  0.17828500  0.30586200  1
  H  90  1  0.16871000  0.11571400  0.31177100  1
  H  91  1  0.16482600  0.15501700  0.38314500  1
  H  92  1  0.94601400  0.13786600  0.41811900  1
  H  93  1  0.94100300  0.11556000  0.46567100  1
  H  113  1  0.77854800  0.16473600  0.66565500  1
  H  114  1  0.77781300  0.18484200  0.73420200  1
  H  115  1  0.20305000  0.18341800  0.73515100  1
  H  116  1  0.20725000  0.16400900  0.66676800  1
  H  117  1  0.00546200  0.24990300  0.74110300  1
  H  118  1  0.99456800  0.31792800  0.76274700  1
  H  119  1  0.81364400  0.15628000  0.78306900  1
  H  120  1  0.82734000  0.12115700  0.81911000  1
  H  121  1  0.17050700  0.18863500  0.88008500  1
  H  122  1  0.16523200  0.22062800  0.84071100  1
  H  123  1  0.95981000  0.27376400  0.85923500  1
  H  124  1  0.95524700  0.34352900  0.88131500  1
  H  133  1  0.31625700  0.80668100  0.95336600  1
  H  134  1  0.34709600  0.77375400  0.97131800  1
  H  135  1  0.18910100  0.79818800  0.98052500  1
  H  137  1  0.36488400  0.75139900  0.87872300  1
  H  138  1  0.30970500  0.70249900  0.86343600  1
  H  139  1  0.42088400  0.72623000  0.90356700  1
  H  141  1  0.06323400  0.72782700  0.94667200  1
  H  142  1  0.23062000  0.71130500  0.94645200  1
  H  143  1  0.13542000  0.68869000  0.90268900  1
  H  145  1  0.83968400  0.81268400  0.87002400  1
  H  154  1  0.32364100  0.13725200  0.19013100  1
  H  155  1  0.35789000  0.18797900  0.22283900  1
  H  156  1  0.19990300  0.17367300  0.19828300  1
  H  158  1  0.36588300  0.11797800  0.24599900  1
  H  159  1  0.31267700  0.15271900  0.29478300  1
  H  160  1  0.42694100  0.16747100  0.27036700  1
  H  162  1  0.07376200  0.21140800  0.26840700  1
  H  163  1  0.24163700  0.22660000  0.28526900  1
  H  164  1  0.14181800  0.20627500  0.30781600  1
  H  166  1  0.83670300  0.05173300  0.18432600  1
  H  175  1  0.32036600  0.04459800  0.85796600  1
  H  176  1  0.35219700  0.02645800  0.80709900  1
  H  177  1  0.19436700  0.01691200  0.82211300  1
  H  179  1  0.36629400  0.11941600  0.87701500  1
  H  180  1  0.31166700  0.13396500  0.84278100  1
  H  181  1  0.42407800  0.09423300  0.82718300  1
  H  183  1  0.06786700  0.04996700  0.78501300  1
  H  184  1  0.23526700  0.05074400  0.76901100  1
  H  185  1  0.13807800  0.09413400  0.78979100  1
  H  187  1  0.83992800  0.12668200  0.94589600  1
  H  196  1  0.61018300  0.40547200  0.54714800  1
  H  197  1  0.48847400  0.41849700  0.58492400  1
  H  198  1  0.60662200  0.38038500  0.57475700  1
  H  200  1  0.69371900  0.47880000  0.58072600  1
  H  201  1  0.72453000  0.50539600  0.63248300  1
  H  202  1  0.55980000  0.48898500  0.61488400  1
  H  204  1  0.69522300  0.41881500  0.65051400  1
  H  205  1  0.54956400  0.44698200  0.65402600  1
  H  206  1  0.70259800  0.47142400  0.67386000  1
  H  208  1  0.18815700  0.38760100  0.55544600  1
  H  217  1  0.60937300  0.14424200  0.59661000  1
  H  218  1  0.49597000  0.17198100  0.58491500  1
  H  219  1  0.62321800  0.19676600  0.62104500  1
  H  221  1  0.68027400  0.10146900  0.52234800  1
  H  222  1  0.71600200  0.12505900  0.49451900  1
  H  223  1  0.55274600  0.12841600  0.51378300  1
  H  225  1  0.72058100  0.23062200  0.58034600  1
  H  226  1  0.56867400  0.20941500  0.55393400  1
  H  227  1  0.72045000  0.20071400  0.52777500  1
  H  229  1  0.19306800  0.15337100  0.60535200  1
  H  238  1  0.61289100  0.44829500  0.85791800  1
  H  239  1  0.49426800  0.40995700  0.83168400  1
  H  240  1  0.61689900  0.42068500  0.80522700  1
  H  242  1  0.69018000  0.41527500  0.89871200  1
  H  243  1  0.72288500  0.36363200  0.87403200  1
  H  244  1  0.55874800  0.38063700  0.87331100  1
  H  246  1  0.70857900  0.34524600  0.76906100  1
  H  247  1  0.55967600  0.34111000  0.79214100  1
  H  248  1  0.71177800  0.32203500  0.79847800  1
  H  250  1  0.19406100  0.44355200  0.84062400  1
  N  1  1  0.99547900  0.99674300  0.00012100  1
  N  32  1  0.98380400  0.56633400  0.78672600  1
  N  63  1  0.99088700  0.21322900  0.43058400  1
  N  94  1  0.98770800  0.21029600  0.78324300  1
  N  128  1  0.90674700  0.80035300  0.87879400  1
  N  130  1  0.08470600  0.80316100  0.91815400  1
  N  149  1  0.90558000  0.07229200  0.19659600  1
  N  151  1  0.08753800  0.10752100  0.19368400  1
  N  170  1  0.90763000  0.11805100  0.92497900  1
  N  172  1  0.08676800  0.07901600  0.88885300  1
  N  191  1  0.09804900  0.39817100  0.56493000  1
  N  193  1  0.86547200  0.39449600  0.56114000  1
  N  212  1  0.10314800  0.15558200  0.59647100  1
  N  214  1  0.87166900  0.16186000  0.60342200  1
  N  233  1  0.10373800  0.43307200  0.83942300  1
  N  235  1  0.87158600  0.43546900  0.83604000  1
  O  144  1  0.82087800  0.73960200  0.82935100  1
  O  165  1  0.81816300  0.08420700  0.25739600  1
  O  186  1  0.82146400  0.16731400  0.91344300  1
  O  207  1  0.20689300  0.44920800  0.62026100  1
  O  228  1  0.21250200  0.15661500  0.54376000  1
  O  249  1  0.21188400  0.37834100  0.83668200  1
