# generated using pymatgen
data_H14C35N6
_symmetry_space_group_name_H-M   'P 1'
_cell_length_a   12.55590000
_cell_length_b   12.55590000
_cell_length_c   50.22340000
_cell_angle_alpha   90.00110000
_cell_angle_beta   90.00170000
_cell_angle_gamma   90.00000000
_symmetry_Int_Tables_number   1
_chemical_formula_structural   H14C35N6
_chemical_formula_sum   'H56 C140 N24'
_cell_volume   7917.75038514
_cell_formula_units_Z   4
loop_
 _symmetry_equiv_pos_site_id
 _symmetry_equiv_pos_as_xyz
  1  'x, y, z'
loop_
 _atom_site_type_symbol
 _atom_site_label
 _atom_site_symmetry_multiplicity
 _atom_site_fract_x
 _atom_site_fract_y
 _atom_site_fract_z
 _atom_site_occupancy
  C  1  1  0.02613600  0.02368700  0.10509100  1
  C  2  1  0.92019600  0.02754900  0.11365500  1
  C  3  1  0.91829600  0.02816700  0.14136600  1
  C  4  1  0.02291000  0.02537200  0.15086800  1
  C  5  1  0.04277500  0.02585300  0.17859500  1
  C  6  1  0.95699300  0.02863900  0.19710200  1
  C  7  1  0.85168300  0.03135000  0.18661700  1
  C  8  1  0.83175300  0.03145700  0.15904200  1
  C  9  1  0.83597000  0.03079000  0.09525400  1
  C  10  1  0.85943800  0.03132100  0.06784600  1
  C  11  1  0.96608000  0.02821500  0.05839400  1
  C  12  1  0.04947900  0.02305500  0.07754000  1
  C  13  1  0.17554300  0.11359400  0.12872700  1
  C  14  1  0.28015700  0.07582500  0.13040000  1
  C  15  1  0.27878600  0.96523100  0.13030600  1
  C  16  1  0.17316100  0.92990500  0.12908300  1
  C  17  1  0.36429200  0.89320100  0.13031800  1
  C  18  1  0.34246300  0.78365900  0.12877000  1
  C  19  1  0.23632900  0.74476700  0.12763400  1
  C  20  1  0.15118200  0.81927500  0.12822300  1
  C  21  1  0.15619100  0.22460700  0.12732900  1
  C  22  1  0.24295600  0.29716200  0.12714400  1
  C  23  1  0.34768800  0.25612300  0.13016400  1
  C  24  1  0.36703900  0.14605600  0.13153400  1
  C  37  1  0.09947800  0.02274300  0.12833900  1
  C  38  1  0.99528300  0.03462900  0.60501900  1
  C  39  1  0.99286300  0.93037600  0.61479000  1
  C  40  1  0.99449500  0.93311800  0.64243000  1
  C  41  1  0.99770100  0.03911600  0.65093600  1
  C  42  1  0.00144400  0.06228800  0.67852900  1
  C  43  1  0.00269700  0.97855500  0.69767900  1
  C  44  1  0.99805600  0.87203500  0.68805400  1
  C  45  1  0.99387200  0.84871300  0.66072300  1
  C  46  1  0.99020400  0.84263100  0.59749700  1
  C  47  1  0.98805100  0.86096300  0.56990600  1
  C  48  1  0.98835600  0.96579000  0.55918400  1
  C  49  1  0.99415200  0.05292200  0.57719000  1
  C  50  1  0.90667300  0.18755600  0.62703500  1
  C  51  1  0.94422900  0.29216600  0.62502400  1
  C  52  1  0.05482900  0.29102200  0.62500400  1
  C  53  1  0.09032700  0.18552300  0.62646400  1
  C  54  1  0.12678800  0.37658400  0.62471100  1
  C  55  1  0.23637200  0.35491800  0.62627800  1
  C  56  1  0.27537100  0.24886300  0.62765800  1
  C  57  1  0.20096000  0.16364500  0.62730000  1
  C  58  1  0.79568000  0.16809900  0.62851600  1
  C  59  1  0.72296300  0.25475300  0.62843700  1
  C  60  1  0.76382800  0.35938500  0.62507000  1
  C  61  1  0.87384800  0.37885400  0.62363000  1
  C  74  1  0.99770600  0.11171900  0.62748500  1
  C  75  1  0.99262600  0.02808800  0.90102100  1
  C  76  1  0.09764700  0.03619500  0.89193600  1
  C  77  1  0.09736500  0.03798000  0.86421900  1
  C  78  1  0.99200300  0.03144700  0.85525000  1
  C  79  1  0.96994600  0.02912000  0.82762700  1
  C  80  1  0.05502700  0.03120600  0.80907800  1
  C  81  1  0.16103700  0.03819800  0.81865100  1
  C  82  1  0.18272600  0.04219900  0.84613200  1
  C  83  1  0.18312400  0.04202700  0.90992500  1
  C  84  1  0.16201900  0.03792800  0.93743000  1
  C  85  1  0.05679000  0.02593600  0.94739000  1
  C  86  1  0.97172700  0.02345000  0.92867400  1
  C  87  1  0.84108100  0.11768100  0.87829700  1
  C  88  1  0.73644500  0.07980200  0.87704600  1
  C  89  1  0.73808700  0.96922300  0.87699400  1
  C  90  1  0.84386000  0.93399600  0.87766900  1
  C  91  1  0.65263700  0.89716500  0.87735500  1
  C  92  1  0.67464400  0.78765400  0.87876100  1
  C  93  1  0.78086300  0.74880200  0.87941600  1
  C  94  1  0.86594600  0.82335900  0.87839200  1
  C  95  1  0.86042600  0.22869500  0.87966800  1
  C  96  1  0.77366500  0.30119400  0.88024400  1
  C  97  1  0.66876500  0.26006000  0.87769500  1
  C  98  1  0.64942600  0.14997400  0.87636900  1
  C  111  1  0.91737200  0.02705300  0.87815900  1
  C  112  1  0.01702800  0.04613000  0.40093100  1
  C  113  1  0.02270000  0.94184400  0.39124800  1
  C  114  1  0.02238500  0.94433400  0.36357600  1
  C  115  1  0.01661100  0.05044300  0.35511000  1
  C  116  1  0.01080200  0.07398200  0.32758500  1
  C  117  1  0.00895900  0.98977100  0.30875100  1
  C  118  1  0.01608700  0.88316000  0.31787800  1
  C  119  1  0.02316300  0.85988700  0.34520800  1
  C  120  1  0.02452400  0.85448400  0.40868000  1
  C  121  1  0.01928700  0.87325000  0.43624500  1
  C  122  1  0.01230400  0.97808200  0.44683000  1
  C  123  1  0.01211900  0.06492000  0.42869100  1
  C  124  1  0.10575200  0.19912600  0.37910500  1
  C  125  1  0.06802300  0.30370500  0.38091400  1
  C  126  1  0.95741300  0.30234900  0.38075900  1
  C  127  1  0.92207100  0.19677500  0.37927400  1
  C  128  1  0.88536700  0.38783300  0.38084900  1
  C  129  1  0.77583300  0.36601900  0.37922400  1
  C  130  1  0.73695300  0.25990900  0.37791200  1
  C  131  1  0.81146600  0.17476100  0.37836400  1
  C  132  1  0.21675500  0.17971500  0.37768100  1
  C  133  1  0.28939100  0.26640700  0.37766300  1
  C  134  1  0.24841600  0.37107800  0.38085900  1
  C  135  1  0.13834700  0.39047700  0.38223500  1
  C  148  1  0.01492300  0.12315200  0.37849100  1
  C  149  1  0.99106300  0.00830000  0.28120800  1
  C  151  1  0.06557000  0.05859200  0.23902200  1
  C  152  1  0.97279000  0.02482100  0.22538900  1
  C  154  1  0.89741200  0.97501800  0.26783200  1
  C  156  1  0.81390300  0.93548800  0.27957300  1
  C  158  1  0.03717700  0.01541700  0.78142100  1
  C  160  1  0.97957300  0.08887900  0.73964600  1
  C  161  1  0.01251300  0.99639000  0.72579800  1
  C  163  1  0.07045200  0.92243600  0.76778800  1
  C  165  1  0.11185700  0.83903700  0.77917700  1
  C  167  1  0.03702600  0.02146900  0.97549200  1
  C  169  1  0.92603000  0.08319100  0.01137900  1
  C  170  1  0.98834100  0.02857000  0.03045800  1
  C  172  1  0.09922000  0.96540500  0.99461100  1
  C  174  1  0.17785900  0.90194400  0.98894600  1
  C  176  1  0.00157100  0.99103400  0.47502400  1
  C  178  1  0.92415400  0.91365100  0.51428900  1
  C  179  1  0.98509900  0.98049000  0.53099800  1
  C  181  1  0.05764400  0.06357200  0.49165200  1
  C  183  1  0.12596900  0.13305900  0.48291900  1
  C  185  1  0.22848200  0.40922100  0.12391100  1
  C  187  1  0.15530900  0.57112900  0.14197000  1
  C  188  1  0.22066300  0.63302200  0.12511300  1
  C  190  1  0.28841400  0.47171600  0.10569100  1
  C  192  1  0.35123200  0.43397200  0.08735900  1
  C  194  1  0.61089000  0.24036200  0.63169400  1
  C  196  1  0.44900200  0.16658500  0.61374200  1
  C  197  1  0.38707400  0.23323200  0.63027500  1
  C  199  1  0.54824400  0.30143200  0.64964800  1
  C  201  1  0.58583800  0.36515800  0.66780100  1
  C  203  1  0.78850100  0.41324800  0.88338000  1
  C  205  1  0.86122900  0.57488900  0.86500000  1
  C  206  1  0.79651100  0.63703500  0.88195200  1
  C  208  1  0.72964000  0.47606400  0.90174400  1
  C  210  1  0.66770200  0.43864600  0.92030300  1
  C  212  1  0.40139500  0.25191100  0.37430800  1
  C  214  1  0.56350600  0.17820400  0.39214800  1
  C  215  1  0.62518700  0.24431600  0.37542300  1
  C  217  1  0.46373900  0.31229700  0.35615100  1
  C  219  1  0.42581200  0.37540700  0.33790900  1
  H  25  1  0.41180000  0.30633800  0.13107300  1
  H  26  1  0.44330500  0.11824500  0.13304200  1
  H  27  1  0.44133000  0.91940400  0.13088500  1
  H  28  1  0.40570600  0.73215600  0.12859900  1
  H  29  1  0.07396500  0.79392800  0.12689900  1
  H  30  1  0.07975700  0.25158300  0.12531300  1
  H  31  1  0.11988100  0.02148800  0.18499600  1
  H  32  1  0.78719200  0.03423300  0.19904600  1
  H  33  1  0.75524900  0.03369400  0.15210800  1
  H  34  1  0.12743900  0.02152700  0.07163900  1
  H  35  1  0.75860000  0.03302900  0.10155700  1
  H  36  1  0.79687600  0.03198200  0.05481000  1
  H  62  1  0.71351100  0.42335600  0.62392900  1
  H  63  1  0.90152000  0.45506900  0.62182200  1
  H  64  1  0.10049200  0.45357500  0.62401300  1
  H  65  1  0.28782200  0.41819800  0.62629400  1
  H  66  1  0.22634300  0.08650400  0.62886300  1
  H  67  1  0.76883100  0.09171300  0.63073400  1
  H  68  1  0.00668300  0.14007500  0.68435500  1
  H  69  1  0.99744000  0.80892600  0.70094500  1
  H  70  1  0.99125500  0.77134000  0.65442500  1
  H  71  1  0.99470100  0.12950500  0.57024900  1
  H  72  1  0.98977500  0.76647900  0.60469100  1
  H  73  1  0.98793800  0.79585300  0.55766100  1
  H  99  1  0.60457000  0.31022600  0.87705800  1
  H  100  1  0.57310100  0.12210600  0.87514300  1
  H  101  1  0.57555000  0.92332000  0.87717800  1
  H  102  1  0.61142200  0.73615500  0.87923400  1
  H  103  1  0.94325600  0.79805600  0.87937200  1
  H  104  1  0.93699200  0.25572700  0.88129100  1
  H  105  1  0.89294600  0.02137700  0.82125500  1
  H  106  1  0.22376000  0.03838900  0.80562300  1
  H  107  1  0.25968000  0.04545500  0.85271300  1
  H  108  1  0.89456800  0.01642400  0.93496900  1
  H  109  1  0.25961200  0.05020700  0.90326500  1
  H  110  1  0.22501100  0.04590200  0.95017000  1
  H  136  1  0.29867900  0.43513200  0.38184800  1
  H  137  1  0.11058400  0.46672800  0.38384100  1
  H  138  1  0.91155800  0.46485600  0.38157200  1
  H  139  1  0.72432000  0.42925600  0.37915400  1
  H  140  1  0.78617000  0.09757000  0.37688200  1
  H  141  1  0.24368300  0.10330600  0.37556400  1
  H  142  1  0.00338500  0.15139700  0.32152200  1
  H  143  1  0.01382400  0.82110500  0.30465700  1
  H  144  1  0.02583100  0.78250800  0.35148800  1
  H  145  1  0.00415100  0.14135300  0.43540300  1
  H  146  1  0.02813100  0.77827200  0.40158600  1
  H  147  1  0.02049300  0.80849600  0.44863000  1
  H  155  1  0.12889400  0.09072000  0.22913400  1
  H  164  1  0.94443300  0.15120000  0.72999500  1
  H  173  1  0.86249000  0.12911600  0.01677900  1
  H  182  1  0.87380400  0.85714400  0.52175300  1
  H  191  1  0.10896700  0.60585600  0.15625900  1
  H  200  1  0.41437900  0.12002300  0.59948200  1
  H  209  1  0.90642500  0.60934800  0.85044500  1
  H  218  1  0.59835700  0.13199600  0.40644400  1
  N  150  1  0.07128200  0.04846900  0.26598400  1
  N  153  1  0.89343500  0.98512700  0.24099100  1
  N  157  1  0.74034300  0.90067600  0.29000300  1
  N  159  1  0.99302000  0.09467800  0.76653800  1
  N  162  1  0.05607300  0.91808100  0.74109400  1
  N  166  1  0.14809800  0.76547800  0.78929800  1
  N  168  1  0.95289000  0.07776900  0.98523100  1
  N  171  1  0.07197700  0.97161800  0.02076400  1
  N  175  1  0.24730200  0.84579900  0.98400600  1
  N  177  1  0.93640800  0.92059000  0.48761000  1
  N  180  1  0.04851800  0.05340300  0.51861100  1
  N  184  1  0.18602600  0.19470300  0.47517700  1
  N  186  1  0.16383600  0.46294100  0.14113200  1
  N  189  1  0.28324500  0.57912500  0.10762600  1
  N  193  1  0.40685500  0.40063400  0.07123700  1
  N  195  1  0.55719300  0.17507300  0.61461800  1
  N  198  1  0.44086000  0.29653300  0.64761500  1
  N  202  1  0.61900200  0.42162300  0.68376400  1
  N  204  1  0.85231700  0.46672800  0.86591400  1
  N  207  1  0.73485500  0.58343100  0.89970100  1
  N  211  1  0.61282100  0.40558000  0.93661800  1
  N  213  1  0.45531500  0.18692400  0.39141400  1
  N  216  1  0.57116300  0.30719300  0.35803300  1
  N  220  1  0.39235000  0.43129800  0.32186000  1
