# generated using pymatgen
data_H23(C15N4)2
_symmetry_space_group_name_H-M   'P 1'
_cell_length_a   25.51580000
_cell_length_b   25.51580000
_cell_length_c   51.03150000
_cell_angle_alpha   90.00000000
_cell_angle_beta   90.00000000
_cell_angle_gamma   90.00000000
_symmetry_Int_Tables_number   1
_chemical_formula_structural   H23(C15N4)2
_chemical_formula_sum   'H184 C240 N64'
_cell_volume   33224.36679720
_cell_formula_units_Z   8
loop_
 _symmetry_equiv_pos_site_id
 _symmetry_equiv_pos_as_xyz
  1  'x, y, z'
loop_
 _atom_site_type_symbol
 _atom_site_label
 _atom_site_symmetry_multiplicity
 _atom_site_fract_x
 _atom_site_fract_y
 _atom_site_fract_z
 _atom_site_occupancy
  H  49  1  0.92029400  0.72670800  0.99855900  1
  H  50  1  0.92506000  0.81994800  0.00299000  1
  H  51  1  0.07827900  0.71413900  0.02253800  1
  H  52  1  0.08315600  0.80768100  0.02647900  1
  H  53  1  0.00104400  0.83942600  0.06817100  1
  H  54  1  0.00200400  0.90819200  0.10390000  1
  H  55  1  0.01391000  0.98300400  0.03342900  1
  H  56  1  0.01371800  0.04959800  0.00144000  1
  H  57  1  0.01179400  0.84200900  0.96267000  1
  H  58  1  0.01105300  0.91350600  0.92824200  1
  H  59  1  0.92184600  0.03034600  0.91976100  1
  H  60  1  0.91311400  0.02671300  0.87314800  1
  H  61  1  0.08484200  0.00646400  0.91277500  1
  H  62  1  0.07631700  0.00227100  0.86607000  1
  H  63  1  0.00119700  0.12432200  0.93097700  1
  H  64  1  0.00009900  0.19310200  0.96671000  1
  H  65  1  0.01091600  0.11902500  0.10664900  1
  H  66  1  0.01126500  0.19056200  0.07223000  1
  H  67  1  0.08249400  0.22492700  0.00820400  1
  H  68  1  0.07764700  0.31846900  0.01213300  1
  H  69  1  0.92465200  0.21266300  0.03210100  1
  H  70  1  0.91991800  0.30590700  0.03652600  1
  H  71  1  0.92194000  0.00173000  0.11484400  1
  H  72  1  0.91270200  0.00481800  0.16142500  1
  H  73  1  0.07574700  0.02969700  0.16904700  1
  H  74  1  0.08479100  0.02607500  0.12232500  1
  H  79  1  0.97925700  0.38698800  0.04571600  1
  H  80  1  0.95337100  0.99607100  0.83110400  1
  H  81  1  0.97957500  0.64564400  0.98920800  1
  H  82  1  0.95241500  0.03649600  0.20334700  1
  H  131  1  0.30696000  0.92008600  0.49832700  1
  H  132  1  0.21372400  0.92470700  0.50278900  1
  H  133  1  0.31935900  0.07790900  0.52259100  1
  H  134  1  0.22581100  0.08264100  0.52655700  1
  H  135  1  0.19422800  0.00029500  0.56812300  1
  H  136  1  0.12552600  0.00097700  0.60389500  1
  H  137  1  0.05057300  0.01319700  0.53348000  1
  H  138  1  0.98390500  0.01312300  0.50153100  1
  H  139  1  0.19137500  0.01126100  0.46260200  1
  H  140  1  0.11975400  0.01046200  0.42822700  1
  H  141  1  0.00271000  0.92102300  0.42014000  1
  H  142  1  0.00570800  0.91173000  0.37356100  1
  H  143  1  0.02652000  0.08393900  0.41258600  1
  H  144  1  0.03006300  0.07484100  0.36586800  1
  H  145  1  0.90896700  0.00076600  0.43111200  1
  H  146  1  0.84028800  0.99972700  0.46688000  1
  H  147  1  0.91468200  0.00997600  0.60676400  1
  H  148  1  0.84309400  0.01063000  0.57238300  1
  H  149  1  0.80876300  0.08217500  0.50844800  1
  H  150  1  0.71521300  0.07747500  0.51237100  1
  H  151  1  0.82074400  0.92417800  0.53214600  1
  H  152  1  0.72748800  0.91959600  0.53656600  1
  H  153  1  0.03199300  0.92112100  0.61513500  1
  H  154  1  0.02847500  0.91228700  0.66174600  1
  H  155  1  0.00319900  0.07534700  0.66890400  1
  H  156  1  0.00727500  0.08397900  0.62220400  1
  H  161  1  0.64651000  0.97912000  0.54583300  1
  H  162  1  0.03706000  0.95141200  0.33160300  1
  H  163  1  0.38799700  0.97939500  0.48911500  1
  H  164  1  0.99751300  0.95234500  0.70380000  1
  H  172  1  0.10032300  0.92088200  0.78824200  1
  H  173  1  0.07858600  0.94725000  0.81528400  1
  H  175  1  0.10313200  0.96593600  0.72237700  1
  H  176  1  0.12691900  0.94559600  0.75020900  1
  H  178  1  0.96680200  0.10183900  0.81263700  1
  H  179  1  0.94672500  0.12579100  0.78480900  1
  H  181  1  0.94891100  0.07818500  0.71961000  1
  H  182  1  0.92250800  0.09992300  0.74661900  1
  H  192  1  0.11218000  0.09547000  0.28772200  1
  H  193  1  0.08243600  0.07842200  0.31468600  1
  H  195  1  0.08005100  0.08111200  0.22031900  1
  H  196  1  0.09728200  0.11064500  0.24730000  1
  H  198  1  0.92917100  0.96532900  0.31270300  1
  H  199  1  0.90825800  0.94032500  0.28521400  1
  H  201  1  0.96611300  0.92854800  0.22221400  1
  H  202  1  0.94100300  0.90769400  0.24971600  1
  H  212  1  0.88601300  0.55119700  0.02995200  1
  H  213  1  0.91858500  0.60609600  0.03199400  1
  H  215  1  0.91804400  0.42686900  0.00324800  1
  H  216  1  0.88563300  0.48180400  0.00544100  1
  H  218  1  0.10674700  0.61048900  0.01677100  1
  H  219  1  0.13957600  0.55655000  0.01197400  1
  H  221  1  0.10643700  0.42184500  0.01785700  1
  H  222  1  0.13950600  0.47567500  0.02254200  1
  H  232  1  0.48239200  0.88578200  0.52989800  1
  H  233  1  0.42747700  0.91833800  0.53189300  1
  H  235  1  0.60689100  0.91771900  0.50339500  1
  H  236  1  0.55191400  0.88540200  0.50550700  1
  H  238  1  0.42312700  0.10651600  0.51663600  1
  H  239  1  0.47709700  0.13932600  0.51188400  1
  H  241  1  0.61173200  0.10617600  0.51811900  1
  H  242  1  0.55783200  0.13917500  0.52282000  1
  H  293  1  0.19463400  0.04023920  0.07694200  1
  H  294  1  0.19940000  0.13347900  0.08137300  1
  H  295  1  0.35261900  0.02767020  0.10092100  1
  H  296  1  0.35749600  0.12121200  0.10486200  1
  H  297  1  0.27538400  0.15295700  0.14655400  1
  H  298  1  0.27634400  0.22172300  0.18228300  1
  H  299  1  0.28825000  0.29653500  0.11181200  1
  H  300  1  0.28805800  0.36312900  0.07982300  1
  H  301  1  0.28613400  0.15554000  0.04105300  1
  H  302  1  0.28539300  0.22703700  0.00662496  1
  H  303  1  0.19618600  0.34387700  0.99814400  1
  H  304  1  0.18745400  0.34024400  0.95153100  1
  H  305  1  0.35918200  0.31999500  0.99115800  1
  H  306  1  0.35065700  0.31580200  0.94445300  1
  H  307  1  0.27553700  0.43785300  0.00935996  1
  H  308  1  0.27443900  0.50663300  0.04509300  1
  H  309  1  0.28525600  0.43255600  0.18503200  1
  H  310  1  0.28560500  0.50409300  0.15061300  1
  H  311  1  0.35683400  0.53845800  0.08658700  1
  H  312  1  0.35198700  0.63200000  0.09051600  1
  H  313  1  0.19899200  0.52619400  0.11048400  1
  H  314  1  0.19425800  0.61943800  0.11490900  1
  H  315  1  0.19628000  0.31526100  0.19322700  1
  H  316  1  0.18704200  0.31834900  0.23980800  1
  H  317  1  0.35008700  0.34322800  0.24743000  1
  H  318  1  0.35913100  0.33960600  0.20070800  1
  H  323  1  0.25359700  0.70051900  0.12409900  1
  H  324  1  0.22771100  0.30960200  0.90948700  1
  H  325  1  0.25391500  0.95917500  0.06759100  1
  H  326  1  0.22675500  0.35002700  0.28173000  1
  H  375  1  0.58130000  0.23361700  0.57671000  1
  H  376  1  0.48806400  0.23823800  0.58117200  1
  H  377  1  0.59369900  0.39144000  0.60097400  1
  H  378  1  0.50015100  0.39617200  0.60494000  1
  H  379  1  0.46856800  0.31382600  0.64650600  1
  H  380  1  0.39986600  0.31450800  0.68227800  1
  H  381  1  0.32491300  0.32672800  0.61186300  1
  H  382  1  0.25824500  0.32665400  0.57991400  1
  H  383  1  0.46571500  0.32479200  0.54098500  1
  H  384  1  0.39409400  0.32399300  0.50661000  1
  H  385  1  0.27705000  0.23455400  0.49852300  1
  H  386  1  0.28004800  0.22526100  0.45194400  1
  H  387  1  0.30086000  0.39747000  0.49096900  1
  H  388  1  0.30440300  0.38837200  0.44425100  1
  H  389  1  0.18330700  0.31429700  0.50949500  1
  H  390  1  0.11462800  0.31325800  0.54526300  1
  H  391  1  0.18902200  0.32350700  0.68514700  1
  H  392  1  0.11743400  0.32416100  0.65076600  1
  H  393  1  0.08310280  0.39570600  0.58683100  1
  H  394  1  0.98955300  0.39100600  0.59075400  1
  H  395  1  0.09508380  0.23770900  0.61052900  1
  H  396  1  0.00182782  0.23312700  0.61494900  1
  H  397  1  0.30633300  0.23465200  0.69351800  1
  H  398  1  0.30281500  0.22581800  0.74012900  1
  H  399  1  0.27753900  0.38887800  0.74728700  1
  H  400  1  0.28161500  0.39751000  0.70058700  1
  H  405  1  0.92085000  0.29265100  0.62421600  1
  H  406  1  0.31140000  0.26494300  0.40998600  1
  H  407  1  0.66233700  0.29292600  0.56749800  1
  H  408  1  0.27185300  0.26587600  0.78218300  1
  H  416  1  0.37466300  0.23441300  0.86662500  1
  H  417  1  0.35292600  0.26078100  0.89366700  1
  H  419  1  0.37747200  0.27946700  0.80076000  1
  H  420  1  0.40125900  0.25912700  0.82859200  1
  H  422  1  0.24114200  0.41537000  0.89102000  1
  H  423  1  0.22106500  0.43932200  0.86319200  1
  H  425  1  0.22325100  0.39171600  0.79799300  1
  H  426  1  0.19684800  0.41345400  0.82500200  1
  H  436  1  0.38652000  0.40900100  0.36610500  1
  H  437  1  0.35677600  0.39195300  0.39306900  1
  H  439  1  0.35439100  0.39464300  0.29870200  1
  H  440  1  0.37162200  0.42417600  0.32568300  1
  H  442  1  0.20351100  0.27886000  0.39108600  1
  H  443  1  0.18259800  0.25385600  0.36359700  1
  H  445  1  0.24045300  0.24207900  0.30059700  1
  H  446  1  0.21534300  0.22122500  0.32809900  1
  H  456  1  0.16035300  0.86472800  0.10833500  1
  H  457  1  0.19292500  0.91962700  0.11037700  1
  H  459  1  0.19238400  0.74040000  0.08163100  1
  H  460  1  0.15997300  0.79533500  0.08382400  1
  H  462  1  0.38108700  0.92402000  0.09515400  1
  H  463  1  0.41391600  0.87008100  0.09035700  1
  H  465  1  0.38077700  0.73537600  0.09624000  1
  H  466  1  0.41384600  0.78920600  0.10092500  1
  H  476  1  0.75673200  0.19931300  0.60828100  1
  H  477  1  0.70181700  0.23186900  0.61027600  1
  H  479  1  0.88123100  0.23125000  0.58177800  1
  H  480  1  0.82625400  0.19893300  0.58389000  1
  H  482  1  0.69746700  0.42004700  0.59501900  1
  H  483  1  0.75143700  0.45285700  0.59026700  1
  H  485  1  0.88607200  0.41970700  0.59650200  1
  H  486  1  0.83217200  0.45270600  0.60120300  1
  C  1  1  0.00397200  0.87878600  0.06484600  1
  C  2  1  0.00439900  0.91630000  0.08433500  1
  C  3  1  0.00786300  0.96559100  0.07254500  1
  C  5  1  0.00772200  0.90416300  0.04065800  1
  C  6  1  0.00809100  0.87856300  0.01586400  1
  C  7  1  0.00972100  0.90504400  0.99135200  1
  C  9  1  0.00994800  0.96840100  0.96084300  1
  C  10  1  0.01085000  0.92011400  0.94797900  1
  C  11  1  0.01117500  0.88119600  0.96672600  1
  C  12  1  0.00839200  0.01840300  0.94858200  1
  C  13  1  0.00740500  0.06696300  0.96232700  1
  C  15  1  0.00716600  0.12841000  0.99422300  1
  C  16  1  0.00323100  0.15375500  0.97003200  1
  C  17  1  0.00369700  0.11623700  0.95054000  1
  C  18  1  0.00757300  0.15402300  0.01901800  1
  C  19  1  0.00943100  0.12754600  0.04353300  1
  C  21  1  0.01003800  0.06416300  0.07403600  1
  C  22  1  0.01072800  0.11244300  0.08691000  1
  C  23  1  0.01084200  0.15137600  0.06816600  1
  C  24  1  0.00864300  0.01415000  0.08628900  1
  C  25  1  0.00432000  0.01298200  0.11422600  1
  C  26  1  0.04853400  0.02068700  0.13045500  1
  C  27  1  0.04312700  0.02265800  0.15793300  1
  C  28  1  0.99339400  0.01698300  0.16993700  1
  C  29  1  0.94939700  0.00873300  0.15354900  1
  C  30  1  0.95472400  0.00678900  0.12611800  1
  C  31  1  0.00390100  0.21000500  0.01953800  1
  C  32  1  0.04773400  0.24175100  0.01360700  1
  C  33  1  0.04478900  0.29673300  0.01586400  1
  C  34  1  0.99808500  0.32133700  0.02436400  1
  C  35  1  0.95416700  0.28950000  0.03004700  1
  C  36  1  0.95684800  0.23465900  0.02740600  1
  C  37  1  0.00426500  0.01947000  0.92063100  1
  C  38  1  0.95476700  0.02530000  0.90858300  1
  C  39  1  0.94971900  0.02293200  0.88113800  1
  C  40  1  0.99390700  0.01464300  0.86488100  1
  C  41  1  0.04351400  0.00923100  0.87706200  1
  C  42  1  0.04864400  0.01161800  0.90453900  1
  C  43  1  0.00444600  0.82259000  0.01534500  1
  C  44  1  0.95730600  0.79794600  0.00760100  1
  C  45  1  0.04834000  0.79085600  0.02117200  1
  C  46  1  0.04536300  0.73587100  0.01893300  1
  C  47  1  0.99858700  0.71128600  0.01051600  1
  C  48  1  0.95459400  0.74311300  0.00496700  1
  C  75  1  0.99571400  0.37479600  0.02910000  1
  C  76  1  0.98726400  0.00987400  0.83790000  1
  C  77  1  0.99616800  0.65783600  0.00579000  1
  C  78  1  0.98625300  0.02194400  0.19685900  1
  C  83  1  0.15486200  0.00329300  0.56482700  1
  C  84  1  0.11738900  0.00358700  0.58434100  1
  C  85  1  0.06806600  0.00699300  0.57258300  1
  C  87  1  0.12944100  0.00710300  0.54065200  1
  C  88  1  0.15498800  0.00756500  0.51583800  1
  C  89  1  0.12843900  0.00920000  0.49133900  1
  C  91  1  0.06497900  0.00938400  0.46087600  1
  C  92  1  0.11322200  0.01025800  0.44797000  1
  C  93  1  0.15220100  0.01060300  0.46669000  1
  C  94  1  0.01494100  0.00781600  0.44865400  1
  C  95  1  0.96641800  0.00693800  0.46242800  1
  C  97  1  0.90506400  0.00671500  0.49435100  1
  C  98  1  0.87964400  0.00284300  0.47018000  1
  C  99  1  0.91710800  0.00334100  0.45066800  1
  C  100  1  0.87951500  0.00707900  0.51915900  1
  C  101  1  0.90605600  0.00871400  0.54365800  1
  C  103  1  0.96949900  0.00906200  0.57412500  1
  C  104  1  0.92123800  0.00979100  0.58702300  1
  C  105  1  0.88227000  0.01005000  0.56830200  1
  C  106  1  0.01953400  0.00764400  0.58635700  1
  C  107  1  0.02069000  0.00348200  0.61430700  1
  C  108  1  0.01267600  0.04780000  0.63042000  1
  C  109  1  0.01036800  0.04261100  0.65789700  1
  C  110  1  0.01602700  0.99300600  0.67005200  1
  C  111  1  0.02451000  0.94888800  0.65377400  1
  C  112  1  0.02681300  0.95399500  0.62632900  1
  C  113  1  0.82353800  0.00350500  0.51970200  1
  C  114  1  0.79187900  0.04742700  0.51382400  1
  C  115  1  0.73689300  0.04456400  0.51606700  1
  C  116  1  0.71221500  0.99785800  0.52451100  1
  C  117  1  0.74396000  0.95384200  0.53012500  1
  C  118  1  0.79880800  0.95645200  0.52750900  1
  C  119  1  0.01372200  0.00343900  0.42072000  1
  C  120  1  0.00763200  0.95380600  0.40885100  1
  C  121  1  0.00955600  0.94844500  0.38142100  1
  C  122  1  0.01762700  0.99243700  0.36501000  1
  C  123  1  0.02315200  0.04221200  0.37699400  1
  C  124  1  0.02123400  0.04765300  0.40447200  1
  C  125  1  0.21097600  0.00399900  0.51528300  1
  C  126  1  0.23568200  0.95695400  0.50744300  1
  C  127  1  0.24267400  0.04789600  0.52116200  1
  C  128  1  0.29766200  0.04500400  0.51890700  1
  C  129  1  0.32230400  0.99831600  0.51041400  1
  C  130  1  0.29052000  0.95433200  0.50478600  1
  C  157  1  0.65875400  0.99556900  0.52922600  1
  C  158  1  0.02255100  0.98527300  0.33808700  1
  C  159  1  0.37577100  0.99594500  0.50570100  1
  C  160  1  0.01124200  0.98628800  0.69702800  1
  C  165  1  0.02337800  0.02022200  0.73977200  1
  C  166  1  0.05923500  0.98842000  0.75415500  1
  C  167  1  0.05503300  0.98622200  0.78207100  1
  C  168  1  0.02123400  0.02213800  0.79517900  1
  C  169  1  0.98958000  0.05813300  0.78080000  1
  C  170  1  0.98751100  0.05407600  0.75287600  1
  C  185  1  0.01756000  0.00991300  0.23987700  1
  C  186  1  0.04931500  0.04699300  0.25347300  1
  C  187  1  0.04810900  0.04815500  0.28150400  1
  C  188  1  0.01077900  0.01662600  0.29506300  1
  C  189  1  0.97621600  0.98256100  0.28121800  1
  C  190  1  0.98327100  0.97551100  0.25368400  1
  C  205  1  0.01193900  0.46116200  0.01476300  1
  C  206  1  0.96347500  0.48897600  0.01479000  1
  C  207  1  0.96360000  0.54384400  0.02028600  1
  C  208  1  0.01216300  0.57148200  0.02016000  1
  C  209  1  0.06076300  0.54426400  0.01792200  1
  C  210  1  0.06065900  0.48822000  0.01684600  1
  C  225  1  0.57245400  0.01173100  0.51480500  1
  C  226  1  0.54464800  0.96326300  0.51479900  1
  C  227  1  0.48976000  0.96337300  0.52024900  1
  C  228  1  0.46211000  0.01193500  0.52011000  1
  C  229  1  0.48933700  0.06053500  0.51789900  1
  C  230  1  0.54538800  0.06044300  0.51689000  1
  C  245  1  0.27831200  0.19231700  0.14322900  1
  C  246  1  0.27873900  0.22983100  0.16271800  1
  C  247  1  0.28220300  0.27912200  0.15092800  1
  C  249  1  0.28206200  0.21769400  0.11904100  1
  C  250  1  0.28243100  0.19209400  0.09424700  1
  C  251  1  0.28406100  0.21857500  0.06973500  1
  C  253  1  0.28428800  0.28193200  0.03922600  1
  C  254  1  0.28519000  0.23364500  0.02636200  1
  C  255  1  0.28551500  0.19472700  0.04510900  1
  C  256  1  0.28273200  0.33193400  0.02696500  1
  C  257  1  0.28174500  0.38049400  0.04071000  1
  C  259  1  0.28150600  0.44194100  0.07260600  1
  C  260  1  0.27757100  0.46728600  0.04841500  1
  C  261  1  0.27803700  0.42976800  0.02892300  1
  C  262  1  0.28191300  0.46755400  0.09740100  1
  C  263  1  0.28377100  0.44107700  0.12191600  1
  C  265  1  0.28437800  0.37769400  0.15241900  1
  C  266  1  0.28506800  0.42597400  0.16529300  1
  C  267  1  0.28518200  0.46490700  0.14654900  1
  C  268  1  0.28298300  0.32768100  0.16467200  1
  C  269  1  0.27866000  0.32651300  0.19260900  1
  C  270  1  0.32287400  0.33421800  0.20883800  1
  C  271  1  0.31746700  0.33618900  0.23631600  1
  C  272  1  0.26773400  0.33051400  0.24832000  1
  C  273  1  0.22373700  0.32226400  0.23193200  1
  C  274  1  0.22906400  0.32032000  0.20450100  1
  C  275  1  0.27824100  0.52353600  0.09792100  1
  C  276  1  0.32207400  0.55528200  0.09199000  1
  C  277  1  0.31912900  0.61026400  0.09424700  1
  C  278  1  0.27242500  0.63486800  0.10274700  1
  C  279  1  0.22850700  0.60303100  0.10843000  1
  C  280  1  0.23118800  0.54819000  0.10578900  1
  C  281  1  0.27860500  0.33300100  0.99901400  1
  C  282  1  0.22910700  0.33883100  0.98696600  1
  C  283  1  0.22405900  0.33646300  0.95952100  1
  C  284  1  0.26824700  0.32817400  0.94326400  1
  C  285  1  0.31785400  0.32276200  0.95544500  1
  C  286  1  0.32298400  0.32514900  0.98292200  1
  C  287  1  0.27878600  0.13612100  0.09372800  1
  C  288  1  0.23164600  0.11147700  0.08598400  1
  C  289  1  0.32268000  0.10438700  0.09955500  1
  C  290  1  0.31970300  0.04940220  0.09731600  1
  C  291  1  0.27292700  0.02481720  0.08889900  1
  C  292  1  0.22893400  0.05664420  0.08335000  1
  C  319  1  0.27005400  0.68832700  0.10748300  1
  C  320  1  0.26160400  0.32340500  0.91628300  1
  C  321  1  0.27050800  0.97136700  0.08417300  1
  C  322  1  0.26059300  0.33547500  0.27524200  1
  C  327  1  0.42920200  0.31682400  0.64321000  1
  C  328  1  0.39172900  0.31711800  0.66272400  1
  C  329  1  0.34240600  0.32052400  0.65096600  1
  C  331  1  0.40378100  0.32063400  0.61903500  1
  C  332  1  0.42932800  0.32109600  0.59422100  1
  C  333  1  0.40277900  0.32273100  0.56972200  1
  C  335  1  0.33931900  0.32291500  0.53925900  1
  C  336  1  0.38756200  0.32378900  0.52635300  1
  C  337  1  0.42654100  0.32413400  0.54507300  1
  C  338  1  0.28928100  0.32134700  0.52703700  1
  C  339  1  0.24075800  0.32046900  0.54081100  1
  C  341  1  0.17940400  0.32024600  0.57273400  1
  C  342  1  0.15398400  0.31637400  0.54856300  1
  C  343  1  0.19144800  0.31687200  0.52905100  1
  C  344  1  0.15385500  0.32061000  0.59754200  1
  C  345  1  0.18039600  0.32224500  0.62204100  1
  C  347  1  0.24383900  0.32259300  0.65250800  1
  C  348  1  0.19557800  0.32332200  0.66540600  1
  C  349  1  0.15661000  0.32358100  0.64668500  1
  C  350  1  0.29387400  0.32117500  0.66474000  1
  C  351  1  0.29503000  0.31701300  0.69269000  1
  C  352  1  0.28701600  0.36133100  0.70880300  1
  C  353  1  0.28470800  0.35614200  0.73628000  1
  C  354  1  0.29036700  0.30653700  0.74843500  1
  C  355  1  0.29885000  0.26241900  0.73215700  1
  C  356  1  0.30115300  0.26752600  0.70471200  1
  C  357  1  0.09787780  0.31703600  0.59808500  1
  C  358  1  0.06621880  0.36095800  0.59220700  1
  C  359  1  0.01123280  0.35809500  0.59445000  1
  C  360  1  0.98655500  0.31138900  0.60289400  1
  C  361  1  0.01829980  0.26737300  0.60850800  1
  C  362  1  0.07314780  0.26998300  0.60589200  1
  C  363  1  0.28806200  0.31697000  0.49910300  1
  C  364  1  0.28197200  0.26733700  0.48723400  1
  C  365  1  0.28389600  0.26197600  0.45980400  1
  C  366  1  0.29196700  0.30596800  0.44339300  1
  C  367  1  0.29749200  0.35574300  0.45537700  1
  C  368  1  0.29557400  0.36118400  0.48285500  1
  C  369  1  0.48531600  0.31753000  0.59366600  1
  C  370  1  0.51002200  0.27048500  0.58582600  1
  C  371  1  0.51701400  0.36142700  0.59954500  1
  C  372  1  0.57200200  0.35853500  0.59729000  1
  C  373  1  0.59664400  0.31184700  0.58879700  1
  C  374  1  0.56486000  0.26786300  0.58316900  1
  C  401  1  0.93309400  0.30910000  0.60760900  1
  C  402  1  0.29689100  0.29880400  0.41647000  1
  C  403  1  0.65011100  0.30947600  0.58408400  1
  C  404  1  0.28558200  0.29981900  0.77541100  1
  C  409  1  0.29771800  0.33375300  0.81815500  1
  C  410  1  0.33357500  0.30195100  0.83253800  1
  C  411  1  0.32937300  0.29975300  0.86045400  1
  C  412  1  0.29557400  0.33566900  0.87356200  1
  C  413  1  0.26392000  0.37166400  0.85918300  1
  C  414  1  0.26185100  0.36760700  0.83125900  1
  C  429  1  0.29190000  0.32344400  0.31826000  1
  C  430  1  0.32365500  0.36052400  0.33185600  1
  C  431  1  0.32244900  0.36168600  0.35988700  1
  C  432  1  0.28511900  0.33015700  0.37344600  1
  C  433  1  0.25055600  0.29609200  0.35960100  1
  C  434  1  0.25761100  0.28904200  0.33206700  1
  C  449  1  0.28627900  0.77469300  0.09314600  1
  C  450  1  0.23781500  0.80250700  0.09317300  1
  C  451  1  0.23794000  0.85737500  0.09866900  1
  C  452  1  0.28650300  0.88501300  0.09854300  1
  C  453  1  0.33510300  0.85779500  0.09630500  1
  C  454  1  0.33499900  0.80175100  0.09522900  1
  C  469  1  0.84679400  0.32526200  0.59318800  1
  C  470  1  0.81898800  0.27679400  0.59318200  1
  C  471  1  0.76410000  0.27690400  0.59863200  1
  C  472  1  0.73645000  0.32546600  0.59849300  1
  C  473  1  0.76367700  0.37406600  0.59628200  1
  C  474  1  0.81972800  0.37397400  0.59527300  1
  N  4  1  0.01030500  0.95601700  0.04641900  1
  N  8  1  0.00935600  0.95726300  0.98676500  1
  N  14  1  0.00986600  0.07655800  0.98845400  1
  N  20  1  0.00929000  0.07532100  0.04811800  1
  N  86  1  0.07758900  0.00954800  0.54645000  1
  N  90  1  0.07620300  0.00881900  0.48678900  1
  N  96  1  0.95689900  0.00939600  0.48855900  1
  N  102  1  0.95829000  0.00846700  0.54821200  1
  N  171  1  0.08252500  0.95011900  0.79641400  1
  N  174  1  0.09798100  0.96201300  0.74111200  1
  N  177  1  0.96320800  0.09684900  0.79387800  1
  N  180  1  0.95155700  0.08169700  0.73851000  1
  N  183  1  0.02525200  0.02179500  0.71353100  1
  N  184  1  0.02277700  0.02398000  0.82142000  1
  N  191  1  0.08239700  0.07825300  0.29566000  1
  N  194  1  0.07961500  0.08113900  0.23934400  1
  N  197  1  0.93627200  0.95825100  0.29435700  1
  N  200  1  0.95867400  0.93577400  0.24050800  1
  N  203  1  0.02094200  0.00732200  0.21368000  1
  N  204  1  0.00809800  0.02001600  0.32125600  1
  N  211  1  0.91820900  0.56985900  0.02622500  1
  N  214  1  0.91793400  0.46315700  0.00895300  1
  N  217  1  0.10636900  0.57245000  0.01646000  1
  N  220  1  0.10618900  0.45988400  0.01816600  1
  N  223  1  0.01261300  0.40878300  0.01247400  1
  N  224  1  0.01302100  0.62385700  0.02243100  1
  N  231  1  0.46373700  0.91797400  0.52615700  1
  N  234  1  0.57052600  0.91776200  0.50896000  1
  N  237  1  0.46116600  0.10613900  0.51638300  1
  N  240  1  0.57369600  0.10599100  0.51825800  1
  N  243  1  0.62483300  0.01240200  0.51255000  1
  N  244  1  0.40973100  0.01278600  0.52235700  1
  N  248  1  0.28464500  0.26954800  0.12480200  1
  N  252  1  0.28369600  0.27079400  0.06514800  1
  N  258  1  0.28420600  0.39008900  0.06683700  1
  N  264  1  0.28363000  0.38885200  0.12650100  1
  N  330  1  0.35192900  0.32307900  0.62483300  1
  N  334  1  0.35054300  0.32235000  0.56517200  1
  N  340  1  0.23123900  0.32292700  0.56694200  1
  N  346  1  0.23263000  0.32199800  0.62659500  1
  N  415  1  0.35686500  0.26365000  0.87479700  1
  N  418  1  0.37232100  0.27554400  0.81949500  1
  N  421  1  0.23754800  0.41038000  0.87226100  1
  N  424  1  0.22589700  0.39522800  0.81689300  1
  N  427  1  0.29959200  0.33532600  0.79191400  1
  N  428  1  0.29711700  0.33751100  0.89980300  1
  N  435  1  0.35673700  0.39178400  0.37404300  1
  N  438  1  0.35395500  0.39467000  0.31772700  1
  N  441  1  0.21061200  0.27178200  0.37274000  1
  N  444  1  0.23301400  0.24930500  0.31889100  1
  N  447  1  0.29528200  0.32085300  0.29206300  1
  N  448  1  0.28243800  0.33354700  0.39963900  1
  N  455  1  0.19254900  0.88339000  0.10460800  1
  N  458  1  0.19227400  0.77668800  0.08733600  1
  N  461  1  0.38070900  0.88598100  0.09484300  1
  N  464  1  0.38052900  0.77341500  0.09654900  1
  N  467  1  0.28695300  0.72231400  0.09085700  1
  N  468  1  0.28736100  0.93738800  0.10081400  1
  N  475  1  0.73807700  0.23150500  0.60454000  1
  N  478  1  0.84486600  0.23129300  0.58734300  1
  N  481  1  0.73550600  0.41967000  0.59476600  1
  N  484  1  0.84803600  0.41952200  0.59664100  1
  N  487  1  0.89917300  0.32593300  0.59093300  1
  N  488  1  0.68407100  0.32631700  0.60074000  1
