# generated using pymatgen
data_MgHC4O3
_symmetry_space_group_name_H-M   'P 1'
_cell_length_a   6.96730000
_cell_length_b   15.17161401
_cell_length_c   15.32294000
_cell_angle_alpha   117.24241948
_cell_angle_beta   98.60678000
_cell_angle_gamma   99.03626670
_symmetry_Int_Tables_number   1
_chemical_formula_structural   MgHC4O3
_chemical_formula_sum   'Mg6 H6 C24 O18'
_cell_volume   1376.16349642
_cell_formula_units_Z   6
loop_
 _symmetry_equiv_pos_site_id
 _symmetry_equiv_pos_as_xyz
  1  'x, y, z'
loop_
 _atom_site_type_symbol
 _atom_site_label
 _atom_site_symmetry_multiplicity
 _atom_site_fract_x
 _atom_site_fract_y
 _atom_site_fract_z
 _atom_site_occupancy
  Mg  Mg0  1  0.51671000  0.73332000  0.40730000  1
  Mg  Mg1  1  0.48333000  0.26676000  0.59640000  1
  Mg  Mg2  1  0.10918000  0.59255000  0.32588000  1
  Mg  Mg3  1  0.89420000  0.41105000  0.67770000  1
  Mg  Mg4  1  0.78246000  0.67420000  0.26317000  1
  Mg  Mg5  1  0.20950000  0.32589000  0.73700000  1
  H  H6  1  0.18471000  0.55013000  0.52884000  1
  H  H7  1  0.81656000  0.45008000  0.47309000  1
  H  H8  1  0.65353000  0.47126000  0.02328000  1
  H  H9  1  0.34206000  0.52966000  0.97892000  1
  H  H10  1  0.63287000  0.97845000  0.44981000  1
  H  H11  1  0.36409000  0.02205000  0.55168000  1
  C  C_a  1  0.74400000  0.56642000  0.39396000  1
  C  C_a  1  0.25723000  0.43437000  0.60821000  1
  C  C_a  1  0.34833000  0.60573000  0.17192000  1
  C  C_a  1  0.64771000  0.39555000  0.82999000  1
  C  C_a  1  0.17650000  0.82794000  0.43151000  1
  C  C_a  1  0.82019000  0.17251000  0.57006000  1
  C  C_b  1  0.61587000  0.53581000  0.44990000  1
  C  C_b  1  0.38542000  0.46448000  0.55214000  1
  C  C_b  1  0.16431000  0.55046000  0.08672000  1
  C  C_b  1  0.83140000  0.45071000  0.91563000  1
  C  C_b  1  0.07866000  0.91408000  0.46330000  1
  C  C_b  1  0.91832000  0.08652000  0.53826000  1
  C  C_c  1  0.43305000  0.56553000  0.46530000  1
  C  C_c  1  0.56828000  0.43471000  0.53689000  1
  C  C_c  1  0.96580000  0.53420000  0.10100000  1
  C  C_c  1  0.03006000  0.46691000  0.90145000  1
  C  C_c  1  0.86606000  0.89965000  0.43293000  1
  C  C_c  1  0.13076000  0.10088000  0.56879000  1
  C  C_d  1  0.32365000  0.52823000  0.51626000  1
  C  C_d  1  0.67760000  0.47197000  0.48574000  1
  C  C_d  1  0.80531000  0.48445000  0.01396000  1
  C  C_d  1  0.19039000  0.51660000  0.98836000  1
  C  C_d  1  0.79355000  0.98752000  0.47204000  1
  C  C_d  1  0.20341000  0.01303000  0.52949000  1
  O  O_a  1  0.69528000  0.62845000  0.36330000  1
  O  O_a  1  0.30312000  0.37128000  0.63793000  1
  O  O_a  1  0.33051000  0.63467000  0.26340000  1
  O  O_a  1  0.66846000  0.36692000  0.73904000  1
  O  O_a  1  0.06617000  0.73615000  0.36750000  1
  O  O_a  1  0.92973000  0.26473000  0.63355000  1
  O  O_b  1  0.89823000  0.53248000  0.37725000  1
  O  O_b  1  0.10498000  0.46996000  0.62615000  1
  O  O_b  1  0.51939000  0.62384000  0.15474000  1
  O  O_b  1  0.47571000  0.37724000  0.84611000  1
  O  O_b  1  0.36385000  0.84403000  0.46641000  1
  O  O_b  1  0.63242000  0.15571000  0.53567000  1
  O  O_c  1  0.36060000  0.62694000  0.43374000  1
  O  O_c  1  0.64061000  0.37388000  0.56918000  1
  O  O_c  1  0.92510000  0.56450000  0.19285000  1
  O  O_c  1  0.07182000  0.43682000  0.80970000  1
  O  O_c  1  0.73279000  0.80721000  0.37013000  1
  O  O_c  1  0.26342000  0.19330000  0.63215000  1
