# generated using pymatgen
data_H11C20(NO)4
_symmetry_space_group_name_H-M   'P 1'
_cell_length_a   35.78520000
_cell_length_b   35.78520000
_cell_length_c   42.92070000
_cell_angle_alpha   90.32400000
_cell_angle_beta   89.74330000
_cell_angle_gamma   90.00000000
_symmetry_Int_Tables_number   1
_chemical_formula_structural   H11C20(NO)4
_chemical_formula_sum   'H176 C320 N64 O64'
_cell_volume   54961.98270673
_cell_formula_units_Z   16
loop_
 _symmetry_equiv_pos_site_id
 _symmetry_equiv_pos_as_xyz
  1  'x, y, z'
loop_
 _atom_site_type_symbol
 _atom_site_label
 _atom_site_symmetry_multiplicity
 _atom_site_fract_x
 _atom_site_fract_y
 _atom_site_fract_z
 _atom_site_occupancy
  H  7  1  0.75803200  0.85679700  0.87775600  1
  H  8  1  0.68884000  0.95201800  0.87690400  1
  H  9  1  0.65824900  0.85563000  0.82691200  1
  H  16  1  0.76105600  0.88091300  0.93162000  1
  H  17  1  0.82153600  0.97711800  0.95563900  1
  H  18  1  0.75262900  0.97780200  0.87666200  1
  H  29  1  0.24740900  0.15061500  0.87846200  1
  H  30  1  0.31785200  0.05657200  0.88443700  1
  H  31  1  0.35254400  0.15123500  0.83472200  1
  H  38  1  0.23920200  0.12815600  0.93284300  1
  H  39  1  0.17783700  0.03171000  0.95406800  1
  H  40  1  0.25439100  0.02998600  0.87958300  1
  H  51  1  0.35503900  0.75168500  0.37984500  1
  H  52  1  0.45040400  0.82074100  0.37915300  1
  H  53  1  0.35543500  0.85060800  0.32793400  1
  H  60  1  0.37827800  0.74719700  0.43331300  1
  H  61  1  0.47511100  0.68855700  0.45795900  1
  H  62  1  0.47651800  0.75820100  0.37957300  1
  H  73  1  0.64842100  0.26197100  0.37657200  1
  H  74  1  0.55389500  0.19202000  0.38198400  1
  H  75  1  0.64983700  0.15632800  0.33359200  1
  H  82  1  0.62502900  0.26898400  0.43121600  1
  H  83  1  0.52961800  0.33253300  0.45192400  1
  H  84  1  0.52799600  0.25664300  0.37681700  1
  H  95  1  0.26182900  0.64653800  0.80597000  1
  H  96  1  0.19420100  0.55025500  0.80589200  1
  H  97  1  0.16194600  0.64498500  0.85755800  1
  H  104  1  0.25910600  0.62352100  0.75005100  1
  H  105  1  0.31952400  0.52938500  0.72000700  1
  H  106  1  0.26105700  0.52653300  0.80512200  1
  H  117  1  0.74281200  0.35777600  0.80549700  1
  H  118  1  0.80640600  0.45664900  0.79970200  1
  H  119  1  0.84916200  0.36334700  0.84649000  1
  H  126  1  0.73805300  0.38148900  0.74935700  1
  H  127  1  0.67386100  0.47503400  0.72520000  1
  H  128  1  0.73918000  0.47763200  0.80625200  1
  H  139  1  0.85815800  0.76195800  0.30318800  1
  H  140  1  0.95505900  0.69518700  0.30375200  1
  H  141  1  0.86028700  0.66280000  0.35491000  1
  H  148  1  0.88185600  0.76083400  0.24785200  1
  H  149  1  0.97675500  0.82104900  0.21956000  1
  H  150  1  0.97852700  0.76114300  0.30342600  1
  H  161  1  0.14679300  0.24355800  0.30778100  1
  H  162  1  0.04835000  0.30773800  0.30192300  1
  H  163  1  0.14192400  0.35034800  0.34892500  1
  H  170  1  0.12326600  0.24029800  0.25111200  1
  H  171  1  0.03085700  0.17477500  0.22608800  1
  H  172  1  0.02725000  0.23956400  0.30807900  1
  H  183  1  0.41280500  0.05459800  0.79816600  1
  H  190  1  0.54221100  0.90224200  0.82563500  1
  H  191  1  0.61520200  0.99388700  0.81472800  1
  H  192  1  0.46351900  0.07961200  0.88436300  1
  H  193  1  0.56328000  0.03582500  0.81752900  1
  H  194  1  0.51277900  0.03662900  0.87263300  1
  H  203  1  0.41124400  0.12146100  0.85459400  1
  H  204  1  0.61298800  0.89690100  0.80813100  1
  H  211  1  0.55484400  0.09482900  0.29744300  1
  H  218  1  0.40281100  0.96534400  0.32510100  1
  H  219  1  0.49469400  0.89224200  0.31543700  1
  H  220  1  0.57799800  0.04592100  0.38447500  1
  H  221  1  0.53658300  0.94423600  0.31807700  1
  H  222  1  0.53600700  0.99590000  0.37278600  1
  H  231  1  0.61970500  0.09830100  0.35537900  1
  H  232  1  0.39830500  0.89396400  0.30765000  1
  H  239  1  0.90904400  0.45805200  0.87761400  1
  H  246  1  0.04841100  0.60385300  0.85949200  1
  H  247  1  0.11358700  0.50561500  0.86047600  1
  H  248  1  0.95413100  0.43988500  0.78779200  1
  H  249  1  0.05839200  0.46872600  0.85398000  1
  H  250  1  0.00629200  0.47868300  0.80045800  1
  H  259  1  0.90248300  0.39841600  0.81340200  1
  H  260  1  0.11865300  0.60122800  0.87702700  1
  H  267  1  0.04843700  0.41242600  0.37935200  1
  H  274  1  0.90291000  0.55093200  0.35903900  1
  H  275  1  0.00078600  0.61666200  0.35967300  1
  H  276  1  0.06676800  0.45466900  0.28898000  1
  H  277  1  0.03801300  0.56147000  0.35398300  1
  H  278  1  0.02841400  0.50751500  0.30101200  1
  H  287  1  0.10768400  0.40320000  0.31516600  1
  H  288  1  0.90538600  0.62184000  0.37609700  1
  H  295  1  0.86451100  0.85671300  0.17556600  1
  H  302  1  0.79921300  0.85147200  0.00861400  1
  H  303  1  0.89557000  0.91757600  0.02239800  1
  H  304  1  0.88993100  0.75450100  0.13072600  1
  H  305  1  0.90594300  0.88771900  0.07110800  1
  H  306  1  0.87840300  0.78243500  0.08122700  1
  H  315  1  0.87764800  0.76182700  0.19079400  1
  H  316  1  0.86016400  0.92187000  0.97388300  1
  H  323  1  0.13961000  0.14496000  0.17483400  1
  H  330  1  0.19557400  0.15970700  0.00640800  1
  H  331  1  0.10247900  0.08932100  0.02104700  1
  H  332  1  0.10863000  0.24846800  0.13596600  1
  H  333  1  0.09251400  0.11740600  0.07092600  1
  H  334  1  0.11720700  0.22322500  0.08478200  1
  H  343  1  0.12394300  0.23948000  0.19424700  1
  H  344  1  0.13720000  0.08771500  0.97126900  1
  H  351  1  0.35383000  0.64171700  0.67609700  1
  H  358  1  0.34765600  0.70769900  0.50985600  1
  H  359  1  0.41448500  0.61172700  0.52239600  1
  H  360  1  0.25141200  0.61565500  0.63269900  1
  H  361  1  0.38440400  0.60044900  0.57111200  1
  H  362  1  0.27889800  0.62722700  0.58279700  1
  H  371  1  0.25912900  0.62789100  0.69272300  1
  H  372  1  0.41875400  0.64795400  0.47417800  1
  H  379  1  0.64194700  0.36562000  0.67442900  1
  H  386  1  0.65598500  0.31134300  0.50506600  1
  H  387  1  0.58621900  0.40470400  0.52128900  1
  H  388  1  0.74533400  0.39631600  0.63434000  1
  H  389  1  0.61407400  0.41353700  0.57117300  1
  H  390  1  0.71971900  0.38810400  0.58345600  1
  H  399  1  0.73651900  0.38033300  0.69270200  1
  H  400  1  0.58470600  0.37107000  0.47105800  1
  H  407  1  0.85324400  0.07626000  0.88868300  1
  H  414  1  0.79025100  0.27962500  0.88815700  1
  H  415  1  0.77359300  0.22388900  0.80235400  1
  H  416  1  0.75236700  0.09644900  0.93727700  1
  H  417  1  0.78308300  0.16518800  0.82735000  1
  H  418  1  0.74737400  0.15627500  0.91319400  1
  H  427  1  0.80875700  0.04265900  0.95003800  1
  H  428  1  0.75954500  0.29250300  0.80953400  1
  H  435  1  0.13804000  0.92305900  0.88669900  1
  H  442  1  0.22589600  0.73027900  0.89267300  1
  H  443  1  0.22966800  0.77875700  0.80325600  1
  H  444  1  0.24558400  0.92320800  0.92674100  1
  H  445  1  0.21588000  0.83852200  0.82563400  1
  H  446  1  0.25655900  0.86176100  0.90680000  1
  H  455  1  0.16247600  0.97233700  0.92949200  1
  H  456  1  0.25109000  0.71188900  0.81373800  1
  H  463  1  0.58075700  0.64505000  0.38831900  1
  H  470  1  0.77607700  0.72619900  0.39006900  1
  H  471  1  0.72485300  0.73225100  0.30180900  1
  H  472  1  0.58548500  0.75231800  0.42954800  1
  H  473  1  0.66533400  0.72078500  0.32539000  1
  H  474  1  0.64624200  0.76174700  0.40767200  1
  H  483  1  0.53474800  0.67155500  0.43437800  1
  H  484  1  0.79274900  0.75085600  0.31082800  1
  H  491  1  0.42734300  0.36105600  0.38715900  1
  H  498  1  0.22650300  0.29094400  0.39020400  1
  H  499  1  0.28018000  0.27592600  0.30322100  1
  H  500  1  0.41265100  0.25952700  0.43528900  1
  H  501  1  0.33930200  0.28723800  0.32713500  1
  H  502  1  0.35230200  0.25215700  0.41242500  1
  H  511  1  0.46418800  0.31976500  0.44730900  1
  H  512  1  0.21206300  0.25981000  0.31180000  1
  H  519  1  0.36404200  0.42646600  0.79185500  1
  H  526  1  0.28641600  0.22850000  0.79117100  1
  H  527  1  0.27284400  0.28558200  0.87682500  1
  H  528  1  0.26308900  0.41547100  0.74215300  1
  H  529  1  0.28557200  0.34356000  0.85150800  1
  H  530  1  0.25266100  0.35575100  0.76525400  1
  H  539  1  0.33208100  0.46667400  0.73436200  1
  H  540  1  0.25508400  0.21626400  0.86881600  1
  H  547  1  0.63198300  0.58345000  0.79643600  1
  H  554  1  0.72447800  0.77431400  0.79019100  1
  H  555  1  0.72942400  0.72312900  0.87846100  1
  H  556  1  0.73563700  0.58302600  0.74909400  1
  H  557  1  0.71419300  0.66425100  0.85516600  1
  H  558  1  0.74991700  0.64312500  0.77032100  1
  H  567  1  0.65718200  0.53623700  0.74518200  1
  H  568  1  0.75136400  0.79101800  0.86819200  1
  H  575  1  0.08108600  0.87002200  0.29179000  1
  H  582  1  0.27571900  0.78444300  0.29090500  1
  H  583  1  0.22070300  0.77902700  0.37798200  1
  H  584  1  0.08667000  0.76516300  0.24646100  1
  H  585  1  0.16252700  0.79238300  0.35322800  1
  H  586  1  0.14660500  0.75413100  0.26879400  1
  H  595  1  0.03591000  0.84296900  0.24210000  1
  H  596  1  0.28938100  0.75832700  0.36940700  1
  H  603  1  0.92435600  0.13772800  0.29680000  1
  H  610  1  0.72943900  0.22176900  0.29080000  1
  H  611  1  0.78276100  0.23461500  0.37774900  1
  H  612  1  0.91883100  0.23781500  0.24544500  1
  H  613  1  0.84153800  0.22001500  0.35395500  1
  H  614  1  0.85880900  0.25102500  0.26747000  1
  H  623  1  0.96666400  0.17052500  0.23736100  1
  H  624  1  0.71419100  0.25403400  0.36780700  1
  C  1  1  0.72753500  0.90740900  0.88047700  1
  C  2  1  0.73419800  0.87009700  0.87086300  1
  C  3  1  0.70881700  0.85094400  0.85142600  1
  C  4  1  0.67678000  0.86968900  0.84076800  1
  C  5  1  0.66946700  0.90704800  0.84961000  1
  C  6  1  0.69476900  0.92532500  0.86968200  1
  C  10  1  0.75320500  0.92618100  0.90060700  1
  C  11  1  0.76881300  0.90778600  0.92662800  1
  C  12  1  0.79474100  0.92578600  0.94622600  1
  C  13  1  0.80391400  0.96352300  0.94071300  1
  C  14  1  0.78808400  0.98290400  0.91544000  1
  C  15  1  0.76352000  0.96380700  0.89530200  1
  C  23  1  0.27831900  0.10076400  0.88449800  1
  C  24  1  0.27228200  0.13762000  0.87381400  1
  C  25  1  0.29947600  0.15645900  0.85588200  1
  C  26  1  0.33301700  0.13796100  0.84822600  1
  C  27  1  0.34010200  0.10140300  0.85885700  1
  C  28  1  0.31247600  0.08299000  0.87656300  1
  C  32  1  0.25055600  0.08226600  0.90278100  1
  C  33  1  0.23203800  0.10116400  0.92746600  1
  C  34  1  0.20444400  0.08331600  0.94554600  1
  C  35  1  0.19603300  0.04540800  0.93968700  1
  C  36  1  0.21427500  0.02576400  0.91541000  1
  C  37  1  0.24127200  0.04438500  0.89720300  1
  C  45  1  0.40565900  0.78213300  0.38279700  1
  C  46  1  0.36852900  0.77545100  0.37296500  1
  C  47  1  0.34991300  0.80056800  0.35309800  1
  C  48  1  0.36903200  0.83232600  0.34220300  1
  C  49  1  0.40619700  0.83965200  0.35125700  1
  C  50  1  0.42384500  0.81474400  0.37185100  1
  C  54  1  0.42422900  0.75644800  0.40291400  1
  C  55  1  0.40539900  0.73997400  0.42848500  1
  C  56  1  0.42335500  0.71406700  0.44798000  1
  C  57  1  0.46139600  0.70559200  0.44276300  1
  C  58  1  0.48099400  0.72184400  0.41767400  1
  C  59  1  0.46218400  0.74687100  0.39795600  1
  C  67  1  0.59824700  0.23136800  0.38216400  1
  C  68  1  0.63539700  0.23716300  0.37181000  1
  C  69  1  0.65460800  0.20971100  0.35427000  1
  C  70  1  0.63620500  0.17614300  0.34668300  1
  C  71  1  0.59933300  0.16930800  0.35698600  1
  C  72  1  0.58049200  0.19723800  0.37424000  1
  C  76  1  0.57971400  0.25914300  0.40054900  1
  C  77  1  0.59831500  0.27676500  0.42569900  1
  C  78  1  0.58062100  0.30448400  0.44390200  1
  C  79  1  0.54303200  0.31366200  0.43783800  1
  C  80  1  0.52340600  0.29580200  0.41347300  1
  C  81  1  0.54217100  0.26924800  0.39471000  1
  C  89  1  0.23235700  0.59541700  0.80321700  1
  C  90  1  0.23850600  0.63257700  0.81334500  1
  C  91  1  0.21284300  0.65086800  0.83331600  1
  C  92  1  0.18111400  0.63132000  0.84388800  1
  C  93  1  0.17434400  0.59407000  0.83442900  1
  C  94  1  0.19996200  0.57663900  0.81393800  1
  C  98  1  0.25716300  0.57809500  0.78143100  1
  C  99  1  0.26852900  0.59700400  0.75410500  1
  C  100  1  0.29142500  0.57933800  0.73152600  1
  C  101  1  0.30380500  0.54255700  0.73673800  1
  C  102  1  0.29265600  0.52294600  0.76366800  1
  C  103  1  0.26944600  0.54093000  0.78573000  1
  C  111  1  0.76989800  0.40989600  0.80019300  1
  C  112  1  0.76669400  0.37244000  0.81019100  1
  C  113  1  0.79568700  0.35507400  0.82699600  1
  C  114  1  0.82807000  0.37567600  0.83416900  1
  C  115  1  0.83226700  0.41286500  0.82399500  1
  C  116  1  0.80290100  0.42988900  0.80754600  1
  C  120  1  0.74151400  0.42632900  0.78156800  1
  C  121  1  0.72802400  0.40750300  0.75481400  1
  C  122  1  0.70300100  0.42505700  0.73414000  1
  C  123  1  0.69043400  0.46152300  0.74091300  1
  C  124  1  0.70336900  0.48084000  0.76751400  1
  C  125  1  0.72885600  0.46310300  0.78752100  1
  C  133  1  0.90952300  0.73284100  0.30062100  1
  C  134  1  0.87221100  0.73873600  0.31048100  1
  C  135  1  0.85399700  0.71314600  0.33033400  1
  C  136  1  0.87378400  0.68179500  0.34112900  1
  C  137  1  0.91119200  0.67531400  0.33197000  1
  C  138  1  0.92848100  0.70072800  0.31147300  1
  C  142  1  0.92707200  0.75792400  0.27939000  1
  C  143  1  0.90840300  0.77000600  0.25223700  1
  C  144  1  0.92636000  0.79321300  0.23023300  1
  C  145  1  0.96318500  0.80528500  0.23591100  1
  C  146  1  0.98240600  0.79360900  0.26277800  1
  C  147  1  0.96426400  0.76992800  0.28414800  1
  C  155  1  0.09481300  0.27089200  0.30257100  1
  C  156  1  0.13222400  0.26750100  0.31265900  1
  C  157  1  0.14977200  0.29652100  0.32955800  1
  C  158  1  0.12939000  0.32912500  0.33671600  1
  C  159  1  0.09225600  0.33350700  0.32643400  1
  C  160  1  0.07500300  0.30406700  0.30995900  1
  C  164  1  0.07847300  0.24271100  0.28344000  1
  C  165  1  0.09739700  0.22987200  0.25641900  1
  C  166  1  0.08012900  0.20488600  0.23534500  1
  C  167  1  0.04387200  0.19175500  0.24193200  1
  C  168  1  0.02421800  0.20440200  0.26857500  1
  C  169  1  0.04181600  0.22963300  0.28915000  1
  C  177  1  0.43348600  0.07058600  0.84240900  1
  C  178  1  0.46309800  0.06554600  0.86352400  1
  C  179  1  0.49203800  0.04031500  0.85658300  1
  C  180  1  0.49226300  0.01993800  0.82826000  1
  C  181  1  0.46302900  0.02531000  0.80650200  1
  C  182  1  0.43386000  0.05067500  0.81389200  1
  C  184  1  0.52164400  0.99398600  0.82293900  1
  C  185  1  0.51556300  0.95487300  0.82503800  1
  C  186  1  0.54657300  0.93035400  0.82309500  1
  C  187  1  0.58333500  0.94416100  0.81972400  1
  C  188  1  0.58885200  0.98306800  0.81699000  1
  C  189  1  0.55833400  0.00768100  0.81859900  1
  C  201  1  0.61322500  0.91992200  0.82116500  1
  C  202  1  0.40498600  0.09499700  0.84964200  1
  C  205  1  0.56976600  0.07516500  0.34212100  1
  C  206  1  0.56456900  0.04578700  0.36345900  1
  C  207  1  0.53994200  0.01637900  0.35653400  1
  C  208  1  0.52036400  0.01544200  0.32800200  1
  C  209  1  0.52600700  0.04435700  0.30598200  1
  C  210  1  0.55075400  0.07399000  0.31335100  1
  C  212  1  0.49460700  0.98590700  0.32283400  1
  C  213  1  0.45544700  0.99200000  0.32462400  1
  C  214  1  0.43097200  0.96097600  0.32271500  1
  C  215  1  0.44488000  0.92419700  0.31974200  1
  C  216  1  0.48384100  0.91862700  0.31736100  1
  C  217  1  0.50841600  0.94917200  0.31892000  1
  C  229  1  0.42062900  0.89434600  0.32131700  1
  C  230  1  0.59353600  0.10415900  0.34934900  1
  C  233  1  0.92643100  0.44594300  0.83142300  1
  C  234  1  0.95527300  0.45188900  0.80948000  1
  C  235  1  0.98596800  0.47463100  0.81696000  1
  C  236  1  0.98876100  0.49166100  0.84665100  1
  C  237  1  0.96021100  0.48563700  0.86911800  1
  C  238  1  0.92930800  0.46279200  0.86118600  1
  C  240  1  0.02039200  0.51434500  0.85306800  1
  C  241  1  0.01756800  0.55386000  0.85490700  1
  C  242  1  0.05045600  0.57529900  0.85906800  1
  C  243  1  0.08592800  0.55814800  0.86090200  1
  C  244  1  0.08823800  0.51879800  0.85943800  1
  C  245  1  0.05581200  0.49716500  0.85559200  1
  C  257  1  0.11761900  0.58004700  0.86198800  1
  C  258  1  0.89699900  0.42262400  0.82406700  1
  C  261  1  0.06055500  0.42831900  0.33294200  1
  C  262  1  0.05487600  0.45659300  0.31067200  1
  C  263  1  0.03240700  0.48769600  0.31778300  1
  C  264  1  0.01541600  0.49147700  0.34742400  1
  C  265  1  0.02129900  0.46358100  0.37024800  1
  C  266  1  0.04386300  0.43225700  0.36269000  1
  C  268  1  0.99259800  0.52321700  0.35333800  1
  C  269  1  0.95308800  0.52023600  0.35503400  1
  C  270  1  0.93145500  0.55311000  0.35876700  1
  C  271  1  0.94841800  0.58870800  0.36025100  1
  C  272  1  0.98775900  0.59120800  0.35890200  1
  C  273  1  0.00958600  0.55879400  0.35550000  1
  C  285  1  0.92634500  0.62028600  0.36088000  1
  C  286  1  0.08341800  0.39835100  0.32588400  1
  C  289  1  0.87827800  0.80316300  0.15767000  1
  C  290  1  0.88166400  0.78187700  0.13002700  1
  C  291  1  0.87503500  0.79833100  0.10094300  1
  C  292  1  0.86462200  0.83632000  0.09888800  1
  C  293  1  0.86037900  0.85790700  0.12653000  1
  C  294  1  0.86733400  0.84100900  0.15567300  1
  C  296  1  0.85854400  0.85205300  0.06906500  1
  C  297  1  0.82758000  0.84135400  0.05054600  1
  C  298  1  0.82195500  0.85909200  0.02155200  1
  C  299  1  0.84630100  0.88743600  0.01069300  1
  C  300  1  0.87739000  0.89709400  0.02927600  1
  C  301  1  0.88343600  0.87966900  0.05804900  1
  C  313  1  0.83965600  0.90682500  0.98331700  1
  C  314  1  0.88705700  0.78729400  0.18589200  1
  C  317  1  0.12344200  0.19894600  0.16009500  1
  C  318  1  0.11743600  0.22136600  0.13363600  1
  C  319  1  0.12228400  0.20648200  0.10355700  1
  C  320  1  0.13341000  0.16892400  0.09927900  1
  C  321  1  0.14015900  0.14617100  0.12565600  1
  C  322  1  0.13497800  0.16149400  0.15584500  1
  C  324  1  0.13838400  0.15498300  0.06853800  1
  C  325  1  0.16819200  0.16755700  0.04940900  1
  C  326  1  0.17346300  0.15097500  0.01971200  1
  C  327  1  0.15005300  0.12181100  0.00884000  1
  C  328  1  0.11986600  0.11051400  0.02792000  1
  C  329  1  0.11410700  0.12686000  0.05737800  1
  C  341  1  0.15735300  0.10274400  0.98121500  1
  C  342  1  0.11624300  0.21338800  0.18934800  1
  C  345  1  0.30020700  0.62764600  0.65896300  1
  C  346  1  0.27873600  0.62405900  0.63161100  1
  C  347  1  0.29493100  0.63069600  0.60229400  1
  C  348  1  0.33285200  0.64128000  0.59970300  1
  C  349  1  0.35461900  0.64571600  0.62704700  1
  C  350  1  0.33798200  0.63876400  0.65642800  1
  C  352  1  0.34832900  0.64755400  0.56968600  1
  C  353  1  0.33746500  0.67865300  0.55151300  1
  C  354  1  0.35534000  0.68481700  0.52251200  1
  C  355  1  0.38401800  0.66090400  0.51133100  1
  C  356  1  0.39375100  0.62959300  0.52950900  1
  C  357  1  0.37617600  0.62300600  0.55827900  1
  C  369  1  0.40374000  0.66826500  0.48409400  1
  C  370  1  0.28465700  0.61879000  0.68742000  1
  C  373  1  0.69589800  0.38161100  0.65903900  1
  C  374  1  0.71818000  0.38763100  0.63232200  1
  C  375  1  0.70308300  0.38298800  0.60242400  1
  C  376  1  0.66545300  0.37203000  0.59858900  1
  C  377  1  0.64283500  0.36526900  0.62523000  1
  C  378  1  0.65837300  0.37025400  0.65523900  1
  C  380  1  0.65130500  0.36741300  0.56799200  1
  C  381  1  0.66373900  0.33784300  0.54841400  1
  C  382  1  0.64730000  0.33324300  0.51872600  1
  C  383  1  0.61843900  0.35712400  0.50827400  1
  C  384  1  0.60718900  0.38698900  0.52785200  1
  C  385  1  0.62338700  0.39207100  0.55731400  1
  C  397  1  0.59965000  0.35063100  0.48053100  1
  C  398  1  0.71056900  0.38857700  0.68812400  1
  C  401  1  0.80352200  0.08130500  0.91525900  1
  C  402  1  0.77311400  0.10492200  0.92239700  1
  C  403  1  0.77014300  0.13996800  0.90814700  1
  C  404  1  0.79760500  0.15215800  0.88672700  1
  C  405  1  0.82863300  0.12881300  0.87968900  1
  C  406  1  0.83118000  0.09338400  0.89405800  1
  C  408  1  0.79295400  0.18753700  0.87255100  1
  C  409  1  0.79483300  0.22106200  0.89025100  1
  C  410  1  0.78887600  0.25557500  0.87517800  1
  C  411  1  0.78118600  0.25737300  0.84290600  1
  C  412  1  0.77912500  0.22366200  0.82573600  1
  C  413  1  0.78499700  0.18916000  0.84037000  1
  C  425  1  0.77599900  0.29123400  0.82811500  1
  C  426  1  0.80441600  0.04596800  0.92737000  1
  C  429  1  0.19073500  0.92871500  0.90843800  1
  C  430  1  0.22482300  0.91024400  0.91440300  1
  C  431  1  0.23126000  0.87412700  0.90271500  1
  C  432  1  0.20377500  0.85569800  0.88481500  1
  C  433  1  0.16904800  0.87353900  0.87916500  1
  C  434  1  0.16282700  0.90992400  0.89128400  1
  C  436  1  0.21215500  0.81984300  0.87246100  1
  C  437  1  0.21551000  0.78823200  0.89202800  1
  C  438  1  0.22400500  0.75310200  0.87848200  1
  C  439  1  0.22911200  0.74892500  0.84594600  1
  C  440  1  0.22637200  0.78084400  0.82691100  1
  C  441  1  0.21792400  0.81590200  0.84002200  1
  C  453  1  0.23494600  0.71419300  0.83255900  1
  C  454  1  0.18552000  0.96519100  0.91790900  1
  C  457  1  0.57775700  0.69767200  0.41096400  1
  C  458  1  0.59731400  0.73129500  0.41657500  1
  C  459  1  0.63296200  0.73684600  0.40368500  1
  C  460  1  0.64973500  0.70897200  0.38485900  1
  C  461  1  0.63067200  0.67477800  0.37940700  1
  C  462  1  0.59480400  0.66943600  0.39274200  1
  C  464  1  0.68540400  0.71618700  0.37173500  1
  C  465  1  0.71778200  0.71812100  0.39059600  1
  C  466  1  0.75275900  0.72522400  0.37634800  1
  C  467  1  0.75608600  0.73028000  0.34378300  1
  C  468  1  0.72343600  0.72891000  0.32546000  1
  C  469  1  0.68849600  0.72187800  0.33927700  1
  C  481  1  0.79058300  0.73503000  0.32971500  1
  C  482  1  0.54162200  0.69345300  0.42142800  1
  C  485  1  0.42509500  0.31117300  0.41334800  1
  C  486  1  0.40292300  0.27986400  0.42072200  1
  C  487  1  0.36755400  0.27552500  0.40721800  1
  C  488  1  0.35363200  0.30246100  0.38629700  1
  C  489  1  0.37553000  0.33436700  0.37903000  1
  C  490  1  0.41128100  0.33832700  0.39267400  1
  C  492  1  0.31801100  0.29643200  0.37284400  1
  C  493  1  0.28498300  0.29725000  0.39122300  1
  C  494  1  0.25021900  0.29021300  0.37678400  1
  C  495  1  0.24771300  0.28248200  0.34449300  1
  C  496  1  0.28094800  0.28138900  0.32665100  1
  C  497  1  0.31568000  0.28834200  0.34065100  1
  C  509  1  0.21357900  0.27665700  0.33026200  1
  C  510  1  0.46063100  0.31365800  0.42491100  1
  C  513  1  0.31484600  0.42591300  0.76469500  1
  C  514  1  0.28279900  0.40495500  0.75694300  1
  C  515  1  0.27662600  0.36997800  0.77062900  1
  C  516  1  0.30234400  0.35529700  0.79223800  1
  C  517  1  0.33505700  0.37586800  0.79978400  1
  C  518  1  0.34095300  0.41117300  0.78584800  1
  C  520  1  0.29420400  0.32045300  0.80631300  1
  C  521  1  0.29394400  0.28681100  0.78868000  1
  C  522  1  0.28600600  0.25276700  0.80392900  1
  C  523  1  0.27846900  0.25163100  0.83628800  1
  C  524  1  0.27798900  0.28546400  0.85334000  1
  C  525  1  0.28580700  0.31948700  0.83851000  1
  C  537  1  0.27345500  0.21805500  0.85144900  1
  C  538  1  0.31833500  0.46177700  0.75405200  1
  C  541  1  0.68227300  0.57812800  0.77069700  1
  C  542  1  0.71623400  0.59599700  0.76303800  1
  C  543  1  0.72466400  0.63123400  0.77559900  1
  C  544  1  0.69932600  0.64931800  0.79600700  1
  C  545  1  0.66470500  0.63199500  0.80337300  1
  C  546  1  0.65649200  0.59641500  0.79049000  1
  C  548  1  0.70959700  0.68441100  0.80885100  1
  C  549  1  0.71321400  0.71652800  0.78985500  1
  C  550  1  0.72273800  0.75104500  0.80390600  1
  C  551  1  0.72844000  0.75416300  0.83640300  1
  C  552  1  0.72578100  0.72173500  0.85483600  1
  C  553  1  0.71644200  0.68723200  0.84118900  1
  C  565  1  0.73395500  0.78857400  0.85032100  1
  C  566  1  0.67631100  0.54194300  0.76120200  1
  C  569  1  0.07873000  0.81883600  0.26694600  1
  C  570  1  0.09833300  0.78551600  0.26018000  1
  C  571  1  0.13348000  0.77899200  0.27339300  1
  C  572  1  0.14976700  0.80563000  0.29358900  1
  C  573  1  0.13074100  0.83966200  0.30002400  1
  C  574  1  0.09528500  0.84595700  0.28646400  1
  C  576  1  0.18464800  0.79705500  0.30737000  1
  C  577  1  0.21771000  0.79417700  0.28916700  1
  C  578  1  0.25182800  0.78582200  0.30409000  1
  C  579  1  0.25362900  0.78045100  0.33667400  1
  C  580  1  0.22031600  0.78250100  0.35432300  1
  C  581  1  0.18620400  0.79072500  0.33981700  1
  C  593  1  0.28748800  0.77557700  0.35141600  1
  C  594  1  0.04253100  0.82293100  0.25700900  1
  C  597  1  0.92658400  0.18629400  0.26898000  1
  C  598  1  0.90712200  0.21890600  0.26042000  1
  C  599  1  0.87195900  0.22671200  0.27346100  1
  C  600  1  0.85554500  0.20202200  0.29514300  1
  C  601  1  0.87461200  0.16876100  0.30351000  1
  C  602  1  0.91019400  0.16128000  0.29030600  1
  C  604  1  0.82035800  0.21157300  0.30826300  1
  C  605  1  0.78760800  0.21263900  0.28978600  1
  C  606  1  0.75310700  0.22173100  0.30412500  1
  C  607  1  0.75065400  0.22957600  0.33640100  1
  C  608  1  0.78364400  0.22933100  0.35428800  1
  C  609  1  0.81811300  0.22038400  0.34036000  1
  C  621  1  0.71650400  0.23529600  0.35072100  1
  C  622  1  0.96243400  0.18108900  0.25850700  1
  N  19  1  0.79365700  0.01886000  0.90989400  1
  N  20  1  0.80705200  0.90750300  0.97088100  1
  N  21  1  0.63906600  0.92577300  0.84131800  1
  N  22  1  0.71291600  0.81586100  0.84222900  1
  N  41  1  0.21024700  0.98950400  0.91032800  1
  N  42  1  0.19059800  0.10164700  0.96982000  1
  N  43  1  0.37124300  0.08297600  0.85181700  1
  N  44  1  0.29548200  0.19074300  0.84502300  1
  N  63  1  0.51719000  0.71732700  0.41257900  1
  N  64  1  0.40472500  0.70124600  0.47240500  1
  N  65  1  0.42538000  0.86961900  0.34252900  1
  N  66  1  0.31512300  0.79635000  0.34346600  1
  N  85  1  0.48740100  0.30104500  0.40786500  1
  N  86  1  0.59869200  0.31774200  0.46840200  1
  N  87  1  0.58125800  0.13791100  0.35020200  1
  N  88  1  0.68933300  0.21329400  0.34404400  1
  N  107  1  0.29930100  0.48703500  0.76828900  1
  N  108  1  0.30117400  0.59479400  0.70471500  1
  N  109  1  0.14312700  0.57562200  0.84111700  1
  N  110  1  0.21573300  0.68622500  0.84221200  1
  N  129  1  0.69814900  0.51695700  0.77225600  1
  N  130  1  0.69323600  0.41086900  0.70676400  1
  N  131  1  0.86304000  0.43234800  0.82973400  1
  N  132  1  0.79434100  0.32020300  0.83701600  1
  N  151  1  0.01834700  0.79968000  0.26747700  1
  N  152  1  0.91113800  0.80343700  0.20351100  1
  N  153  1  0.93010800  0.64465200  0.33921400  1
  N  154  1  0.81872600  0.71619100  0.33940700  1
  N  173  1  0.98824900  0.19807300  0.27363800  1
  N  174  1  0.09442500  0.19550900  0.20785000  1
  N  175  1  0.07319700  0.36468500  0.33188400  1
  N  176  1  0.18479300  0.29529300  0.33927700  1
  N  195  1  0.46391100  0.00588600  0.77766900  1
  N  196  1  0.47903200  0.94110700  0.83061300  1
  N  223  1  0.50742300  0.04273500  0.27694400  1
  N  224  1  0.44154400  0.02857400  0.32989400  1
  N  251  1  0.96360500  0.50160500  0.89923800  1
  N  252  1  0.98233300  0.57126600  0.85112500  1
  N  279  1  0.00539600  0.46798500  0.40031900  1
  N  280  1  0.93586800  0.48482300  0.35151600  1
  N  307  1  0.84890100  0.89570700  0.12458000  1
  N  308  1  0.80217300  0.81417800  0.06178600  1
  N  335  1  0.15236600  0.10882000  0.12141800  1
  N  336  1  0.19307400  0.19518500  0.06078600  1
  N  363  1  0.39234300  0.65738300  0.62458000  1
  N  364  1  0.31005300  0.70372000  0.56314400  1
  N  391  1  0.60540900  0.35324400  0.62141300  1
  N  392  1  0.69115000  0.31257700  0.55931100  1
  N  419  1  0.85655300  0.14140800  0.85874500  1
  N  420  1  0.80328900  0.21957900  0.92243400  1
  N  447  1  0.14132100  0.85468900  0.86164500  1
  N  448  1  0.20929300  0.79208500  0.92450200  1
  N  475  1  0.64778700  0.64669900  0.36085400  1
  N  476  1  0.71479900  0.71190000  0.42307500  1
  N  503  1  0.36118900  0.36175100  0.35860300  1
  N  504  1  0.28717100  0.30583200  0.42342500  1
  N  531  1  0.36116100  0.36082100  0.82101600  1
  N  532  1  0.30270700  0.28761000  0.75647300  1
  N  559  1  0.63905600  0.65047700  0.82340500  1
  N  560  1  0.70594600  0.71393300  0.75749800  1
  N  587  1  0.14741800  0.86658300  0.31988200  1
  N  588  1  0.21634200  0.80088900  0.25669900  1
  N  615  1  0.85774500  0.14360400  0.32469600  1
  N  616  1  0.78965800  0.20343100  0.25768000  1
  O  197  1  0.47697200  0.92452900  0.85629400  1
  O  198  1  0.46633100  0.02816700  0.75522900  1
  O  199  1  0.43518100  0.98617700  0.77401800  1
  O  200  1  0.46889900  0.91894100  0.80946800  1
  O  225  1  0.42446700  0.03088000  0.35547700  1
  O  226  1  0.53037600  0.04020700  0.25479300  1
  O  227  1  0.48746800  0.07114300  0.27274500  1
  O  228  1  0.41979000  0.03846800  0.30857300  1
  O  253  1  0.98190300  0.59155100  0.82732700  1
  O  254  1  0.96565400  0.47677600  0.91974200  1
  O  255  1  0.93635900  0.52248700  0.90561200  1
  O  256  1  0.97387300  0.59100700  0.87441100  1
  O  281  1  0.91574600  0.48366900  0.32761100  1
  O  282  1  0.03027400  0.47048500  0.42078900  1
  O  283  1  0.98434100  0.44107800  0.40703800  1
  O  284  1  0.91600900  0.47689400  0.37477300  1
  O  309  1  0.80044500  0.78645000  0.04375900  1
  O  310  1  0.87289200  0.91739900  0.13599700  1
  O  311  1  0.81829500  0.90096700  0.13838200  1
  O  312  1  0.76992500  0.82753200  0.06517400  1
  O  337  1  0.19326700  0.22356700  0.04368900  1
  O  338  1  0.12975700  0.08598000  0.13319600  1
  O  339  1  0.18401900  0.10371400  0.13321200  1
  O  340  1  0.22584800  0.18283600  0.06275700  1
  O  365  1  0.28239700  0.70548000  0.54527800  1
  O  366  1  0.41424500  0.63352700  0.63571200  1
  O  367  1  0.39755400  0.68805000  0.63828200  1
  O  368  1  0.32315300  0.73602100  0.56679300  1
  O  393  1  0.71961200  0.31250200  0.54206300  1
  O  394  1  0.58274200  0.37589400  0.63358700  1
  O  395  1  0.60024400  0.32155900  0.63314200  1
  O  396  1  0.67857200  0.27985400  0.56089800  1
  O  421  1  0.77738500  0.23329800  0.93871700  1
  O  422  1  0.85955300  0.12001300  0.83555000  1
  O  423  1  0.88780700  0.14376000  0.87183800  1
  O  424  1  0.83308100  0.23668200  0.92846300  1
  O  449  1  0.23767600  0.78280900  0.93975600  1
  O  450  1  0.13305100  0.87244500  0.83745800  1
  O  451  1  0.11211500  0.84975800  0.87744700  1
  O  452  1  0.18206400  0.77261200  0.93335500  1
  O  477  1  0.72578400  0.73978600  0.43842000  1
  O  478  1  0.62853500  0.63917600  0.33721900  1
  O  479  1  0.65269900  0.61721200  0.37605000  1
  O  480  1  0.73339600  0.68382600  0.43116700  1
  O  505  1  0.27475700  0.27954900  0.43977400  1
  O  506  1  0.38170700  0.36555600  0.33499700  1
  O  507  1  0.35803800  0.39290500  0.37201000  1
  O  508  1  0.26932600  0.33508700  0.43001600  1
  O  533  1  0.27612000  0.27538900  0.74032900  1
  O  534  1  0.36507800  0.38162000  0.84446500  1
  O  535  1  0.39255700  0.35609600  0.80837900  1
  O  536  1  0.33144700  0.26870100  0.75041000  1
  O  561  1  0.73406500  0.72311500  0.74165900  1
  O  562  1  0.63246400  0.63161500  0.84742100  1
  O  563  1  0.60870000  0.65690100  0.80985200  1
  O  564  1  0.67888700  0.73425100  0.74986500  1
  O  589  1  0.22701800  0.77281900  0.24135200  1
  O  590  1  0.12747500  0.87296200  0.34349400  1
  O  591  1  0.15301800  0.89683600  0.30590500  1
  O  592  1  0.23622200  0.82840300  0.24925700  1
  O  617  1  0.77899900  0.23015100  0.24105300  1
  O  618  1  0.87745100  0.13927800  0.34856600  1
  O  619  1  0.85231100  0.11220700  0.31226600  1
  O  620  1  0.77020800  0.17517500  0.25136100  1
