# generated using pymatgen
data_HoCuH9C16(NO5)2
_symmetry_space_group_name_H-M   'P 1'
_cell_length_a   11.06132000
_cell_length_b   13.76022000
_cell_length_c   19.34205000
_cell_angle_alpha   89.94021000
_cell_angle_beta   102.69328000
_cell_angle_gamma   89.98242000
_symmetry_Int_Tables_number   1
_chemical_formula_structural   HoCuH9C16(NO5)2
_chemical_formula_sum   'Ho4 Cu4 H36 C64 N8 O40'
_cell_volume   2872.02794969
_cell_formula_units_Z   4
loop_
 _symmetry_equiv_pos_site_id
 _symmetry_equiv_pos_as_xyz
  1  'x, y, z'
loop_
 _atom_site_type_symbol
 _atom_site_label
 _atom_site_symmetry_multiplicity
 _atom_site_fract_x
 _atom_site_fract_y
 _atom_site_fract_z
 _atom_site_occupancy
  Ho  Ho1  1  0.14547000  0.56911000  0.06608000  1.0
  Ho  Ho2  1  0.85160000  0.43097000  0.93390000  1.0
  Ho  Ho3  1  0.15136000  0.93076000  0.56613000  1.0
  Ho  Ho4  1  0.85440000  0.06782000  0.43380000  1.0
  Cu  Cu1  1  0.75944000  0.55684000  0.27591000  1.0
  Cu  Cu2  1  0.75993000  0.93855000  0.77653000  1.0
  Cu  Cu3  1  0.24093000  0.05697000  0.22235000  1.0
  Cu  Cu4  1  0.24265000  0.43854000  0.72256000  1.0
  H  H1  1  0.23530000  0.26424000  0.94626000  1.0
  H  H2  1  0.76743000  0.74525000  0.05271000  1.0
  H  H3  1  0.12562000  0.75290000  0.71773000  1.0
  H  H4  1  0.77277000  0.75905000  0.55648000  1.0
  H  H5  1  0.88032000  0.24478000  0.28425000  1.0
  H  H6  1  0.77620000  0.74222000  0.83482000  1.0
  H  H7  1  0.21925000  0.87813000  0.13150000  1.0
  H  H8  1  0.71684000  0.63325000  0.08424000  1.0
  H  H9  1  0.49092000  0.99531000  0.29302000  1.0
  H  H10  1  0.77753000  0.75242000  0.33750000  1.0
  H  H11  1  0.30408000  0.14633000  0.50738000  1.0
  H  H12  1  0.22103000  0.61716000  0.63126000  1.0
  H  H13  1  0.22615000  0.24324000  0.66382000  1.0
  H  H14  1  0.30386000  0.35801000  0.00687000  1.0
  H  H15  1  0.78225000  0.11865000  0.86757000  1.0
  H  H16  1  0.78194000  0.37601000  0.36607000  1.0
  H  H17  1  0.22374000  0.25245000  0.16225000  1.0
  H  H18  1  0.50773000  0.49616000  0.20701000  1.0
  H  H19  1  0.98653000  0.60260000  0.21874000  1.0
  H  H20  1  0.49385000  0.49889000  0.79187000  1.0
  H  H21  1  0.72283000  0.87285000  0.58614000  1.0
  H  H22  1  0.99070000  0.89600000  0.72161000  1.0
  H  H23  1  0.69349000  0.65342000  0.99172000  1.0
  H  H24  1  0.01079000  0.39585000  0.77700000  1.0
  H  H25  1  0.01360000  0.10103000  0.27932000  1.0
  H  H26  1  0.11843000  0.74725000  0.21343000  1.0
  H  H27  1  0.37850000  0.34786000  0.19999000  1.0
  H  H28  1  0.27813000  0.37883000  0.91425000  1.0
  H  H29  1  0.51007000  0.99935000  0.70742000  1.0
  H  H30  1  0.23440000  0.23922000  0.44586000  1.0
  H  H31  1  0.38083000  0.14818000  0.69960000  1.0
  H  H32  1  0.62204000  0.64792000  0.79945000  1.0
  H  H33  1  0.61964000  0.84620000  0.30024000  1.0
  H  H34  1  0.69863000  0.84924000  0.49400000  1.0
  H  H35  1  0.87624000  0.25257000  0.78043000  1.0
  H  H36  1  0.28285000  0.12636000  0.41482000  1.0
  C  C1  1  0.95440000  0.24653000  0.75501000  1.0
  C  C2  1  0.14775000  0.25376000  0.18939000  1.0
  C  C3  1  0.69116000  0.36762000  0.33096000  1.0
  C  C4  1  0.46083000  0.93389000  0.25806000  1.0
  C  C5  1  0.48997000  0.77196000  0.21653000  1.0
  C  C6  1  0.88471000  0.88181000  0.54405000  1.0
  C  C7  1  0.02390000  0.65875000  0.77449000  1.0
  C  C8  1  0.88941000  0.07542000  0.72396000  1.0
  C  C9  1  0.53198000  0.84988000  0.26169000  1.0
  C  C10  1  0.46681000  0.35069000  0.23807000  1.0
  C  C11  1  0.31142000  0.62623000  0.66666667  1.0
  C  C12  1  0.12079000  0.07151000  0.65559000  1.0
  C  C13  1  0.69216000  0.12763000  0.83183000  1.0
  C  C14  1  0.10767000  0.92344000  0.27355000  1.0
  C  C15  1  0.04771000  0.74667000  0.74334000  1.0
  C  C16  1  0.87969000  0.62134000  0.04341000  1.0
  C  C17  1  0.50919000  0.27190000  0.28250000  1.0
  C  C18  1  0.11542000  0.38233000  0.95645000  1.0
  C  C19  1  0.03041000  0.16923000  0.25476000  1.0
  C  C20  1  0.51133000  0.22406000  0.78216000  1.0
  C  C21  1  0.43056000  0.31294000  0.78188000  1.0
  C  C22  1  0.11373000  0.57570000  0.77555000  1.0
  C  C23  1  0.04272000  0.75199000  0.24087000  1.0
  C  C24  1  0.02870000  0.32744000  0.75313000  1.0
  C  C25  1  0.46350000  0.56050000  0.75705000  1.0
  C  C26  1  0.97311000  0.82737000  0.74537000  1.0
  C  C27  1  0.68726000  0.29816000  0.87382000  1.0
  C  C28  1  0.92044000  0.83922000  0.30819000  1.0
  C  C29  1  0.53448000  0.64458000  0.76079000  1.0
  C  C30  1  0.11758000  0.42503000  0.15461000  1.0
  C  C31  1  0.53986000  0.06111000  0.74211000  1.0
  C  C32  1  0.62638000  0.21454000  0.83034000  1.0
  C  C33  1  0.07929000  0.33865000  0.19059000  1.0
  C  C34  1  0.57069000  0.68350000  0.21562000  1.0
  C  C35  1  0.75741000  0.66708000  0.04284000  1.0
  C  C36  1  0.08061000  0.15738000  0.69105000  1.0
  C  C37  1  0.88082000  0.92537000  0.34376000  1.0
  C  C38  1  0.88283000  0.57044000  0.84292000  1.0
  C  C39  1  0.37551000  0.78216000  0.16794000  1.0
  C  C40  1  0.30933000  0.86873000  0.16720000  1.0
  C  C41  1  0.97956000  0.33766000  0.22516000  1.0
  C  C42  1  0.96949000  0.67058000  0.24349000  1.0
  C  C43  1  0.31513000  0.69941000  0.12333000  1.0
  C  C44  1  0.68610000  0.19884000  0.37517000  1.0
  C  C45  1  0.76274000  0.83696000  0.54535000  1.0
  C  C46  1  0.53846000  0.43431000  0.24151000  1.0
  C  C47  1  0.62447000  0.28133000  0.33055000  1.0
  C  C48  1  0.24201000  0.16090000  0.45578000  1.0
  C  C49  1  0.24046000  0.34261000  0.95585000  1.0
  C  C50  1  0.46870000  0.14516000  0.73804000  1.0
  C  C51  1  0.01995000  0.83898000  0.27344000  1.0
  C  C52  1  0.95651000  0.25027000  0.25723000  1.0
  C  C53  1  0.14911000  0.24226000  0.69012000  1.0
  C  C54  1  0.97897000  0.15861000  0.72417000  1.0
  C  C55  1  0.11802000  0.11765000  0.45398000  1.0
  C  C56  1  0.57110000  0.81271000  0.71634000  1.0
  C  C57  1  0.31598000  0.79635000  0.62410000  1.0
  C  C58  1  0.85329000  0.74156000  0.80852000  1.0
  C  C59  1  0.37742000  0.71280000  0.66754000  1.0
  C  C60  1  0.89118000  0.42161000  0.22461000  1.0
  C  C61  1  0.85281000  0.75396000  0.30976000  1.0
  C  C62  1  0.42745000  0.18377000  0.28240000  1.0
  C  C63  1  0.92240000  0.65690000  0.80759000  1.0
  C  C64  1  0.49192000  0.72301000  0.71612000  1.0
  N  N1  1  0.87460000  0.67162000  0.27730000  1.0
  N  N2  1  0.64981000  0.44234000  0.28678000  1.0
  N  N3  1  0.35292000  0.55188000  0.71121000  1.0
  N  N4  1  0.87596000  0.82478000  0.77738000  1.0
  N  N5  1  0.65052000  0.05272000  0.78798000  1.0
  N  N6  1  0.12610000  0.32520000  0.72134000  1.0
  N  N7  1  0.35051000  0.94281000  0.21193000  1.0
  N  N8  1  0.12593000  0.17110000  0.22151000  1.0
  O  O1  1  0.93215000  0.48710000  0.83929000  1.0
  O  O2  1  0.31011000  0.87739000  0.65623000  1.0
  O  O3  1  0.90305000  0.46626000  0.28480000  1.0
  O  O4  1  0.80006000  0.58115000  0.87980000  1.0
  O  O5  1  0.10338000  0.47325000  0.97235000  1.0
  O  O6  1  0.07228000  0.98808000  0.65996000  1.0
  O  O7  1  0.62451000  0.84368000  0.77895000  1.0
  O  O8  1  0.25989000  0.78566000  0.55923000  1.0
  O  O9  1  0.98008000  0.66939000  0.06252000  1.0
  O  O10  1  0.41148000  0.15230000  0.34001000  1.0
  O  O11  1  0.81146000  0.43794000  0.16986000  1.0
  O  O12  1  0.41802000  0.34727000  0.83939000  1.0
  O  O13  1  0.68339000  0.11400000  0.34737000  1.0
  O  O14  1  0.92642000  0.00940000  0.33717000  1.0
  O  O15  1  0.62371000  0.65082000  0.27791000  1.0
  O  O16  1  0.80694000  0.06164000  0.67002000  1.0
  O  O17  1  0.88484000  0.53082000  0.02542000  1.0
  O  O18  1  0.10912000  0.02742000  0.47234000  1.0
  O  O19  1  0.75157000  0.21450000  0.43766000  1.0
  O  O20  1  0.74645000  0.28554000  0.93804000  1.0
  O  O21  1  0.20268000  0.08225000  0.61804000  1.0
  O  O22  1  0.01891000  0.32948000  0.94057000  1.0
  O  O23  1  0.98436000  0.83215000  0.55926000  1.0
  O  O24  1  0.25282000  0.71405000  0.06000000  1.0
  O  O25  1  0.09712000  0.96583000  0.21248000  1.0
  O  O26  1  0.89032000  0.97309000  0.52821000  1.0
  O  O27  1  0.10168000  0.53016000  0.71564000  1.0
  O  O28  1  0.19429000  0.56149000  0.83023000  1.0
  O  O29  1  0.90310000  0.02944000  0.78388000  1.0
  O  O30  1  0.06918000  0.50849000  0.16002000  1.0
  O  O31  1  0.18563000  0.94241000  0.32858000  1.0
  O  O32  1  0.68929000  0.38087000  0.84337000  1.0
  O  O33  1  0.58225000  0.84762000  0.65876000  1.0
  O  O34  1  0.80161000  0.91423000  0.38283000  1.0
  O  O35  1  0.37678000  0.15117000  0.21974000  1.0
  O  O36  1  0.37674000  0.34353000  0.71911000  1.0
  O  O37  1  0.01934000  0.16718000  0.43382000  1.0
  O  O38  1  0.31543000  0.61525000  0.15238000  1.0
  O  O39  1  0.58314000  0.65180000  0.15743000  1.0
  O  O40  1  0.19776000  0.41470000  0.11606000  1.0
