# generated using pymatgen
data_Mn3CoH66C75(NO)12
_symmetry_space_group_name_H-M   'P 1'
_cell_length_a   12.40300000
_cell_length_b   12.98291000
_cell_length_c   33.77503000
_cell_angle_alpha   89.99986000
_cell_angle_beta   89.99910000
_cell_angle_gamma   81.17134000
_symmetry_Int_Tables_number   1
_chemical_formula_structural   Mn3CoH66C75(NO)12
_chemical_formula_sum   'Mn6 Co2 H132 C150 N24 O24'
_cell_volume   5374.25377308
_cell_formula_units_Z   2
loop_
 _symmetry_equiv_pos_site_id
 _symmetry_equiv_pos_as_xyz
  1  'x, y, z'
loop_
 _atom_site_type_symbol
 _atom_site_label
 _atom_site_symmetry_multiplicity
 _atom_site_fract_x
 _atom_site_fract_y
 _atom_site_fract_z
 _atom_site_occupancy
  Mn  Mn0  1  0.29880000  0.10680000  0.43206000  1
  Mn  Mn1  1  0.70119000  0.89322000  0.93207000  1
  Mn  Mn2  1  0.70120000  0.89321000  0.56795000  1
  Mn  Mn3  1  0.29881000  0.10678000  0.06793000  1
  Mn  Mn4  1  0.50000000  0.00000000  0.50000000  1
  Mn  Mn5  1  0.50000000  0.00000000  0.00000000  1
  Co  Co6  1  0.76996000  0.20400000  0.75000000  1
  Co  Co7  1  0.23005000  0.79600000  0.25000000  1
  H  H8  1  0.64774000  0.14146000  0.46294000  1
  H  H9  1  0.17624000  0.28257000  0.32566000  1
  H  H10  1  0.27410000  0.18077000  0.34680000  1
  H  H11  1  0.05434000  0.21001000  0.52244000  1
  H  H12  1  0.83920000  0.16887000  0.45352000  1
  H  H13  1  0.93685000  0.25458000  0.58219000  1
  H  H14  1  0.02605000  0.07357000  0.47449000  1
  H  H15  1  0.11534000  0.97542000  0.44944000  1
  H  H16  1  0.97111000  0.98480000  0.44285000  1
  H  H17  1  0.62237000  0.07317000  0.33944000  1
  H  H18  1  0.81791000  0.09282000  0.32987000  1
  H  H19  1  0.34017000  0.78824000  0.37618000  1
  H  H20  1  0.32051000  0.71940000  0.50009000  1
  H  H21  1  0.33499000  0.13039000  0.59660000  1
  H  H22  1  0.32269000  0.60575000  0.35982000  1
  H  H23  1  0.79971000  0.08806000  0.67209000  1
  H  H24  1  0.93361000  0.03181000  0.65687000  1
  H  H25  1  0.84928000  0.11455000  0.62430000  1
  H  H26  1  0.28630000  0.54089000  0.48395000  1
  H  H27  1  0.21954000  0.17614000  0.65660000  1
  H  H28  1  0.43868000  0.26416000  0.47046000  1
  H  H29  1  0.34584000  0.36051000  0.49507000  1
  H  H30  1  0.45634000  0.39812000  0.46835000  1
  H  H31  1  0.15698000  0.37074000  0.71355000  1
  H  H32  1  0.05787000  0.47297000  0.69560000  1
  H  H33  1  0.14193000  0.39201000  0.66176000  1
  H  H34  1  0.98656000  0.24072000  0.29706000  1
  H  H35  1  0.97421000  0.35173000  0.32854000  1
  H  H36  1  0.86821000  0.27445000  0.32673000  1
  H  H37  1  0.07839000  0.46180000  0.34717000  1
  H  H38  1  0.19601000  0.47241000  0.31817000  1
  H  H39  1  0.15162000  0.56630000  0.35507000  1
  H  H40  1  0.35224000  0.85853000  0.96294000  1
  H  H41  1  0.82374000  0.71742000  0.82565000  1
  H  H42  1  0.72588000  0.81921000  0.84680000  1
  H  H43  1  0.94566000  0.78999000  0.02244000  1
  H  H44  1  0.16078000  0.83112000  0.95352000  1
  H  H45  1  0.06317000  0.74543000  0.08219000  1
  H  H46  1  0.97392000  0.92644000  0.97448000  1
  H  H47  1  0.88461000  0.02459000  0.94943000  1
  H  H48  1  0.02885000  0.01522000  0.94284000  1
  H  H49  1  0.37764000  0.92682000  0.83944000  1
  H  H50  1  0.18209000  0.90719000  0.82987000  1
  H  H51  1  0.65981000  0.21178000  0.87619000  1
  H  H52  1  0.67946000  0.28062000  0.00009000  1
  H  H53  1  0.66501000  0.86960000  0.09659000  1
  H  H54  1  0.67728000  0.39427000  0.85983000  1
  H  H55  1  0.20030000  0.91193000  0.17209000  1
  H  H56  1  0.06641000  0.96819000  0.15687000  1
  H  H57  1  0.15074000  0.88544000  0.12429000  1
  H  H58  1  0.71367000  0.45914000  0.98395000  1
  H  H59  1  0.78046000  0.82387000  0.15661000  1
  H  H60  1  0.56132000  0.73583000  0.97047000  1
  H  H61  1  0.65417000  0.63948000  0.99508000  1
  H  H62  1  0.54366000  0.60186000  0.96835000  1
  H  H63  1  0.84303000  0.62927000  0.21356000  1
  H  H64  1  0.94214000  0.52703000  0.19560000  1
  H  H65  1  0.85808000  0.60799000  0.16176000  1
  H  H66  1  0.01344000  0.75928000  0.79705000  1
  H  H67  1  0.02578000  0.64828000  0.82855000  1
  H  H68  1  0.13178000  0.72555000  0.82673000  1
  H  H69  1  0.92161000  0.53819000  0.84717000  1
  H  H70  1  0.80399000  0.52759000  0.81818000  1
  H  H71  1  0.84839000  0.43369000  0.85506000  1
  H  H72  1  0.35226000  0.85855000  0.53706000  1
  H  H73  1  0.82376000  0.71744000  0.67435000  1
  H  H74  1  0.72591000  0.81923000  0.65321000  1
  H  H75  1  0.94566000  0.78999000  0.47756000  1
  H  H76  1  0.16080000  0.83113000  0.54648000  1
  H  H77  1  0.06316000  0.74543000  0.41781000  1
  H  H78  1  0.97395000  0.92643000  0.52552000  1
  H  H79  1  0.88466000  0.02458000  0.55057000  1
  H  H80  1  0.02889000  0.01521000  0.55716000  1
  H  H81  1  0.37764000  0.92683000  0.66056000  1
  H  H82  1  0.18209000  0.90718000  0.67013000  1
  H  H83  1  0.65983000  0.21177000  0.62382000  1
  H  H84  1  0.67949000  0.28060000  0.49992000  1
  H  H85  1  0.66501000  0.86961000  0.40341000  1
  H  H86  1  0.67731000  0.39425000  0.64018000  1
  H  H87  1  0.20029000  0.91194000  0.32791000  1
  H  H88  1  0.06640000  0.96819000  0.34313000  1
  H  H89  1  0.15073000  0.88545000  0.37571000  1
  H  H90  1  0.71371000  0.45912000  0.51605000  1
  H  H91  1  0.78046000  0.82386000  0.34340000  1
  H  H92  1  0.56133000  0.73585000  0.52954000  1
  H  H93  1  0.65417000  0.63950000  0.50493000  1
  H  H94  1  0.54366000  0.60188000  0.53165000  1
  H  H95  1  0.84302000  0.62926000  0.28645000  1
  H  H96  1  0.94213000  0.52703000  0.30440000  1
  H  H97  1  0.85808000  0.60799000  0.33825000  1
  H  H98  1  0.01345000  0.75928000  0.70295000  1
  H  H99  1  0.02579000  0.64827000  0.67146000  1
  H  H100  1  0.13180000  0.72555000  0.67327000  1
  H  H101  1  0.92161000  0.53820000  0.65283000  1
  H  H102  1  0.80399000  0.52760000  0.68183000  1
  H  H103  1  0.84839000  0.43371000  0.64494000  1
  H  H104  1  0.64776000  0.14147000  0.03706000  1
  H  H105  1  0.17626000  0.28258000  0.17435000  1
  H  H106  1  0.27413000  0.18079000  0.15321000  1
  H  H107  1  0.05434000  0.21001000  0.97756000  1
  H  H108  1  0.83923000  0.16888000  0.04648000  1
  H  H109  1  0.93683000  0.25457000  0.91782000  1
  H  H110  1  0.02609000  0.07356000  0.02552000  1
  H  H111  1  0.11539000  0.97541000  0.05057000  1
  H  H112  1  0.97115000  0.98478000  0.05717000  1
  H  H113  1  0.62237000  0.07318000  0.16057000  1
  H  H114  1  0.81791000  0.09281000  0.17014000  1
  H  H115  1  0.34020000  0.78822000  0.12381000  1
  H  H116  1  0.32055000  0.71938000  0.99991000  1
  H  H117  1  0.33500000  0.13040000  0.90341000  1
  H  H118  1  0.32273000  0.60573000  0.14017000  1
  H  H119  1  0.79970000  0.08808000  0.82792000  1
  H  H120  1  0.93360000  0.03182000  0.84314000  1
  H  H121  1  0.84927000  0.11456000  0.87571000  1
  H  H122  1  0.28634000  0.54087000  0.01605000  1
  H  H123  1  0.21954000  0.17614000  0.84340000  1
  H  H124  1  0.43869000  0.26417000  0.02954000  1
  H  H125  1  0.34584000  0.36052000  0.00493000  1
  H  H126  1  0.45635000  0.39814000  0.03165000  1
  H  H127  1  0.15698000  0.37074000  0.78645000  1
  H  H128  1  0.05787000  0.47297000  0.80440000  1
  H  H129  1  0.14193000  0.39201000  0.83824000  1
  H  H130  1  0.98657000  0.24073000  0.20295000  1
  H  H131  1  0.97423000  0.35172000  0.17146000  1
  H  H132  1  0.86823000  0.27445000  0.17327000  1
  H  H133  1  0.07839000  0.46181000  0.15284000  1
  H  H134  1  0.19602000  0.47241000  0.18183000  1
  H  H135  1  0.15162000  0.56631000  0.14494000  1
  H  H136  1  0.82114000  0.40236000  0.75000000  1
  H  H137  1  0.95478000  0.44208000  0.75000000  1
  H  H138  1  0.17886000  0.59764000  0.25000000  1
  H  H139  1  0.04522000  0.55792000  0.25000000  1
  C  C140  1  0.30106000  0.55953000  0.42066000  1
  C  C141  1  0.04407000  0.10050000  0.41237000  1
  C  C142  1  0.84261000  0.13388000  0.39092000  1
  C  C143  1  0.32781000  0.35874000  0.43165000  1
  C  C144  1  0.34509000  0.87553000  0.44870000  1
  C  C145  1  0.95796000  0.14621000  0.38701000  1
  C  C146  1  0.33068000  0.76585000  0.43914000  1
  C  C147  1  0.27177000  0.13456000  0.52085000  1
  C  C148  1  0.62288000  0.10644000  0.40166000  1
  C  C149  1  0.68489000  0.13273000  0.43375000  1
  C  C150  1  0.50665000  0.09383000  0.40761000  1
  C  C151  1  0.20370000  0.24121000  0.35290000  1
  C  C152  1  0.01659000  0.31873000  0.68711000  1
  C  C153  1  0.08912000  0.20248000  0.55206000  1
  C  C154  1  0.79274000  0.14688000  0.42840000  1
  C  C155  1  0.20122000  0.16638000  0.55603000  1
  C  C156  1  0.28590000  0.45248000  0.41097000  1
  C  C157  1  0.00650000  0.20468000  0.35933000  1
  C  C158  1  0.00352000  0.24271000  0.65918000  1
  C  C159  1  0.02399000  0.22735000  0.58542000  1
  C  C160  1  0.07057000  0.21793000  0.62351000  1
  C  C161  1  0.03858000  0.02939000  0.44668000  1
  C  C162  1  0.91534000  0.19350000  0.67279000  1
  C  C163  1  0.67116000  0.09434000  0.36405000  1
  C  C164  1  0.77997000  0.10689000  0.35881000  1
  C  C165  1  0.22864000  0.42102000  0.37863000  1
  C  C166  1  0.32947000  0.73316000  0.39960000  1
  C  C167  1  0.31809000  0.69462000  0.46937000  1
  C  C168  1  0.24809000  0.15838000  0.59392000  1
  C  C169  1  0.31749000  0.63086000  0.39057000  1
  C  C170  1  0.87218000  0.10244000  0.65554000  1
  C  C171  1  0.30075000  0.59378000  0.46026000  1
  C  C172  1  0.18347000  0.18417000  0.62718000  1
  C  C173  1  0.39600000  0.34448000  0.46828000  1
  C  C174  1  0.09705000  0.39254000  0.68976000  1
  C  C175  1  0.95710000  0.27135000  0.32611000  1
  C  C176  1  0.16073000  0.48297000  0.34805000  1
  C  C177  1  0.69895000  0.44047000  0.92066000  1
  C  C178  1  0.95591000  0.89951000  0.91236000  1
  C  C179  1  0.15738000  0.86613000  0.89092000  1
  C  C180  1  0.67219000  0.64125000  0.93165000  1
  C  C181  1  0.65489000  0.12447000  0.94870000  1
  C  C182  1  0.04203000  0.85380000  0.88700000  1
  C  C183  1  0.66932000  0.23414000  0.93915000  1
  C  C184  1  0.72824000  0.86541000  0.02085000  1
  C  C185  1  0.37711000  0.89355000  0.90166000  1
  C  C186  1  0.31510000  0.86728000  0.93375000  1
  C  C187  1  0.49335000  0.90617000  0.90760000  1
  C  C188  1  0.79628000  0.75878000  0.85290000  1
  C  C189  1  0.98341000  0.68127000  0.18710000  1
  C  C190  1  0.91090000  0.79751000  0.05206000  1
  C  C191  1  0.20724000  0.85312000  0.92841000  1
  C  C192  1  0.79879000  0.83361000  0.05603000  1
  C  C193  1  0.71411000  0.54752000  0.91097000  1
  C  C194  1  0.99348000  0.79533000  0.85933000  1
  C  C195  1  0.99648000  0.75729000  0.15917000  1
  C  C196  1  0.97602000  0.77265000  0.08541000  1
  C  C197  1  0.92944000  0.78208000  0.12350000  1
  C  C198  1  0.96138000  0.97062000  0.94667000  1
  C  C199  1  0.08467000  0.80649000  0.17278000  1
  C  C200  1  0.32883000  0.90566000  0.86404000  1
  C  C201  1  0.22002000  0.89312000  0.85881000  1
  C  C202  1  0.77136000  0.57898000  0.87863000  1
  C  C203  1  0.67053000  0.26685000  0.89961000  1
  C  C204  1  0.68190000  0.30539000  0.96937000  1
  C  C205  1  0.75192000  0.84162000  0.09392000  1
  C  C206  1  0.68250000  0.36914000  0.89057000  1
  C  C207  1  0.12784000  0.89755000  0.15554000  1
  C  C208  1  0.69925000  0.40623000  0.96026000  1
  C  C209  1  0.81653000  0.81583000  0.12719000  1
  C  C210  1  0.60400000  0.65551000  0.96828000  1
  C  C211  1  0.90295000  0.60746000  0.18977000  1
  C  C212  1  0.04289000  0.72865000  0.82611000  1
  C  C213  1  0.83927000  0.51702000  0.84805000  1
  C  C214  1  0.69895000  0.44047000  0.57935000  1
  C  C215  1  0.95593000  0.89950000  0.58764000  1
  C  C216  1  0.15739000  0.86612000  0.60908000  1
  C  C217  1  0.67220000  0.64126000  0.56835000  1
  C  C218  1  0.65491000  0.12447000  0.55131000  1
  C  C219  1  0.04205000  0.85379000  0.61300000  1
  C  C220  1  0.66932000  0.23415000  0.56086000  1
  C  C221  1  0.72823000  0.86544000  0.47915000  1
  C  C222  1  0.37712000  0.89356000  0.59834000  1
  C  C223  1  0.31512000  0.86728000  0.56626000  1
  C  C224  1  0.49336000  0.90617000  0.59240000  1
  C  C225  1  0.79630000  0.75879000  0.64710000  1
  C  C226  1  0.98342000  0.68127000  0.31290000  1
  C  C227  1  0.91089000  0.79752000  0.44794000  1
  C  C228  1  0.20726000  0.85312000  0.57160000  1
  C  C229  1  0.79878000  0.83362000  0.44397000  1
  C  C230  1  0.71411000  0.54752000  0.58903000  1
  C  C231  1  0.99351000  0.79532000  0.64067000  1
  C  C232  1  0.99648000  0.75729000  0.34083000  1
  C  C233  1  0.97601000  0.77265000  0.41459000  1
  C  C234  1  0.92944000  0.78208000  0.37650000  1
  C  C235  1  0.96142000  0.97061000  0.55333000  1
  C  C236  1  0.08467000  0.80650000  0.32722000  1
  C  C237  1  0.32884000  0.90566000  0.63595000  1
  C  C238  1  0.22003000  0.89311000  0.64119000  1
  C  C239  1  0.77136000  0.57899000  0.62138000  1
  C  C240  1  0.67054000  0.26684000  0.60040000  1
  C  C241  1  0.68191000  0.30538000  0.53063000  1
  C  C242  1  0.75192000  0.84163000  0.40608000  1
  C  C243  1  0.68251000  0.36914000  0.60944000  1
  C  C244  1  0.12783000  0.89756000  0.34446000  1
  C  C245  1  0.69926000  0.40623000  0.53974000  1
  C  C246  1  0.81653000  0.81583000  0.37282000  1
  C  C247  1  0.60401000  0.65552000  0.53172000  1
  C  C248  1  0.90295000  0.60746000  0.31024000  1
  C  C249  1  0.04291000  0.72865000  0.67390000  1
  C  C250  1  0.83927000  0.51703000  0.65195000  1
  C  C251  1  0.30105000  0.55953000  0.07934000  1
  C  C252  1  0.04410000  0.10049000  0.08764000  1
  C  C253  1  0.84263000  0.13387000  0.10908000  1
  C  C254  1  0.32781000  0.35875000  0.06835000  1
  C  C255  1  0.34512000  0.87553000  0.05130000  1
  C  C256  1  0.95798000  0.14620000  0.11300000  1
  C  C257  1  0.33069000  0.76586000  0.06085000  1
  C  C258  1  0.27177000  0.13459000  0.97915000  1
  C  C259  1  0.62290000  0.10645000  0.09834000  1
  C  C260  1  0.68490000  0.13273000  0.06626000  1
  C  C261  1  0.50666000  0.09383000  0.09240000  1
  C  C262  1  0.20372000  0.24122000  0.14710000  1
  C  C263  1  0.01659000  0.31873000  0.81290000  1
  C  C264  1  0.08911000  0.20249000  0.94794000  1
  C  C265  1  0.79276000  0.14688000  0.07160000  1
  C  C266  1  0.20121000  0.16639000  0.94397000  1
  C  C267  1  0.28590000  0.45249000  0.08903000  1
  C  C268  1  0.00652000  0.20467000  0.14067000  1
  C  C269  1  0.00353000  0.24272000  0.84083000  1
  C  C270  1  0.02398000  0.22735000  0.91459000  1
  C  C271  1  0.07057000  0.21793000  0.87650000  1
  C  C272  1  0.03862000  0.02938000  0.05333000  1
  C  C273  1  0.91533000  0.19351000  0.82722000  1
  C  C274  1  0.67117000  0.09434000  0.13596000  1
  C  C275  1  0.77999000  0.10688000  0.14120000  1
  C  C276  1  0.22865000  0.42102000  0.12138000  1
  C  C277  1  0.32948000  0.73315000  0.10040000  1
  C  C278  1  0.31811000  0.69461000  0.03063000  1
  C  C279  1  0.24809000  0.15838000  0.90608000  1
  C  C280  1  0.31750000  0.63086000  0.10943000  1
  C  C281  1  0.87217000  0.10245000  0.84447000  1
  C  C282  1  0.30075000  0.59377000  0.03974000  1
  C  C283  1  0.18348000  0.18417000  0.87282000  1
  C  C284  1  0.39600000  0.34449000  0.03172000  1
  C  C285  1  0.09705000  0.39254000  0.81024000  1
  C  C286  1  0.95711000  0.27135000  0.17390000  1
  C  C287  1  0.16073000  0.48299000  0.15195000  1
  C  C288  1  0.91003000  0.37582000  0.75000000  1
  C  C289  1  0.08997000  0.62418000  0.25000000  1
  N  N290  1  0.11550000  0.19149000  0.36854000  1
  N  N291  1  0.29957000  0.27590000  0.41275000  1
  N  N292  1  0.23917000  0.31459000  0.38068000  1
  N  N293  1  0.13899000  0.12790000  0.40061000  1
  N  N294  1  0.93614000  0.31522000  0.71471000  1
  N  N295  1  0.87488000  0.23753000  0.70715000  1
  N  N296  1  0.88448000  0.80851000  0.86853000  1
  N  N297  1  0.70042000  0.72410000  0.91275000  1
  N  N298  1  0.76083000  0.68541000  0.88068000  1
  N  N299  1  0.86099000  0.87210000  0.90060000  1
  N  N300  1  0.06386000  0.68478000  0.21471000  1
  N  N301  1  0.12512000  0.76247000  0.20715000  1
  N  N302  1  0.88451000  0.80851000  0.63147000  1
  N  N303  1  0.70043000  0.72411000  0.58725000  1
  N  N304  1  0.76084000  0.68541000  0.61932000  1
  N  N305  1  0.86102000  0.87210000  0.59940000  1
  N  N306  1  0.06386000  0.68478000  0.28529000  1
  N  N307  1  0.12513000  0.76247000  0.29285000  1
  N  N308  1  0.11552000  0.19149000  0.13147000  1
  N  N309  1  0.29958000  0.27590000  0.08725000  1
  N  N310  1  0.23918000  0.31460000  0.11932000  1
  N  N311  1  0.13901000  0.12790000  0.09940000  1
  N  N312  1  0.93615000  0.31522000  0.78530000  1
  N  N313  1  0.87488000  0.23753000  0.79285000  1
  O  O314  1  0.30209000  0.94585000  0.42453000  1
  O  O315  1  0.44393000  0.08820000  0.37872000  1
  O  O316  1  0.47090000  0.09372000  0.44419000  1
  O  O317  1  0.22725000  0.14536000  0.48646000  1
  O  O318  1  0.37126000  0.09917000  0.52761000  1
  O  O319  1  0.39684000  0.89080000  0.48011000  1
  O  O320  1  0.69784000  0.05415000  0.92453000  1
  O  O321  1  0.55608000  0.91179000  0.87872000  1
  O  O322  1  0.52909000  0.90629000  0.94418000  1
  O  O323  1  0.77277000  0.85465000  0.98647000  1
  O  O324  1  0.62873000  0.90076000  0.02761000  1
  O  O325  1  0.60317000  0.10920000  0.98012000  1
  O  O326  1  0.69791000  0.05415000  0.57547000  1
  O  O327  1  0.55607000  0.91180000  0.62128000  1
  O  O328  1  0.52910000  0.90629000  0.55581000  1
  O  O329  1  0.77275000  0.85464000  0.51354000  1
  O  O330  1  0.62874000  0.90083000  0.47239000  1
  O  O331  1  0.60316000  0.10920000  0.51990000  1
  O  O332  1  0.30216000  0.94585000  0.07547000  1
  O  O333  1  0.44392000  0.08821000  0.12129000  1
  O  O334  1  0.47092000  0.09371000  0.05582000  1
  O  O335  1  0.22724000  0.14535000  0.01354000  1
  O  O336  1  0.37128000  0.09924000  0.97240000  1
  O  O337  1  0.39683000  0.89080000  0.01988000  1
