# generated using pymatgen
data_H24C41(NO)8
_symmetry_space_group_name_H-M   'P 1'
_cell_length_a   16.10660000
_cell_length_b   16.10660000
_cell_length_c   47.95160000
_cell_angle_alpha   90.04150000
_cell_angle_beta   90.02070000
_cell_angle_gamma   60.00000000
_symmetry_Int_Tables_number   1
_chemical_formula_structural   H24C41(NO)8
_chemical_formula_sum   'H72 C123 N24 O24'
_cell_volume   10773.11677117
_cell_formula_units_Z   3
loop_
 _symmetry_equiv_pos_site_id
 _symmetry_equiv_pos_as_xyz
  1  'x, y, z'
loop_
 _atom_site_type_symbol
 _atom_site_label
 _atom_site_symmetry_multiplicity
 _atom_site_fract_x
 _atom_site_fract_y
 _atom_site_fract_z
 _atom_site_occupancy
  C  1  1  0.87559200  0.04470650  0.07270700  1
  C  2  1  0.83558600  0.99299250  0.06035700  1
  C  3  1  0.77640700  0.02901200  0.03670600  1
  C  4  1  0.75166400  0.11950050  0.02493600  1
  C  5  1  0.80190400  0.16427500  0.03563700  1
  C  6  1  0.86062900  0.12910850  0.05942500  1
  C  7  1  0.68174300  0.16351350  0.00053200  1
  C  8  1  0.75125300  0.13713600  0.97600400  1
  C  9  1  0.77632400  0.20245900  0.96411300  1
  C  10  1  0.83369900  0.17950800  0.94007600  1
  C  11  1  0.87153700  0.08840650  0.92745500  1
  C  12  1  0.85725500  0.01890650  0.94098500  1
  C  13  1  0.80015400  0.04231050  0.96512700  1
  C  14  1  0.61031400  0.12751200  0.99820800  1
  C  15  1  0.61103600  0.27112850  0.00288300  1
  C  16  1  0.55910600  0.32423450  0.97901000  1
  C  17  1  0.49625400  0.42372550  0.98005000  1
  C  18  1  0.47945900  0.47345650  0.00550800  1
  C  19  1  0.52391700  0.42126350  0.02984500  1
  C  20  1  0.58626600  0.32161750  0.02863200  1
  C  21  1  0.55875600  0.12598450  0.02211700  1
  C  22  1  0.49592800  0.08928850  0.02106800  1
  C  23  1  0.47866700  0.05687650  0.99556000  1
  C  24  1  0.52158100  0.06656150  0.97115700  1
  C  25  1  0.58424800  0.10342300  0.97240700  1
  C  46  1  0.04609200  0.08208150  0.40672200  1
  C  47  1  0.99428000  0.17357850  0.39427300  1
  C  48  1  0.03006200  0.19633600  0.37050300  1
  C  49  1  0.12048600  0.13045200  0.35870400  1
  C  50  1  0.16539400  0.03562200  0.36951700  1
  C  51  1  0.13039400  0.01243550  0.39341200  1
  C  52  1  0.16415400  0.15603950  0.33415000  1
  C  53  1  0.13730600  0.11278100  0.30973800  1
  C  54  1  0.20252700  0.02262700  0.29766900  1
  C  55  1  0.17937000  0.98879900  0.27352600  1
  C  56  1  0.08817600  0.04240850  0.26100100  1
  C  57  1  0.01861400  0.12552250  0.27481300  1
  C  58  1  0.04227200  0.15869800  0.29902700  1
  C  59  1  0.12810400  0.26345150  0.33171200  1
  C  60  1  0.27180600  0.11916150  0.33631000  1
  C  61  1  0.32447100  0.11801400  0.31233000  1
  C  62  1  0.42393400  0.08167450  0.31319850  1
  C  63  1  0.47414700  0.04881600  0.33858100  1
  C  64  1  0.42234100  0.05670400  0.36301900  1
  C  65  1  0.32269900  0.09384300  0.36198400  1
  C  66  1  0.12672400  0.31694500  0.35552100  1
  C  67  1  0.08971600  0.41650800  0.35436800  1
  C  68  1  0.05696800  0.46575000  0.32883200  1
  C  69  1  0.06636800  0.41281250  0.30450700  1
  C  70  1  0.10358200  0.31326050  0.30586700  1
  C  91  1  0.08237400  0.87465350  0.73958500  1
  C  92  1  0.17377400  0.83518000  0.72707700  1
  C  93  1  0.19664400  0.77625850  0.70336400  1
  C  94  1  0.13095200  0.75118800  0.69170200  1
  C  95  1  0.03609000  0.80120400  0.70250200  1
  C  96  1  0.01278400  0.85977350  0.72633500  1
  C  97  1  0.15679800  0.68122350  0.66729600  1
  C  98  1  0.11362400  0.75063600  0.64275900  1
  C  99  1  0.02304300  0.77591750  0.63093900  1
  C  100  1  0.98841600  0.83337950  0.60692900  1
  C  101  1  0.04164000  0.87115050  0.59428100  1
  C  102  1  0.12568400  0.85659400  0.60773200  1
  C  103  1  0.15958600  0.79939300  0.63183900  1
  C  104  1  0.26422000  0.60978800  0.66500600  1
  C  105  1  0.11991200  0.61051200  0.66963200  1
  C  106  1  0.11859400  0.55860800  0.64575100  1
  C  107  1  0.08206600  0.49565950  0.64679000  1
  C  108  1  0.04906600  0.47899950  0.67223600  1
  C  109  1  0.05691000  0.52347700  0.69657500  1
  C  110  1  0.09441200  0.58564350  0.69538100  1
  C  111  1  0.31727700  0.55844350  0.68894700  1
  C  112  1  0.41673500  0.49531300  0.68792300  1
  C  113  1  0.46638800  0.47750650  0.66241400  1
  C  114  1  0.41390300  0.52054000  0.63799800  1
  C  115  1  0.31440200  0.58341550  0.63922000  1
  C  136  1  0.97024900  0.07199200  0.85838900  1
  C  137  1  0.92926300  0.11510950  0.83236200  1
  C  138  1  0.97637100  0.06885200  0.80734000  1
  C  139  1  0.06350400  0.98052250  0.80754900  1
  C  140  1  0.10525000  0.93805450  0.83354700  1
  C  142  1  0.05814200  0.98430600  0.85856200  1
  C  150  1  0.92514800  0.11429400  0.88335800  1
  C  152  1  0.10644000  0.93618000  0.78261000  1
  C  154  1  0.07261900  0.96269250  0.19135900  1
  C  155  1  0.11664400  0.95853800  0.16531700  1
  C  156  1  0.07096400  0.95645250  0.14030700  1
  C  157  1  0.98225900  0.95846400  0.14052800  1
  C  158  1  0.93873400  0.96137050  0.16651000  1
  C  160  1  0.98447400  0.96334000  0.19150800  1
  C  168  1  0.11458700  0.96636100  0.21634200  1
  C  170  1  0.93846900  0.95879350  0.11559700  1
  C  172  1  0.95884800  0.97072200  0.52537800  1
  C  173  1  0.95754000  0.92930250  0.49933700  1
  C  174  1  0.95733800  0.97607900  0.47432900  1
  C  175  1  0.95834200  0.06331550  0.47457100  1
  C  176  1  0.95816300  0.10551950  0.50058600  1
  C  178  1  0.95841500  0.05872000  0.52558700  1
  C  186  1  0.96109400  0.92596650  0.55034300  1
  C  188  1  0.96014000  0.10606750  0.44965200  1
  C  190  1  0.38999600  0.89467800  0.00429700  1
  C  191  1  0.47539300  0.80673300  0.99877900  1
  C  192  1  0.46937000  0.72370450  0.99383700  1
  C  193  1  0.38133900  0.72451400  0.99550500  1
  C  194  1  0.29600100  0.81201900  0.00101200  1
  C  196  1  0.30153700  0.89619150  0.00546900  1
  C  204  1  0.39368200  0.97675250  0.01036700  1
  C  206  1  0.38323300  0.63851150  0.99164300  1
  C  208  1  0.89431700  0.71711850  0.33709700  1
  C  209  1  0.80651300  0.71999050  0.33106800  1
  C  210  1  0.72381900  0.80922750  0.32605400  1
  C  211  1  0.72478800  0.89629000  0.32813500  1
  C  212  1  0.81215600  0.89382200  0.33410000  1
  C  214  1  0.89600700  0.80393750  0.33863100  1
  C  222  1  0.97597200  0.63126400  0.34336500  1
  C  224  1  0.63894200  0.98056200  0.32438200  1
  C  226  1  0.71703400  0.38899950  0.67120600  1
  C  227  1  0.71919500  0.47484800  0.66620100  1
  C  228  1  0.80799800  0.46933500  0.66125900  1
  C  229  1  0.89537600  0.38129100  0.66238500  1
  C  230  1  0.89356000  0.29551550  0.66740200  1
  C  232  1  0.80409000  0.30057450  0.67189000  1
  C  240  1  0.63153000  0.39211600  0.67718900  1
  C  242  1  0.97922500  0.38359700  0.65842200  1
  H  26  1  0.46796400  0.46001600  0.96183700  1
  H  27  1  0.57112200  0.29135200  0.96000200  1
  H  28  1  0.51440100  0.45597850  0.04849100  1
  H  29  1  0.61558000  0.28700100  0.04694200  1
  H  30  1  0.57147600  0.14605650  0.04115700  1
  H  31  1  0.46850000  0.08044850  0.03932400  1
  H  32  1  0.51154400  0.04213300  0.95244000  1
  H  33  1  0.61300400  0.10940250  0.95407100  1
  H  34  1  0.78938600  0.99034000  0.97370500  1
  H  35  1  0.88507900  0.95156150  0.93269400  1
  H  36  1  0.84539900  0.23089550  0.93154600  1
  H  37  1  0.75027100  0.26955400  0.97228400  1
  H  38  1  0.79140800  0.22699650  0.02712200  1
  H  39  1  0.74924700  0.98879050  0.02864400  1
  H  40  1  0.84692900  0.92995100  0.06882000  1
  H  45  1  0.88990700  0.16757850  0.06752700  1
  H  71  1  0.45990200  0.07338850  0.29490200  1
  H  72  1  0.29134000  0.13853850  0.29335500  1
  H  73  1  0.45737200  0.03184550  0.38162700  1
  H  74  1  0.28839400  0.09928400  0.38036500  1
  H  75  1  0.14704800  0.28442650  0.37458200  1
  H  76  1  0.08089800  0.45310900  0.37257000  1
  H  77  1  0.04168400  0.44696400  0.28577200  1
  H  78  1  0.10944000  0.27825450  0.28758000  1
  H  79  1  0.99036000  0.22117350  0.30777100  1
  H  80  1  0.95113100  0.16512850  0.26663300  1
  H  81  1  0.23074800  0.92604250  0.26480500  1
  H  82  1  0.26982700  0.98160050  0.30569200  1
  H  83  1  0.22802400  0.98326600  0.36097300  1
  H  84  1  0.98973700  0.26358000  0.36238600  1
  H  85  1  0.93117100  0.22535400  0.40269900  1
  H  90  1  0.16890600  0.94482000  0.40157400  1
  H  116  1  0.07352800  0.46776400  0.62855900  1
  H  117  1  0.13929800  0.57067150  0.62673600  1
  H  118  1  0.03171800  0.51403700  0.71522100  1
  H  119  1  0.09983800  0.61490150  0.71369900  1
  H  120  1  0.28446000  0.57127150  0.70797900  1
  H  121  1  0.45293900  0.46788350  0.70619100  1
  H  122  1  0.44836700  0.51017200  0.61927500  1
  H  123  1  0.27969800  0.61206450  0.62087000  1
  H  124  1  0.22245200  0.78850900  0.64037300  1
  H  125  1  0.16517800  0.88437800  0.59942000  1
  H  126  1  0.92518300  0.84524100  0.59845000  1
  H  127  1  0.98199800  0.74996150  0.63914300  1
  H  128  1  0.98384300  0.79061900  0.69402300  1
  H  129  1  0.26389600  0.74925850  0.69523700  1
  H  130  1  0.22549200  0.84667900  0.73547300  1
  H  135  1  0.94521500  0.88875100  0.73453500  1
  H  141  1  0.94578600  0.10042900  0.78869700  1
  H  143  1  0.08887600  0.95264350  0.87717900  1
  H  151  1  0.89262200  0.18521050  0.88502100  1
  H  153  1  0.17694200  0.90745600  0.78069100  1
  H  159  1  0.10320200  0.95400200  0.12166100  1
  H  161  1  0.95203400  0.96571800  0.21010400  1
  H  169  1  0.18564000  0.93058250  0.21776200  1
  H  171  1  0.91056100  0.91628650  0.11373000  1
  H  177  1  0.95693700  0.94519350  0.45567400  1
  H  179  1  0.95873700  0.08975100  0.54421800  1
  H  187  1  0.92238000  0.89378900  0.55198400  1
  H  189  1  0.91791700  0.17648400  0.44767000  1
  H  195  1  0.53159700  0.66089600  0.98975300  1
  H  197  1  0.23991200  0.95908700  0.00985000  1
  H  205  1  0.37464000  0.00523450  0.02928600  1
  H  207  1  0.35398500  0.62904250  0.97457100  1
  H  213  1  0.66106200  0.81008900  0.32165200  1
  H  215  1  0.95877200  0.80245850  0.34336700  1
  H  223  1  0.00536400  0.62232200  0.36213800  1
  H  225  1  0.62869900  0.01892400  0.30720400  1
  H  231  1  0.80826300  0.53188100  0.65748800  1
  H  233  1  0.80308500  0.23861200  0.67590700  1
  H  241  1  0.62181400  0.37318450  0.69607900  1
  H  243  1  0.01898600  0.35277800  0.64162600  1
  N  41  1  0.44282000  0.56729100  0.00656800  1
  N  42  1  0.44269400  0.99911250  0.99409200  1
  N  43  1  0.92265700  0.02214900  0.09686500  1
  N  44  1  0.91647200  0.06457500  0.90294800  1
  N  86  1  0.56807600  0.99204950  0.33946800  1
  N  87  1  0.99865500  0.55935150  0.32726200  1
  N  88  1  0.02333800  0.05793550  0.43091400  1
  N  89  1  0.06426600  0.02196550  0.23639500  1
  N  131  1  0.99117000  0.44321700  0.67325600  1
  N  132  1  0.56014500  0.44144900  0.66093100  1
  N  133  1  0.05824300  0.92151900  0.76379500  1
  N  134  1  0.02024000  0.91634700  0.56982400  1
  N  144  1  0.19226200  0.84906600  0.83421500  1
  N  145  1  0.84087500  0.20275400  0.83161800  1
  N  162  1  0.84923500  0.96442950  0.16715200  1
  N  163  1  0.20471000  0.95844350  0.16449800  1
  N  180  1  0.95982700  0.19268900  0.50128900  1
  N  181  1  0.95841300  0.84085300  0.49858200  1
  N  198  1  0.20762800  0.81313050  0.00247200  1
  N  199  1  0.56618300  0.80123550  0.99887500  1
  N  216  1  0.81342600  0.98093950  0.33594500  1
  N  217  1  0.80065700  0.63489600  0.33081900  1
  N  234  1  0.98094500  0.20715100  0.66837200  1
  N  235  1  0.63377300  0.56550550  0.66676400  1
  O  146  1  0.25720000  0.85602400  0.84665800  1
  O  147  1  0.84944900  0.26774300  0.81983700  1
  O  148  1  0.77708400  0.19364050  0.81924300  1
  O  149  1  0.18158800  0.78520250  0.84590500  1
  O  164  1  0.85488600  0.89383300  0.18001500  1
  O  165  1  0.26967600  0.88380400  0.15311700  1
  O  166  1  0.19661000  0.03020050  0.15169700  1
  O  167  1  0.78546700  0.04014150  0.17839300  1
  O  182  1  0.88743900  0.25769050  0.51353300  1
  O  183  1  0.88523200  0.84915500  0.48659900  1
  O  184  1  0.03170400  0.77691700  0.48639500  1
  O  185  1  0.03389000  0.18244400  0.51320100  1
  O  200  1  0.16991200  0.83913300  0.02615600  1
  O  201  1  0.60726800  0.77516100  0.97561800  1
  O  202  1  0.62063500  0.74524500  0.01738300  1
  O  203  1  0.14946200  0.86848000  0.98451500  1
  O  218  1  0.83856700  0.99220750  0.35981100  1
  O  219  1  0.77540000  0.62024100  0.30737900  1
  O  220  1  0.74384100  0.63646550  0.34905200  1
  O  221  1  0.86956700  0.98386800  0.31829400  1
  O  236  1  0.99356400  0.16794550  0.69184600  1
  O  237  1  0.61796700  0.60799500  0.64373100  1
  O  238  1  0.63574400  0.61891400  0.68556400  1
  O  239  1  0.98323300  0.15005600  0.65010200  1
