# generated using pymatgen
data_V4H25C45NO23
_symmetry_space_group_name_H-M   'P 1'
_cell_length_a   6.94479000
_cell_length_b   13.62943000
_cell_length_c   20.40188000
_cell_angle_alpha   102.12028000
_cell_angle_beta   89.78472000
_cell_angle_gamma   89.53875000
_symmetry_Int_Tables_number   1
_chemical_formula_structural   V4H25C45NO23
_chemical_formula_sum   'V4 H25 C45 N1 O23'
_cell_volume   1887.97304520
_cell_formula_units_Z   1
loop_
 _symmetry_equiv_pos_site_id
 _symmetry_equiv_pos_as_xyz
  1  'x, y, z'
loop_
 _atom_site_type_symbol
 _atom_site_label
 _atom_site_symmetry_multiplicity
 _atom_site_fract_x
 _atom_site_fract_y
 _atom_site_fract_z
 _atom_site_occupancy
  V  V0  1  0.06468000  0.48820000  0.49778000  1
  V  V1  1  0.56401000  0.51180000  0.50222000  1
  V  V2  1  0.64817000  0.01180000  0.00222000  1
  V  V3  1  0.14881000  0.98807000  0.99782000  1
  H  H4  1  0.94255000  0.83194000  0.47761000  1
  H  H5  1  0.98059000  0.00398000  0.30039000  1
  H  H6  1  0.98608000  0.95710000  0.40851000  1
  H  H7  1  0.76659000  0.61508000  0.30688000  1
  H  H8  1  0.80805000  0.52876000  0.07935000  1
  H  H9  1  0.93722000  0.96392000  0.18111000  1
  H  H10  1  0.14234000  0.68239000  0.69277000  1
  H  H11  1  0.70334000  0.71245000  0.70070000  1
  H  H12  1  0.15678000  0.79825000  0.80235000  1
  H  H13  1  0.71465000  0.79861000  0.80130000  1
  H  H14  1  0.06666000  0.17869000  0.19875000  1
  H  H15  1  0.50173000  0.21480000  0.19776000  1
  H  H16  1  0.06176000  0.29638000  0.30778000  1
  H  H17  1  0.50432000  0.29752000  0.29936000  1
  H  H18  1  0.37087000  0.16134000  0.51967000  1
  H  H19  1  0.38771000  0.98603000  0.69578000  1
  H  H20  1  0.38442000  0.03289000  0.58751000  1
  H  H21  1  0.34178000  0.39366000  0.69565000  1
  H  H22  1  0.34077000  0.33497000  0.98327000  1
  H  H23  1  0.33194000  0.43219000  0.79944000  1
  H  H24  1  0.32475000  0.46918000  0.91984000  1
  H  H25  1  0.38036000  0.02890000  0.81651000  1
  H  H26  1  0.15612000  0.58637000  0.23566000  1
  H  H27  1  0.13634000  0.50080000  0.15406000  1
  H  H28  1  0.09436000  0.45750000  0.22998000  1
  C  C29  1  0.34918000  0.38402000  0.38650000  1
  C  C30  1  0.34643000  0.36204000  0.56476000  1
  C  C31  1  0.83964000  0.61591000  0.61348000  1
  C  C32  1  0.84340000  0.63793000  0.43512000  1
  C  C33  1  0.94429000  0.88165000  0.38458000  1
  C  C34  1  0.85587000  0.71477000  0.39490000  1
  C  C35  1  0.82659000  0.68198000  0.06919000  1
  C  C36  1  0.82359000  0.60609000  0.10556000  1
  C  C37  1  0.85269000  0.62625000  0.17473000  1
  C  C38  1  0.86601000  0.72739000  0.21141000  1
  C  C39  1  0.88204000  0.80460000  0.17393000  1
  C  C40  1  0.87191000  0.75485000  0.28332000  1
  C  C41  1  0.92114000  0.85473000  0.31477000  1
  C  C42  1  0.94567000  0.92740000  0.27662000  1
  C  C43  1  0.92118000  0.90362000  0.20775000  1
  C  C44  1  0.82666000  0.68802000  0.32564000  1
  C  C45  1  0.91731000  0.81115000  0.42413000  1
  C  C46  1  0.86107000  0.78161000  0.10309000  1
  C  C47  1  0.00523000  0.71109000  0.71487000  1
  C  C48  1  0.84197000  0.68427000  0.68028000  1
  C  C49  1  0.01387000  0.77922000  0.78247000  1
  C  C50  1  0.85882000  0.81689000  0.81959000  1
  C  C51  1  0.20434000  0.20919000  0.21784000  1
  C  C52  1  0.36328000  0.18460000  0.17995000  1
  C  C53  1  0.20297000  0.27758000  0.28538000  1
  C  C54  1  0.36122000  0.31585000  0.31970000  1
  C  C55  1  0.37512000  0.11123000  0.61257000  1
  C  C56  1  0.35576000  0.28526000  0.60493000  1
  C  C57  1  0.34409000  0.31566000  0.92896000  1
  C  C58  1  0.33515000  0.39172000  0.89320000  1
  C  C59  1  0.33952000  0.36900000  0.82335000  1
  C  C60  1  0.35287000  0.26828000  0.78713000  1
  C  C61  1  0.36130000  0.19057000  0.82423000  1
  C  C62  1  0.35797000  0.24206000  0.71550000  1
  C  C63  1  0.37048000  0.13911000  0.68285000  1
  C  C64  1  0.37818000  0.06459000  0.72038000  1
  C  C65  1  0.37386000  0.08969000  0.78988000  1
  C  C66  1  0.35108000  0.31427000  0.67486000  1
  C  C67  1  0.36757000  0.18397000  0.57385000  1
  C  C68  1  0.35704000  0.21544000  0.89523000  1
  C  C69  1  0.36657000  0.13804000  0.93526000  1
  C  C70  1  0.36420000  0.11588000  0.11345000  1
  C  C71  1  0.86950000  0.86180000  0.06474000  1
  C  C72  1  0.87268000  0.88455000  0.88638000  1
  C  C73  1  0.07501000  0.52237000  0.20563000  1
  N  N74  1  0.80126000  0.65551000  0.99760000  1
  O  O75  1  0.50686000  0.40061000  0.55076000  1
  O  O76  1  0.18022000  0.40540000  0.41322000  1
  O  O77  1  0.00450000  0.59939000  0.44924000  1
  O  O78  1  0.17749000  0.38871000  0.54803000  1
  O  O79  1  0.00175000  0.58258000  0.58501000  1
  O  O80  1  0.50961000  0.41742000  0.41499000  1
  O  O81  1  0.33742000  0.56363000  0.51198000  1
  O  O82  1  0.67171000  0.59460000  0.58678000  1
  O  O83  1  0.67444000  0.61129000  0.45197000  1
  O  O84  1  0.84114000  0.43637000  0.48802000  1
  O  O85  1  0.20323000  0.08269000  0.08498000  1
  O  O86  1  0.53550000  0.11131000  0.95196000  1
  O  O87  1  0.71108000  0.91739000  0.91500000  1
  O  O88  1  0.53263000  0.09463000  0.08677000  1
  O  O89  1  0.70819000  0.90059000  0.05077000  1
  O  O90  1  0.20612000  0.09949000  0.94921000  1
  O  O91  1  0.37536000  0.93643000  0.98801000  1
  O  O92  1  0.03824000  0.88861000  0.04806000  1
  O  O93  1  0.04112000  0.90529000  0.91325000  1
  O  O94  1  0.87175000  0.06357000  0.01199000  1
  O  O95  1  0.69265000  0.58017000  0.97138000  1
  O  O96  1  0.90484000  0.69725000  0.95791000  1
  O  O97  1  0.87649000  0.54455000  0.20414000  1
