# generated using pymatgen
data_Ni2H30C30O9F8
_symmetry_space_group_name_H-M   'P 1'
_cell_length_a   7.95250000
_cell_length_b   19.09340000
_cell_length_c   37.04438200
_cell_angle_alpha   91.80308260
_cell_angle_beta   90.88081627
_cell_angle_gamma   95.66240000
_symmetry_Int_Tables_number   1
_chemical_formula_structural   Ni2H30C30O9F8
_chemical_formula_sum   'Ni8 H120 C120 O36 F32'
_cell_volume   5593.64569350
_cell_formula_units_Z   4
loop_
 _symmetry_equiv_pos_site_id
 _symmetry_equiv_pos_as_xyz
  1  'x, y, z'
loop_
 _atom_site_type_symbol
 _atom_site_label
 _atom_site_symmetry_multiplicity
 _atom_site_fract_x
 _atom_site_fract_y
 _atom_site_fract_z
 _atom_site_occupancy
  Ni  Ni1  1  0.77571000  0.38267000  0.64173000  1.0
  Ni  Ni2  1  0.63122000  0.22712000  0.63581000  1.0
  Ni  Ni3  1  0.24003000  0.13816000  0.12211000  1.0
  Ni  Ni4  1  0.01208000  0.25894000  0.13512000  1.0
  Ni  Ni5  1  0.75537000  0.85760000  0.84927000  1.0
  Ni  Ni6  1  0.79681000  0.70097000  0.86036000  1.0
  Ni  Ni7  1  0.35548000  0.62913000  0.36312000  1.0
  Ni  Ni8  1  0.45816000  0.78906000  0.37238000  1.0
  H  H1  1  0.88337000  0.28290000  0.66101000  1.0
  H  H2  1  0.88563000  0.28721000  0.61698000  1.0
  H  H3  1  0.19744000  0.20559000  0.17243000  1.0
  H  H4  1  0.30441000  0.25005000  0.14286000  1.0
  H  H5  1  0.61789000  0.75780000  0.82287000  1.0
  H  H6  1  0.56518000  0.76828000  0.86457000  1.0
  H  H7  1  0.23852000  0.72372000  0.34000000  1.0
  H  H8  1  0.20742000  0.71757000  0.38300000  1.0
  H  H9  1  0.51372000  0.30389000  0.74349000  1.0
  H  H10  1  0.32528000  0.29876000  0.71695000  1.0
  H  H11  1  0.35853000  0.46257000  0.65641000  1.0
  H  H12  1  0.27529000  0.37497000  0.66798000  1.0
  H  H13  1  0.14146000  0.44310000  0.67001000  1.0
  H  H14  1  0.23963000  0.62347000  0.71802000  1.0
  H  H15  1  0.27734000  0.57133000  0.67976000  1.0
  H  H16  1  0.07498000  0.55742000  0.70148000  1.0
  H  H17  1  0.20235000  0.62926000  0.77558000  1.0
  H  H18  1  0.20748000  0.58523000  0.81533000  1.0
  H  H19  1  0.44685000  0.53952000  0.83725000  1.0
  H  H20  1  0.26183000  0.47725000  0.84198000  1.0
  H  H21  1  0.46600000  0.44722000  0.84118000  1.0
  H  H22  1  0.50004000  0.38457000  0.78860000  1.0
  H  H23  1  0.76166000  0.02148000  0.10760000  1.0
  H  H24  1  0.64249000  0.08763000  0.12366000  1.0
  H  H25  1  0.91100000  0.87878000  0.14650000  1.0
  H  H26  1  0.95761000  0.96012000  0.12556000  1.0
  H  H27  1  0.07210000  0.94428000  0.16558000  1.0
  H  H28  1  0.91688000  0.88114000  0.25044000  1.0
  H  H29  1  0.78769000  0.82143000  0.21984000  1.0
  H  H30  1  0.98637000  0.86360000  0.20667000  1.0
  H  H31  1  0.61325000  0.86042000  0.26467000  1.0
  H  H32  1  0.45042000  0.91333000  0.26865000  1.0
  H  H33  1  0.30336000  0.99257000  0.24247000  1.0
  H  H34  1  0.45044000  0.05514000  0.26788000  1.0
  H  H35  1  0.35209000  0.07959000  0.22707000  1.0
  H  H36  1  0.53024000  0.08746000  0.17968000  1.0
  H  H37  1  0.16844000  0.75662000  0.77964000  1.0
  H  H38  1  0.28168000  0.79849000  0.81706000  1.0
  H  H39  1  0.12904000  0.96110000  0.85041000  1.0
  H  H40  1  0.27096000  0.89437000  0.84998000  1.0
  H  H41  1  0.35431000  0.98272000  0.84479000  1.0
  H  H42  1  0.17681000  0.11565000  0.78242000  1.0
  H  H43  1  0.10637000  0.06591000  0.81929000  1.0
  H  H44  1  0.33066000  0.08439000  0.81178000  1.0
  H  H45  1  0.06997000  0.09245000  0.72931000  1.0
  H  H46  1  0.11131000  0.04920000  0.68960000  1.0
  H  H47  1  0.97305000  0.94313000  0.67798000  1.0
  H  H48  1  0.18856000  0.93492000  0.66390000  1.0
  H  H49  1  0.05439000  0.85964000  0.67567000  1.0
  H  H50  1  0.13759000  0.81632000  0.72824000  1.0
  H  H51  1  0.62818000  0.26018000  0.20174000  1.0
  H  H52  1  0.56042000  0.30828000  0.16604000  1.0
  H  H53  1  0.51844000  0.28315000  0.25950000  1.0
  H  H54  1  0.74551000  0.28041000  0.25796000  1.0
  H  H55  1  0.65699000  0.32251000  0.29510000  1.0
  H  H56  1  0.52615000  0.49829000  0.30894000  1.0
  H  H57  1  0.46363000  0.40789000  0.30266000  1.0
  H  H58  1  0.67619000  0.43739000  0.31861000  1.0
  H  H59  1  0.50056000  0.57684000  0.26975000  1.0
  H  H60  1  0.60794000  0.61938000  0.23577000  1.0
  H  H61  1  0.63211000  0.59407000  0.17670000  1.0
  H  H62  1  0.84558000  0.60528000  0.19569000  1.0
  H  H63  1  0.79920000  0.55376000  0.15498000  1.0
  H  H64  1  0.74256000  0.43380000  0.15912000  1.0
  H  H65  1  0.27509000  0.36157000  0.58228000  1.0
  H  H66  1  0.33955000  0.29036000  0.55479000  1.0
  H  H67  1  0.16465000  0.30966000  0.50754000  1.0
  H  H68  1  0.08438000  0.37873000  0.53464000  1.0
  H  H69  1  0.07209000  0.37836000  0.48667000  1.0
  H  H70  1  0.29762000  0.51290000  0.43564000  1.0
  H  H71  1  0.19978000  0.42722000  0.44045000  1.0
  H  H72  1  0.15189000  0.50083000  0.46992000  1.0
  H  H73  1  0.55419000  0.53432000  0.43125000  1.0
  H  H74  1  0.74549000  0.54386000  0.45315000  1.0
  H  H75  1  0.89951000  0.46837000  0.48662000  1.0
  H  H76  1  0.87531000  0.55160000  0.50980000  1.0
  H  H77  1  0.92081000  0.47733000  0.53488000  1.0
  H  H78  1  0.70088000  0.41040000  0.55828000  1.0
  H  H79  1  0.15948000  0.25806000  0.01876000  1.0
  H  H80  1  0.93949000  0.24521000  0.02560000  1.0
  H  H81  1  0.29594000  0.23159000  0.96551000  1.0
  H  H82  1  0.38149000  0.19295000  0.00515000  1.0
  H  H83  1  0.41996000  0.15807000  0.96183000  1.0
  H  H84  1  0.18163000  0.02445000  0.90567000  1.0
  H  H85  1  0.25567000  0.11323000  0.91171000  1.0
  H  H86  1  0.35872000  0.04732000  0.93579000  1.0
  H  H87  1  0.93782000  0.96919000  0.91353000  1.0
  H  H88  1  0.81210000  0.93169000  0.94676000  1.0
  H  H89  1  0.62125000  0.98562000  0.98045000  1.0
  H  H90  1  0.75576000  0.93840000  0.00919000  1.0
  H  H91  1  0.65145000  0.01012000  0.02732000  1.0
  H  H92  1  0.81072000  0.11707000  0.03386000  1.0
  H  H93  1  0.39124000  0.96868000  0.40687000  1.0
  H  H94  1  0.54661000  0.95346000  0.43955000  1.0
  H  H95  1  0.04699000  0.03036000  0.40349000  1.0
  H  H96  1  0.10953000  0.94295000  0.40423000  1.0
  H  H97  1  0.92439000  0.96113000  0.42689000  1.0
  H  H98  1  0.88658000  0.12318000  0.49032000  1.0
  H  H99  1  0.92188000  0.10083000  0.44516000  1.0
  H  H100  1  0.80869000  0.03684000  0.47311000  1.0
  H  H101  1  0.03944000  0.15171000  0.53765000  1.0
  H  H102  1  0.17089000  0.11878000  0.56888000  1.0
  H  H103  1  0.44615000  0.09082000  0.56716000  1.0
  H  H104  1  0.30615000  0.01610000  0.58142000  1.0
  H  H105  1  0.50391000  0.00243000  0.56205000  1.0
  H  H106  1  0.50630000  0.97208000  0.50175000  1.0
  H  H107  1  0.83512000  0.64300000  0.94067000  1.0
  H  H108  1  0.78834000  0.55944000  0.91868000  1.0
  H  H109  1  0.75557000  0.71568000  0.01596000  1.0
  H  H110  1  0.65831000  0.71002000  0.97170000  1.0
  H  H111  1  0.52815000  0.71074000  0.00982000  1.0
  H  H112  1  0.55191000  0.59972000  0.09322000  1.0
  H  H113  1  0.67298000  0.66718000  0.07168000  1.0
  H  H114  1  0.44660000  0.65387000  0.06361000  1.0
  H  H115  1  0.58463000  0.48822000  0.09402000  1.0
  H  H116  1  0.51595000  0.41301000  0.06915000  1.0
  H  H117  1  0.67135000  0.36481000  0.02574000  1.0
  H  H118  1  0.45286000  0.36393000  0.01030000  1.0
  H  H119  1  0.61897000  0.36081000  0.97858000  1.0
  H  H120  1  0.68524000  0.46405000  0.95055000  1.0
  C  C1  1  0.88700000  0.14113000  0.61688000  1.0
  C  C2  1  0.55514000  0.32771000  0.68910000  1.0
  C  C3  1  0.51453000  0.32930000  0.59613000  1.0
  C  C4  1  0.54147000  0.14104000  0.66349000  1.0
  C  C5  1  0.25077000  0.37275000  0.11822000  1.0
  C  C6  1  0.90781000  0.11192000  0.13284000  1.0
  C  C7  1  0.09106000  0.21018000  0.06808000  1.0
  C  C8  1  0.81840000  0.29101000  0.16459000  1.0
  C  C9  1  0.58812000  0.62502000  0.91321000  1.0
  C  C10  1  0.00787000  0.79514000  0.81942000  1.0
  C  C11  1  0.90722000  0.80630000  0.90887000  1.0
  C  C12  1  0.85608000  0.61015000  0.83568000  1.0
  C  C13  1  0.35787000  0.86706000  0.43119000  1.0
  C  C14  1  0.60297000  0.69463000  0.32424000  1.0
  C  C15  1  0.56725000  0.69023000  0.41681000  1.0
  C  C16  1  0.52836000  0.88151000  0.34811000  1.0
  C  C17  1  0.44779000  0.33075000  0.72203000  1.0
  C  C18  1  0.40907000  0.40365000  0.73523000  1.0
  C  C19  1  0.32625000  0.45064000  0.71376000  1.0
  C  C20  1  0.27404000  0.43162000  0.67490000  1.0
  C  C21  1  0.28015000  0.51466000  0.72974000  1.0
  C  C22  1  0.21307000  0.56951000  0.70612000  1.0
  C  C23  1  0.28416000  0.52415000  0.76804000  1.0
  C  C24  1  0.17433000  0.57598000  0.78634000  1.0
  C  C25  1  0.98237000  0.55105000  0.78166000  1.0
  C  C26  1  0.89033000  0.54167000  0.81791000  1.0
  C  C27  1  0.37039000  0.47773000  0.78897000  1.0
  C  C28  1  0.38709000  0.48605000  0.82956000  1.0
  C  C29  1  0.43724000  0.42032000  0.77207000  1.0
  C  C30  1  0.75399000  0.05938000  0.13068000  1.0
  C  C31  1  0.72482000  0.02168000  0.16584000  1.0
  C  C32  1  0.81437000  0.96448000  0.17643000  1.0
  C  C33  1  0.94554000  0.93591000  0.15215000  1.0
  C  C34  1  0.77526000  0.93148000  0.20975000  1.0
  C  C35  1  0.87162000  0.87136000  0.22218000  1.0
  C  C36  1  0.64024000  0.95315000  0.23104000  1.0
  C  C37  1  0.58950000  0.91664000  0.26599000  1.0
  C  C38  1  0.68046000  0.95351000  0.29985000  1.0
  C  C39  1  0.56765333  0.95339000  0.33333333  1.0
  C  C40  1  0.55220000  0.00998000  0.21963000  1.0
  C  C41  1  0.40691000  0.03559000  0.24051000  1.0
  C  C42  1  0.59773000  0.04372000  0.18787000  1.0
  C  C43  1  0.17096000  0.80255000  0.79888000  1.0
  C  C44  1  0.19174000  0.87143000  0.77888000  1.0
  C  C45  1  0.21671000  0.93837000  0.79698000  1.0
  C  C46  1  0.24426000  0.94413000  0.83766000  1.0
  C  C47  1  0.20508000  0.00070000  0.77717000  1.0
  C  C48  1  0.20532000  0.07039000  0.79844000  1.0
  C  C49  1  0.18073000  0.99588000  0.73872000  1.0
  C  C50  1  0.16669000  0.06175000  0.71681000  1.0
  C  C51  1  0.33211000  0.11077000  0.71194000  1.0
  C  C52  1  0.46032000  0.08220000  0.68508000  1.0
  C  C53  1  0.14987000  0.92786000  0.72158000  1.0
  C  C54  1  0.08885000  0.91630000  0.68270000  1.0
  C  C55  1  0.16157000  0.86768000  0.74164000  1.0
  C  C56  1  0.66613000  0.30638000  0.18537000  1.0
  C  C57  1  0.68788000  0.37589000  0.20684000  1.0
  C  C58  1  0.65805000  0.38036000  0.24438000  1.0
  C  C59  1  0.64296000  0.31327000  0.26553000  1.0
  C  C60  1  0.63444000  0.44691000  0.26120000  1.0
  C  C61  1  0.57256000  0.44830000  0.29981000  1.0
  C  C62  1  0.66014000  0.50973000  0.24100000  1.0
  C  C63  1  0.62605000  0.58176000  0.25724000  1.0
  C  C64  1  0.76934000  0.61583000  0.28305000  1.0
  C  C65  1  0.74107000  0.69159000  0.29670000  1.0
  C  C66  1  0.70900000  0.50408000  0.20434000  1.0
  C  C67  1  0.74839000  0.56788000  0.18171000  1.0
  C  C68  1  0.71756000  0.43771000  0.18777000  1.0
  C  C69  1  0.38408000  0.34199000  0.56807000  1.0
  C  C70  1  0.44233000  0.39269000  0.53880000  1.0
  C  C71  1  0.32814000  0.40716000  0.51083000  1.0
  C  C72  1  0.15308000  0.36703000  0.50970000  1.0
  C  C73  1  0.38017000  0.45689000  0.48420000  1.0
  C  C74  1  0.25223000  0.47526000  0.45601000  1.0
  C  C75  1  0.54994000  0.48893000  0.48488000  1.0
  C  C76  1  0.60963000  0.54555000  0.45854000  1.0
  C  C77  1  0.57744000  0.61966000  0.47335000  1.0
  C  C78  1  0.66447000  0.67932000  0.45094000  1.0
  C  C79  1  0.66459000  0.46976000  0.51168000  1.0
  C  C80  1  0.85049000  0.49361000  0.51094000  1.0
  C  C81  1  0.60931000  0.42361000  0.53835000  1.0
  C  C82  1  0.05869000  0.21995000  0.02877000  1.0
  C  C83  1  0.04042000  0.15098000  0.00714000  1.0
  C  C84  1  0.15883000  0.13404000  0.98106000  1.0
  C  C85  1  0.32254000  0.18158000  0.97794000  1.0
  C  C86  1  0.12228000  0.07308000  0.95822000  1.0
  C  C87  1  0.23531000  0.06321000  0.92627000  1.0
  C  C88  1  0.97803000  0.02460000  0.96495000  1.0
  C  C89  1  0.94178000  0.95634000  0.94245000  1.0
  C  C90  1  0.06915000  0.90136000  0.94996000  1.0
  C  C91  1  0.98749000  0.82465000  0.94558000  1.0
  C  C92  1  0.86766000  0.04039000  0.99327000  1.0
  C  C93  1  0.71571000  0.99091000  0.00303000  1.0
  C  C94  1  0.89811000  0.10396000  0.01307000  1.0
  C  C95  1  0.40860000  0.94493000  0.43347000  1.0
  C  C96  1  0.31140000  0.98135000  0.46218000  1.0
  C  C97  1  0.15139000  0.00528000  0.45540000  1.0
  C  C98  1  0.05398000  0.98398000  0.42055000  1.0
  C  C99  1  0.07940000  0.04847000  0.48194000  1.0
  C  C100  1  0.91549000  0.07883000  0.47251000  1.0
  C  C101  1  0.15932000  0.06075000  0.51673000  1.0
  C  C102  1  0.07740000  0.10097000  0.54722000  1.0
  C  C103  1  0.92472000  0.05650000  0.56349000  1.0
  C  C104  1  0.91149000  0.06684000  0.60480000  1.0
  C  C105  1  0.31182000  0.03027000  0.52384000  1.0
  C  C106  1  0.39676000  0.03540000  0.56066000  1.0
  C  C107  1  0.38725000  0.99326000  0.49634000  1.0
  C  C108  1  0.73233000  0.60032000  0.93529000  1.0
  C  C109  1  0.67412000  0.56958000  0.97119000  1.0
  C  C110  1  0.63650000  0.61199000  0.00163000  1.0
  C  C111  1  0.64598000  0.69133000  0.99951000  1.0
  C  C112  1  0.58929000  0.57996000  0.03469000  1.0
  C  C113  1  0.56294000  0.62715000  0.06754000  1.0
  C  C114  1  0.56588000  0.50510000  0.03643000  1.0
  C  C115  1  0.50018000  0.46974000  0.07076000  1.0
  C  C116  1  0.31193000  0.48048000  0.07954000  1.0
  C  C117  1  0.20075000  0.41037000  0.08479000  1.0
  C  C118  1  0.60348000  0.46357000  0.00554000  1.0
  C  C119  1  0.58563000  0.38394000  0.00510000  1.0
  C  C120  1  0.65805000  0.49635000  0.97391000  1.0
  O  O1  1  0.56902000  0.38045000  0.61941000  1.0
  O  O2  1  0.98745000  0.17276000  0.63833000  1.0
  O  O3  1  0.74431000  0.17190000  0.60459000  1.0
  O  O4  1  0.68752000  0.37409000  0.68598000  1.0
  O  O5  1  0.51264000  0.27840000  0.66547000  1.0
  O  O6  1  0.55760000  0.26736000  0.59784000  1.0
  O  O7  1  0.81280000  0.29160000  0.63891000  1.0
  O  O8  1  0.68219000  0.17840000  0.67255000  1.0
  O  O9  1  0.46629000  0.16219000  0.63523000  1.0
  O  O10  1  0.13828000  0.14977000  0.07882000  1.0
  O  O11  1  0.39981000  0.36858000  0.12482000  1.0
  O  O12  1  0.13084000  0.34643000  0.14329000  1.0
  O  O13  1  0.05583000  0.08890000  0.13907000  1.0
  O  O14  1  0.88752000  0.17632000  0.12734000  1.0
  O  O15  1  0.06096000  0.26057000  0.08950000  1.0
  O  O16  1  0.19926000  0.21711000  0.14597000  1.0
  O  O17  1  0.94205000  0.26195000  0.17907000  1.0
  O  O18  1  0.82930000  0.29952000  0.13015000  1.0
  O  O19  1  0.91775000  0.85401000  0.88388000  1.0
  O  O20  1  0.44465000  0.61593000  0.92487000  1.0
  O  O21  1  0.60570000  0.65301000  0.87857000  1.0
  O  O22  1  0.89675000  0.84057000  0.81360000  1.0
  O  O23  1  0.98452000  0.74549000  0.84189000  1.0
  O  O24  1  0.84240000  0.74332000  0.90266000  1.0
  O  O25  1  0.66579000  0.76861000  0.84815000  1.0
  O  O26  1  0.76220000  0.65268000  0.82046000  1.0
  O  O27  1  0.91152000  0.63048000  0.86779000  1.0
  O  O28  1  0.54147000  0.63823000  0.39258000  1.0
  O  O29  1  0.36264000  0.83234000  0.45830000  1.0
  O  O30  1  0.30248000  0.83411000  0.39814000  1.0
  O  O31  1  0.47903000  0.64350000  0.32362000  1.0
  O  O32  1  0.61258000  0.74729000  0.34674000  1.0
  O  O33  1  0.52244000  0.75107000  0.41190000  1.0
  O  O34  1  0.29723000  0.71701000  0.36390000  1.0
  O  O35  1  0.41082000  0.83562000  0.33477000  1.0
  O  O36  1  0.60186000  0.86246000  0.37709000  1.0
  F  F1  1  0.95837000  0.48669000  0.76283000  1.0
  F  F2  1  0.90615000  0.59914000  0.76121000  1.0
  F  F3  1  0.98040000  0.50410000  0.84142000  1.0
  F  F4  1  0.73717000  0.50297000  0.81110000  1.0
  F  F5  1  0.73351000  0.02310000  0.29293000  1.0
  F  F6  1  0.82286000  0.92045000  0.30818000  1.0
  F  F7  1  0.41753000  0.98111000  0.32536000  1.0
  F  F8  1  0.65188000  0.99639000  0.35999000  1.0
  F  F9  1  0.41580000  0.12699000  0.74459000  1.0
  F  F10  1  0.27970000  0.17298000  0.69957000  1.0
  F  F11  1  0.38162000  0.03279000  0.66084000  1.0
  F  F12  1  0.58366000  0.05085000  0.70375000  1.0
  F  F13  1  0.91954000  0.61946000  0.26445000  1.0
  F  F14  1  0.78854000  0.57476000  0.31264000  1.0
  F  F15  1  0.70251000  0.73165000  0.26781000  1.0
  F  F16  1  0.89127000  0.72217000  0.31235000  1.0
  F  F17  1  0.63958000  0.62852000  0.50854000  1.0
  F  F18  1  0.40510000  0.62553000  0.47422000  1.0
  F  F19  1  0.82673000  0.66549000  0.44215000  1.0
  F  F20  1  0.67736000  0.74118000  0.47193000  1.0
  F  F21  1  0.13328000  0.91117000  0.98498000  1.0
  F  F22  1  0.20353000  0.90966000  0.92669000  1.0
  F  F23  1  0.86642000  0.81377000  0.97166000  1.0
  F  F24  1  0.11071000  0.77962000  0.95151000  1.0
  F  F25  1  0.93713000  0.98538000  0.55651000  1.0
  F  F26  1  0.77721000  0.07347000  0.54719000  1.0
  F  F27  1  0.05485000  0.04603000  0.62134000  1.0
  F  F28  1  0.77398000  0.02364000  0.61626000  1.0
  F  F29  1  0.23954000  0.51527000  0.05186000  1.0
  F  F30  1  0.30680000  0.52176000  0.11086000  1.0
  F  F31  1  0.21523000  0.36750000  0.05457000  1.0
  F  F32  1  0.03312000  0.42373000  0.08730000  1.0
