# generated using pymatgen
data_H24C41(NO)4
_symmetry_space_group_name_H-M   'P 1'
_cell_length_a   25.16710000
_cell_length_b   52.28599030
_cell_length_c   52.28470000
_cell_angle_alpha   119.99955100
_cell_angle_beta   90.00000000
_cell_angle_gamma   89.67800179
_symmetry_Int_Tables_number   1
_chemical_formula_structural   H24C41(NO)4
_chemical_formula_sum   'H144 C246 N24 O24'
_cell_volume   59582.20691718
_cell_formula_units_Z   6
loop_
 _symmetry_equiv_pos_site_id
 _symmetry_equiv_pos_as_xyz
  1  'x, y, z'
loop_
 _atom_site_type_symbol
 _atom_site_label
 _atom_site_symmetry_multiplicity
 _atom_site_fract_x
 _atom_site_fract_y
 _atom_site_fract_z
 _atom_site_occupancy
  H  25  1  0.58959900  0.49673800  0.41608000  1
  H  26  1  0.63996000  0.49794900  0.37787200  1
  H  27  1  0.69552900  0.50800800  0.34553400  1
  H  28  1  0.75752200  0.52352700  0.32138600  1
  H  29  1  0.81731100  0.58850700  0.40414600  1
  H  30  1  0.67580700  0.56956400  0.48094900  1
  H  31  1  0.66842100  0.60994100  0.42519200  1
  H  32  1  0.72044000  0.69152400  0.49616400  1
  H  33  1  0.78285000  0.66619900  0.51039500  1
  H  34  1  0.81170800  0.53099700  0.44094900  1
  H  35  1  0.84042700  0.63299800  0.51799300  1
  H  36  1  0.89248800  0.59427000  0.51737100  1
  H  66  1  0.25679300  0.92510400  0.51258500  1
  H  67  1  0.30728900  0.88570200  0.51162800  1
  H  68  1  0.36310500  0.84332800  0.50185200  1
  H  69  1  0.42529000  0.80347900  0.48647300  1
  H  70  1  0.48601800  0.82055000  0.42107600  1
  H  71  1  0.34413500  0.91648400  0.43952400  1
  H  72  1  0.33668900  0.82092500  0.39971400  1
  H  73  1  0.39004900  0.80960900  0.31790000  1
  H  74  1  0.45282700  0.84862900  0.34299200  1
  H  75  1  0.47913500  0.91518900  0.47824700  1
  H  76  1  0.51027200  0.88920400  0.37604500  1
  H  77  1  0.56134000  0.92746600  0.41465900  1
  H  107  1  0.92199000  0.59622400  0.08759500  1
  H  108  1  0.97199500  0.63438900  0.12701600  1
  H  109  1  0.02783500  0.66666667  0.16914767  1
  H  110  1  0.09031900  0.69078900  0.20854000  1
  H  111  1  0.15109000  0.60795800  0.19098800  1
  H  112  1  0.00950500  0.53127600  0.09557700  1
  H  113  1  0.00140300  0.58672300  0.19138900  1
  H  114  1  0.05480400  0.51559800  0.20185700  1
  H  115  1  0.11765700  0.50161700  0.16259800  1
  H  116  1  0.14465700  0.57119900  0.09701400  1
  H  117  1  0.17529200  0.49414500  0.12196600  1
  H  118  1  0.22696800  0.49476200  0.08388000  1
  H  148  1  0.08967500  0.51305500  0.59430600  1
  H  149  1  0.13995600  0.51203700  0.63265100  1
  H  150  1  0.19581600  0.50229000  0.66515200  1
  H  151  1  0.25816800  0.48700400  0.68949700  1
  H  152  1  0.31899100  0.42138300  0.60689900  1
  H  153  1  0.17725500  0.43986000  0.52969600  1
  H  154  1  0.16942800  0.40000800  0.58541600  1
  H  155  1  0.22295900  0.31818400  0.51465800  1
  H  156  1  0.28587500  0.34323300  0.50068000  1
  H  157  1  0.31231500  0.47840800  0.56957800  1
  H  158  1  0.34330500  0.37621200  0.49304300  1
  H  159  1  0.39461100  0.41476100  0.49340800  1
  H  189  1  0.75611500  0.08689600  0.49584100  1
  H  190  1  0.80651600  0.12618800  0.49710400  1
  H  191  1  0.86213400  0.16846100  0.50719400  1
  H  192  1  0.92424400  0.20795000  0.52272700  1
  H  193  1  0.98332900  0.19050800  0.58824700  1
  H  194  1  0.84159200  0.09512900  0.56921700  1
  H  195  1  0.83427200  0.19108900  0.60961000  1
  H  196  1  0.88664400  0.20140900  0.69115900  1
  H  197  1  0.94919900  0.16184800  0.66582100  1
  H  198  1  0.97766700  0.09634900  0.53066700  1
  H  199  1  0.00687900  0.12106100  0.63263000  1
  H  200  1  0.05900400  0.08298800  0.59389100  1
  H  230  1  0.42384400  0.41791400  0.92558400  1
  H  231  1  0.47448600  0.37954500  0.88620000  1
  H  232  1  0.53016700  0.34703700  0.84374800  1
  H  233  1  0.59209100  0.32267400  0.80384500  1
  H  234  1  0.65189400  0.40522500  0.82111400  1
  H  235  1  0.51016100  0.48249200  0.91711600  1
  H  236  1  0.50304000  0.42653100  0.82124800  1
  H  237  1  0.55493400  0.49728500  0.81021500  1
  H  238  1  0.61743700  0.51148200  0.84952600  1
  H  239  1  0.64596100  0.44254300  0.91578600  1
  H  240  1  0.67489200  0.51917500  0.89026000  1
  H  241  1  0.72658700  0.51877800  0.92844800  1
  H  253  1  0.92218300  0.51597600  0.28064000  1
  H  255  1  0.89494400  0.61055200  0.28680200  1
  H  257  1  0.86721800  0.61909000  0.34420500  1
  H  258  1  0.94463700  0.50728100  0.22350500  1
  H  260  1  0.94437900  0.59283600  0.24020400  1
  H  262  1  0.85462100  0.52717700  0.31557100  1
  H  269  1  0.58997300  0.77028500  0.49431700  1
  H  271  1  0.56305600  0.68123400  0.40049200  1
  H  273  1  0.53599200  0.72979600  0.39119400  1
  H  274  1  0.61170000  0.72233900  0.50387200  1
  H  276  1  0.61222400  0.65258000  0.41855100  1
  H  278  1  0.52282000  0.79406500  0.48284400  1
  H  285  1  0.25613400  0.73046900  0.24012600  1
  H  287  1  0.23011900  0.72626100  0.32960300  1
  H  289  1  0.20149800  0.66874200  0.28153100  1
  H  290  1  0.27953800  0.78774200  0.28777700  1
  H  292  1  0.28012200  0.77247200  0.35763400  1
  H  294  1  0.18755100  0.69624600  0.21735200  1
  H  301  1  0.42357000  0.49499300  0.72970300  1
  H  303  1  0.39703900  0.40161100  0.72592100  1
  H  305  1  0.36921200  0.39190700  0.66810600  1
  H  306  1  0.44614300  0.50496700  0.78718800  1
  H  308  1  0.44687400  0.41980300  0.77225500  1
  H  310  1  0.35565800  0.48346000  0.69500700  1
  H  317  1  0.08940100  0.24032400  0.51533000  1
  H  319  1  0.06238100  0.32926200  0.60948400  1
  H  321  1  0.03397400  0.28078400  0.61838100  1
  H  322  1  0.11260600  0.28836000  0.50624600  1
  H  324  1  0.11234400  0.35766800  0.59161300  1
  H  326  1  0.02143000  0.21706400  0.52658900  1
  H  333  1  0.75604500  0.28128800  0.76999900  1
  H  335  1  0.72881800  0.28730000  0.68156700  1
  H  337  1  0.70211900  0.34500400  0.73056800  1
  H  338  1  0.77744100  0.22393500  0.72157100  1
  H  340  1  0.77763700  0.24041200  0.65250800  1
  H  342  1  0.68961300  0.31689800  0.79422800  1
  H  349  1  0.94956800  0.47486500  0.52061400  1
  H  351  1  0.04109500  0.53589600  0.48969400  1
  H  353  1  0.12282200  0.50121600  0.49581900  1
  H  354  1  0.87183300  0.51160700  0.51808000  1
  H  356  1  0.95852000  0.55431400  0.48434900  1
  H  358  1  0.02722700  0.48242300  0.55209200  1
  H  365  1  0.61323100  0.05174700  0.53035500  1
  H  367  1  0.70827300  0.95908300  0.47680200  1
  H  369  1  0.77595200  0.00278200  0.47875700  1
  H  370  1  0.53988300  0.00685500  0.52523500  1
  H  372  1  0.62639200  0.93584700  0.45482700  1
  H  374  1  0.69278400  0.07531800  0.52583800  1
  H  381  1  0.28278800  0.49188700  0.96127000  1
  H  383  1  0.37462400  0.52214800  0.05310300  1
  H  385  1  0.45610500  0.51604400  0.01235900  1
  H  386  1  0.20530800  0.49440100  0.00046900  1
  H  388  1  0.29224100  0.52771800  0.07690600  1
  H  390  1  0.36073300  0.46022700  0.93723500  1
  H  397  1  0.44885300  0.53458500  0.49007900  1
  H  399  1  0.54183800  0.47286500  0.52012000  1
  H  401  1  0.62280700  0.50749900  0.51404000  1
  H  402  1  0.37180700  0.49788300  0.49263300  1
  H  404  1  0.45975300  0.45472200  0.52586600  1
  H  406  1  0.52651200  0.52698800  0.45838000  1
  H  413  1  0.11648400  0.96070100  0.47394700  1
  H  415  1  0.20745000  0.05248800  0.53594500  1
  H  417  1  0.28947200  0.01179700  0.50140000  1
  H  418  1  0.03840500  0.99978400  0.51049100  1
  H  420  1  0.12487600  0.07635100  0.55392800  1
  H  422  1  0.19416300  0.93666100  0.48177200  1
  H  429  1  0.78219000  0.52258700  0.05161400  1
  H  431  1  0.87485200  0.49163700  0.95967900  1
  H  433  1  0.95605200  0.49774400  0.00048100  1
  H  434  1  0.70492800  0.52001300  0.01224900  1
  H  436  1  0.79257500  0.48621900  0.93586800  1
  H  438  1  0.85964800  0.55403500  0.07556300  1
  C  1  1  0.78743100  0.57541800  0.45723500  1
  C  2  1  0.79626300  0.60456500  0.47962400  1
  C  3  1  0.76143900  0.62332400  0.47634200  1
  C  4  1  0.72855700  0.60676900  0.45200200  1
  C  5  1  0.69169900  0.62170700  0.44336500  1
  C  6  1  0.68864400  0.65305200  0.45949200  1
  C  7  1  0.72179100  0.66892100  0.48429200  1
  C  8  1  0.75829800  0.65428000  0.49286200  1
  C  9  1  0.83498400  0.61171600  0.50146700  1
  C  10  1  0.86551400  0.58889700  0.50082100  1
  C  11  1  0.85881100  0.55907700  0.47831400  1
  C  12  1  0.81856600  0.55241900  0.45677400  1
  C  13  1  0.69746400  0.55553400  0.43665200  1
  C  14  1  0.68670000  0.53469500  0.40717100  1
  C  15  1  0.72124100  0.53873400  0.38886100  1
  C  16  1  0.75605500  0.56182700  0.40605400  1
  C  17  1  0.72208300  0.52427100  0.35787800  1
  C  18  1  0.75859100  0.53350400  0.34392400  1
  C  19  1  0.79517800  0.55653000  0.36040800  1
  C  20  1  0.79295600  0.57102700  0.39175600  1
  C  21  1  0.66734400  0.55494000  0.45934000  1
  C  22  1  0.62610800  0.53391900  0.45213800  1
  C  23  1  0.61720900  0.51302100  0.42195500  1
  C  24  1  0.64675700  0.51344000  0.39942200  1
  C  37  1  0.74260000  0.57472000  0.43804200  1
  C  42  1  0.45603300  0.88669500  0.43384600  1
  C  43  1  0.46551000  0.87965400  0.40463200  1
  C  44  1  0.43088500  0.85770800  0.38595800  1
  C  45  1  0.39752300  0.85025900  0.40263400  1
  C  46  1  0.36039900  0.82703200  0.38784000  1
  C  47  1  0.35759000  0.81176800  0.35649600  1
  C  48  1  0.39128500  0.82033200  0.34050000  1
  C  49  1  0.42804400  0.84320700  0.35500300  1
  C  50  1  0.50437900  0.89414500  0.39737500  1
  C  51  1  0.53436300  0.91640700  0.42013700  1
  C  52  1  0.52697300  0.92405100  0.45004000  1
  C  53  1  0.48659400  0.90934000  0.45678300  1
  C  54  1  0.36571100  0.88640400  0.45383800  1
  C  55  1  0.35464500  0.87796400  0.47481500  1
  C  56  1  0.38920700  0.85554800  0.47086400  1
  C  57  1  0.42424900  0.84935300  0.44764800  1
  C  58  1  0.38982700  0.83919200  0.48549600  1
  C  59  1  0.42646600  0.81591000  0.47635700  1
  C  60  1  0.46338000  0.80912800  0.45326400  1
  C  61  1  0.46138200  0.82581200  0.43859100  1
  C  62  1  0.33551700  0.90966100  0.45426900  1
  C  63  1  0.29395800  0.92365300  0.47529300  1
  C  64  1  0.28472700  0.91457500  0.49633100  1
  C  65  1  0.31437000  0.89165700  0.49607400  1
  C  78  1  0.41111700  0.86841100  0.43465900  1
  C  83  1  0.12103000  0.55492300  0.12514500  1
  C  84  1  0.13043500  0.53254500  0.13192200  1
  C  85  1  0.09567900  0.53580400  0.15391300  1
  C  86  1  0.06230600  0.56013400  0.16166700  1
  C  87  1  0.02515700  0.56861100  0.18505700  1
  C  88  1  0.02232400  0.55235000  0.20013600  1
  C  89  1  0.05604300  0.52759700  0.19126100  1
  C  90  1  0.09283800  0.51918600  0.16823900  1
  C  91  1  0.16943900  0.51067300  0.11721000  1
  C  92  1  0.19975300  0.51132300  0.09505700  1
  C  93  1  0.19252600  0.53384400  0.08775300  1
  C  94  1  0.15192800  0.55537600  0.10261500  1
  C  95  1  0.03066000  0.57555500  0.12580400  1
  C  96  1  0.01939500  0.60504600  0.13445300  1
  C  97  1  0.05384600  0.62332400  0.15677500  1
  C  98  1  0.08896400  0.60610200  0.16272400  1
  C  99  1  0.05455300  0.65430900  0.17314400  1
  C  100  1  0.09139200  0.66823300  0.19613100  1
  C  101  1  0.12847600  0.65171700  0.20261300  1
  C  102  1  0.12629500  0.62036700  0.18596900  1
  C  103  1  0.00072400  0.55289300  0.10254000  1
  C  104  1  0.95925400  0.56013500  0.08870200  1
  C  105  1  0.94983900  0.59032500  0.09799100  1
  C  106  1  0.97920800  0.61282800  0.12092500  1
  C  119  1  0.07596200  0.57412400  0.14362200  1
  C  124  1  0.28901100  0.43404900  0.55358500  1
  C  125  1  0.29850700  0.40483500  0.53135100  1
  C  126  1  0.26383000  0.38620500  0.53467400  1
  C  127  1  0.23035400  0.40290600  0.55887300  1
  C  128  1  0.19324100  0.38812400  0.56738400  1
  C  129  1  0.19040800  0.35678800  0.55123300  1
  C  130  1  0.22419900  0.34077800  0.52658600  1
  C  131  1  0.26102900  0.35525600  0.51817600  1
  C  132  1  0.33743600  0.39753500  0.50949400  1
  C  133  1  0.36752300  0.42025800  0.50998600  1
  C  134  1  0.36019200  0.45014700  0.53234700  1
  C  135  1  0.31970200  0.45694400  0.55388100  1
  C  136  1  0.19861700  0.45416000  0.57404800  1
  C  137  1  0.18742800  0.47515600  0.60348600  1
  C  138  1  0.22190600  0.47116200  0.62188000  1
  C  139  1  0.25701200  0.44789600  0.60478600  1
  C  140  1  0.22254600  0.48587700  0.65287000  1
  C  141  1  0.25929700  0.47679900  0.66694100  1
  C  142  1  0.29634600  0.45369400  0.65056100  1
  C  143  1  0.29426800  0.43890900  0.61920300  1
  C  144  1  0.16855700  0.45463200  0.55128000  1
  C  145  1  0.12697500  0.47570500  0.55838500  1
  C  146  1  0.11762500  0.49676800  0.58852300  1
  C  147  1  0.14715200  0.49647800  0.61112800  1
  C  160  1  0.24399100  0.43491000  0.57276800  1
  C  165  1  0.95351700  0.12443300  0.57508400  1
  C  166  1  0.96247200  0.13111900  0.60421900  1
  C  167  1  0.92765200  0.15319100  0.62296400  1
  C  168  1  0.89454700  0.16101000  0.60640800  1
  C  169  1  0.85767900  0.18463100  0.62136300  1
  C  170  1  0.85467700  0.19976500  0.65270600  1
  C  171  1  0.88795000  0.19073800  0.66855800  1
  C  172  1  0.92457800  0.16754300  0.65391200  1
  C  173  1  0.00130800  0.11634200  0.61135500  1
  C  174  1  0.03189600  0.09420600  0.58853700  1
  C  175  1  0.02507400  0.08699000  0.55873500  1
  C  176  1  0.98461700  0.10188900  0.55208100  1
  C  177  1  0.86351100  0.12520000  0.55506800  1
  C  178  1  0.85294200  0.13374000  0.53409900  1
  C  179  1  0.88741600  0.15606800  0.53822500  1
  C  180  1  0.92203200  0.16203700  0.56149600  1
  C  181  1  0.88849200  0.17244900  0.52362300  1
  C  182  1  0.92511800  0.19550700  0.53283900  1
  C  183  1  0.96157700  0.20207800  0.55601000  1
  C  184  1  0.95905300  0.18540500  0.57068000  1
  C  185  1  0.83334000  0.10199900  0.55445400  1
  C  186  1  0.79227500  0.08814600  0.53326500  1
  C  187  1  0.78362900  0.09730400  0.51221800  1
  C  188  1  0.81323000  0.12016900  0.51265400  1
  C  201  1  0.90857300  0.14297300  0.57437300  1
  C  206  1  0.62206600  0.45854300  0.88740600  1
  C  207  1  0.63092600  0.48083400  0.88049900  1
  C  208  1  0.59619500  0.47748900  0.85848700  1
  C  209  1  0.56327100  0.45324700  0.85091500  1
  C  210  1  0.52635700  0.44463000  0.82748800  1
  C  211  1  0.52322600  0.46070100  0.81221700  1
  C  212  1  0.55638100  0.48542800  0.82095900  1
  C  213  1  0.59297700  0.49395900  0.84400600  1
  C  214  1  0.66948400  0.50269700  0.89509500  1
  C  215  1  0.69979900  0.50218500  0.91732700  1
  C  216  1  0.69307400  0.47979200  0.92480900  1
  C  217  1  0.65293000  0.45825800  0.91004300  1
  C  218  1  0.53207900  0.43812800  0.88702000  1
  C  219  1  0.52137400  0.40869500  0.87855300  1
  C  220  1  0.55595100  0.39027900  0.85613800  1
  C  221  1  0.59075600  0.40735700  0.85003200  1
  C  222  1  0.55678600  0.35929300  0.83971600  1
  C  223  1  0.59321900  0.34521300  0.81637300  1
  C  224  1  0.62978500  0.36157700  0.80961600  1
  C  225  1  0.62760500  0.39292900  0.82638900  1
  C  226  1  0.50180000  0.46091000  0.91027300  1
  C  227  1  0.46047600  0.45382300  0.92421800  1
  C  228  1  0.45159900  0.42368600  0.91510100  1
  C  229  1  0.48134100  0.40106900  0.89219500  1
  C  242  1  0.57727300  0.43937900  0.86906800  1
  C  247  1  0.90161300  0.59056900  0.28544400  1
  C  248  1  0.87730700  0.58524600  0.30676400  1
  C  249  1  0.88395000  0.55765900  0.30553200  1
  C  250  1  0.91671900  0.53636400  0.28269200  1
  C  251  1  0.94040800  0.54149700  0.26127400  1
  C  252  1  0.93346100  0.56898500  0.26219500  1
  C  259  1  0.95550700  0.57501100  0.24104300  1
  C  261  1  0.85577900  0.54883300  0.32293300  1
  C  263  1  0.56965600  0.69998600  0.42031300  1
  C  264  1  0.54558500  0.72665700  0.42530900  1
  C  265  1  0.55214100  0.75319800  0.45267200  1
  C  266  1  0.58459300  0.75180300  0.47407600  1
  C  267  1  0.60802900  0.72523100  0.46927800  1
  C  268  1  0.60115000  0.69847800  0.44202200  1
  C  275  1  0.62296000  0.67128100  0.43632400  1
  C  277  1  0.52407600  0.77951800  0.46124300  1
  C  279  1  0.23654800  0.72719600  0.31074900  1
  C  280  1  0.21179300  0.70579100  0.28437900  1
  C  281  1  0.21804800  0.70646700  0.25772700  1
  C  282  1  0.25093200  0.72882800  0.25869900  1
  C  283  1  0.27509100  0.75033000  0.28497700  1
  C  284  1  0.26849100  0.74998500  0.31184400  1
  C  291  1  0.29092200  0.77127300  0.33878700  1
  C  293  1  0.18933100  0.68902400  0.23175400  1
  C  295  1  0.40356700  0.42133800  0.72677500  1
  C  296  1  0.37916200  0.42618700  0.70513800  1
  C  297  1  0.38557900  0.45342400  0.70568200  1
  C  298  1  0.41826100  0.47484300  0.72815600  1
  C  299  1  0.44205100  0.47018700  0.74989000  1
  C  300  1  0.43529200  0.44306800  0.74967800  1
  C  307  1  0.45740800  0.43751900  0.77116900  1
  C  309  1  0.35718800  0.46186900  0.68798300  1
  C  311  1  0.06900900  0.31052300  0.58959100  1
  C  312  1  0.04441300  0.28405000  0.58439800  1
  C  313  1  0.05096900  0.25754600  0.55693200  1
  C  314  1  0.08396900  0.25877400  0.53563400  1
  C  315  1  0.10796500  0.28515600  0.54063700  1
  C  316  1  0.10109100  0.31187200  0.56799600  1
  C  323  1  0.12339800  0.33890100  0.57388200  1
  C  325  1  0.02255400  0.23146900  0.54821800  1
  C  327  1  0.73546700  0.28596400  0.70018800  1
  C  328  1  0.71154800  0.30751400  0.72695800  1
  C  329  1  0.71820900  0.30634100  0.75332700  1
  C  330  1  0.75058600  0.28330800  0.75165600  1
  C  331  1  0.77387000  0.26165600  0.72498400  1
  C  332  1  0.76691700  0.26252900  0.69840900  1
  C  339  1  0.78862400  0.24118000  0.67112900  1
  C  341  1  0.69041700  0.32402300  0.77973600  1
  C  343  1  0.02128700  0.52206600  0.49495400  1
  C  344  1  0.05096900  0.50840000  0.50781600  1
  C  345  1  0.02532400  0.49088200  0.51779700  1
  C  346  1  0.96980200  0.48673700  0.51305500  1
  C  347  1  0.94003800  0.50071700  0.50049100  1
  C  348  1  0.96531700  0.51908700  0.49138700  1
  C  355  1  0.93784700  0.53782500  0.48379500  1
  C  357  1  0.04999600  0.48246400  0.53650300  1
  C  359  1  0.68761400  0.97842300  0.48906800  1
  C  360  1  0.71671000  0.00501800  0.50210700  1
  C  361  1  0.69022700  0.03270100  0.51780600  1
  C  362  1  0.63411600  0.03225700  0.52013800  1
  C  363  1  0.60497600  0.00566400  0.50678300  1
  C  364  1  0.63127800  0.97800000  0.49020200  1
  C  371  1  0.60493100  0.95150700  0.47131900  1
  C  373  1  0.71520700  0.05965200  0.52607200  1
  C  375  1  0.35473300  0.51702600  0.03404500  1
  C  376  1  0.38437900  0.50421100  0.00751200  1
  C  377  1  0.35865400  0.49442400  0.98004200  1
  C  378  1  0.30306900  0.49930600  0.98068300  1
  C  379  1  0.27333900  0.51182300  0.00723200  1
  C  380  1  0.29871800  0.52072600  0.03466500  1
  C  387  1  0.27136000  0.52831700  0.06099600  1
  C  389  1  0.38336600  0.47575800  0.95288200  1
  C  391  1  0.52170000  0.48682000  0.51503200  1
  C  392  1  0.55100800  0.50056600  0.50222900  1
  C  393  1  0.52495400  0.51830400  0.49251300  1
  C  394  1  0.46937600  0.52254600  0.49743900  1
  C  395  1  0.43999200  0.50849900  0.50995800  1
  C  396  1  0.46570100  0.48993200  0.51881000  1
  C  403  1  0.43868100  0.47123000  0.52647600  1
  C  405  1  0.54934700  0.52690900  0.47392300  1
  C  407  1  0.18776100  0.03344400  0.52192000  1
  C  408  1  0.21757500  0.00691500  0.50819300  1
  C  409  1  0.19208500  0.97946200  0.49038900  1
  C  410  1  0.13659400  0.98010900  0.48603300  1
  C  411  1  0.10669400  0.00665300  0.50007400  1
  C  412  1  0.13181400  0.03406700  0.51873000  1
  C  419  1  0.10421000  0.06038500  0.53746100  1
  C  421  1  0.21684400  0.95230200  0.48190400  1
  C  423  1  0.85480300  0.49691000  0.97876500  1
  C  424  1  0.88416200  0.50977400  0.00530400  1
  C  425  1  0.85819200  0.51975900  0.03280100  1
  C  426  1  0.80266300  0.51502900  0.03218500  1
  C  427  1  0.77322100  0.50245300  0.00563100  1
  C  428  1  0.79883700  0.49333800  0.97816200  1
  C  435  1  0.77169000  0.48567300  0.95179900  1
  C  437  1  0.88257400  0.53842800  0.05993900  1
  N  38  1  0.82747100  0.56557100  0.34606700  1
  N  39  1  0.88702300  0.53820700  0.48022700  1
  N  40  1  0.65743900  0.67000500  0.45372600  1
  N  41  1  0.59982300  0.53075500  0.47273000  1
  N  79  1  0.49576500  0.78566800  0.44436700  1
  N  80  1  0.55431800  0.94705700  0.47090900  1
  N  81  1  0.32594800  0.78942900  0.33966500  1
  N  82  1  0.26745000  0.94733100  0.47824800  1
  N  120  1  0.16125800  0.66606400  0.22574200  1
  N  121  1  0.22050700  0.53191900  0.06496400  1
  N  122  1  0.99065100  0.55783900  0.22256400  1
  N  123  1  0.93307000  0.53953900  0.06499100  1
  N  161  1  0.32896000  0.44490700  0.66507100  1
  N  162  1  0.38790700  0.47093400  0.53025400  1
  N  163  1  0.15863200  0.33996300  0.55670900  1
  N  164  1  0.10057400  0.47868700  0.53770900  1
  N  202  1  0.99403300  0.22533100  0.56499200  1
  N  203  1  0.05331700  0.06423500  0.53787300  1
  N  204  1  0.82333300  0.22243700  0.66967900  1
  N  205  1  0.76567100  0.06457900  0.53024200  1
  N  243  1  0.66186000  0.34707200  0.78604800  1
  N  244  1  0.72095800  0.48190000  0.94771000  1
  N  245  1  0.49191400  0.45496100  0.78962800  1
  N  246  1  0.43392500  0.47449800  0.94790200  1
  O  254  1  0.84475200  0.60662100  0.32707800  1
  O  256  1  0.96927800  0.51869500  0.23990000  1
  O  270  1  0.51332400  0.72546400  0.40386100  1
  O  272  1  0.63659100  0.72684000  0.49216600  1
  O  286  1  0.17915900  0.68598000  0.28598600  1
  O  288  1  0.30405800  0.77121600  0.28300700  1
  O  302  1  0.34671000  0.40474600  0.68521800  1
  O  304  1  0.47085500  0.49306800  0.77084200  1
  O  318  1  0.01167900  0.28541700  0.60576400  1
  O  320  1  0.13707100  0.28343100  0.51784900  1
  O  334  1  0.67937100  0.32802600  0.72602000  1
  O  336  1  0.80237100  0.24013000  0.72632000  1
  O  350  1  0.10320500  0.51568800  0.51349200  1
  O  352  1  0.88639800  0.49692800  0.49871500  1
  O  366  1  0.77022300  0.00302500  0.49749400  1
  O  368  1  0.55103200  0.00794900  0.50778700  1
  O  382  1  0.43671000  0.49838700  0.00907000  1
  O  384  1  0.21966500  0.51376100  0.00525900  1
  O  398  1  0.60334800  0.49318600  0.49636100  1
  O  400  1  0.38630200  0.51244500  0.51196900  1
  O  414  1  0.26975100  0.00845600  0.51568900  1
  O  416  1  0.05309500  0.00468500  0.49603500  1
  O  430  1  0.93643100  0.51543300  0.00370900  1
  O  432  1  0.71955700  0.50066900  0.00762200  1
