# generated using pymatgen
data_CoH7C11N3O5
_symmetry_space_group_name_H-M   'P 1'
_cell_length_a   9.52062000
_cell_length_b   10.31219000
_cell_length_c   16.97961000
_cell_angle_alpha   90.98971000
_cell_angle_beta   100.47126000
_cell_angle_gamma   93.13485000
_symmetry_Int_Tables_number   1
_chemical_formula_structural   CoH7C11N3O5
_chemical_formula_sum   'Co4 H28 C44 N12 O20'
_cell_volume   1636.18751588
_cell_formula_units_Z   4
loop_
 _symmetry_equiv_pos_site_id
 _symmetry_equiv_pos_as_xyz
  1  'x, y, z'
loop_
 _atom_site_type_symbol
 _atom_site_label
 _atom_site_symmetry_multiplicity
 _atom_site_fract_x
 _atom_site_fract_y
 _atom_site_fract_z
 _atom_site_occupancy
  Co  Co1  1  0.80143000  0.17616000  0.70774000  1.0
  Co  Co2  1  0.81767000  0.37068000  0.86089000  1.0
  Co  Co3  1  0.19845000  0.82392000  0.29220000  1.0
  Co  Co4  1  0.18228000  0.62936000  0.13904000  1.0
  H  H1  1  0.77081000  0.72794000  0.74320000  1.0
  H  H2  1  0.67258000  0.87151000  0.50486000  1.0
  H  H3  1  0.69532000  0.45787000  0.54163000  1.0
  H  H4  1  0.58707000  0.80353000  0.38505000  1.0
  H  H5  1  0.61245000  0.67439000  0.31755000  1.0
  H  H6  1  0.03817000  0.00735000  0.40974000  1.0
  H  H7  1  0.89858000  0.63270000  0.31634000  1.0
  H  H8  1  0.34785000  0.34825000  0.84799000  1.0
  H  H9  1  0.46539000  0.96388000  0.79151000  1.0
  H  H10  1  0.03282000  0.02758000  0.81859000  1.0
  H  H11  1  0.08463000  0.68647000  0.79128000  1.0
  H  H12  1  0.00100000  0.83840000  0.79269000  1.0
  H  H13  1  0.09821000  0.89768000  0.07476000  1.0
  H  H14  1  0.15001000  0.57435000  0.92867000  1.0
  H  H15  1  0.22933000  0.27230000  0.25680000  1.0
  H  H16  1  0.32745000  0.12843000  0.49507000  1.0
  H  H17  1  0.30482000  0.54213000  0.45854000  1.0
  H  H18  1  0.41295000  0.19637000  0.61497000  1.0
  H  H19  1  0.38759000  0.32548000  0.68248000  1.0
  H  H20  1  0.96183000  0.99268000  0.59023000  1.0
  H  H21  1  0.10144000  0.36736000  0.68359000  1.0
  H  H22  1  0.65219000  0.65198000  0.15199000  1.0
  H  H23  1  0.53420000  0.03621000  0.20844000  1.0
  H  H24  1  0.96690000  0.97292000  0.18138000  1.0
  H  H25  1  0.91471000  0.31382000  0.20875000  1.0
  H  H26  1  0.99831000  0.16189000  0.20737000  1.0
  H  H27  1  0.90180000  0.10278000  0.92528000  1.0
  H  H28  1  0.84983000  0.42601000  0.07140000  1.0
  C  C1  1  0.73410000  0.58126000  0.64816000  1.0
  C  C2  1  0.74433000  0.70884000  0.67898000  1.0
  C  C3  1  0.72116000  0.81162000  0.62657000  1.0
  C  C4  1  0.68686000  0.78831000  0.54330000  1.0
  C  C5  1  0.67935000  0.66050000  0.51337000  1.0
  C  C6  1  0.70145000  0.55695000  0.56532000  1.0
  C  C7  1  0.76504000  0.47056000  0.70278000  1.0
  C  C8  1  0.74590000  0.94758000  0.65901000  1.0
  C  C9  1  0.65364000  0.72313000  0.37557000  1.0
  C  C10  1  0.97196000  0.91944000  0.39154000  1.0
  C  C11  1  0.90539000  0.72866000  0.34415000  1.0
  C  C12  1  0.17873000  0.19571000  0.83318000  1.0
  C  C13  1  0.31925000  0.24534000  0.83600000  1.0
  C  C14  1  0.42056000  0.16110000  0.81862000  1.0
  C  C15  1  0.38542000  0.02771000  0.80531000  1.0
  C  C16  1  0.24763000  0.97787000  0.80986000  1.0
  C  C17  1  0.14270000  0.06229000  0.82022000  1.0
  C  C18  1  0.06309000  0.28241000  0.84186000  1.0
  C  C19  1  0.56567000  0.21367000  0.80934000  1.0
  C  C20  1  0.09471000  0.78486000  0.81770000  1.0
  C  C21  1  0.10402000  0.83699000  0.02292000  1.0
  C  C22  1  0.13347000  0.67069000  0.95094000  1.0
  C  C23  1  0.26611000  0.41885000  0.35183000  1.0
  C  C24  1  0.25586000  0.29128000  0.32103000  1.0
  C  C25  1  0.27889000  0.18848000  0.37342000  1.0
  C  C26  1  0.31317000  0.21171000  0.45670000  1.0
  C  C27  1  0.32070000  0.33952000  0.48663000  1.0
  C  C28  1  0.29874000  0.44312000  0.43470000  1.0
  C  C29  1  0.23498000  0.52947000  0.29718000  1.0
  C  C30  1  0.25413000  0.05254000  0.34097000  1.0
  C  C31  1  0.34640000  0.27681000  0.62443000  1.0
  C  C32  1  0.02803000  0.08058000  0.60843000  1.0
  C  C33  1  0.09462000  0.27137000  0.65579000  1.0
  C  C34  1  0.82122000  0.80454000  0.16677000  1.0
  C  C35  1  0.68071000  0.75488000  0.16398000  1.0
  C  C36  1  0.57926000  0.83900000  0.18133000  1.0
  C  C37  1  0.61425000  0.97240000  0.19467000  1.0
  C  C38  1  0.75199000  0.02230000  0.19010000  1.0
  C  C39  1  0.85708000  0.93800000  0.17976000  1.0
  C  C40  1  0.93682000  0.71773000  0.15811000  1.0
  C  C41  1  0.43423000  0.78631000  0.19066000  1.0
  C  C42  1  0.90463000  0.21544000  0.18232000  1.0
  C  C43  1  0.89586000  0.16340000  0.97713000  1.0
  C  C44  1  0.86630000  0.32966000  0.04909000  1.0
  N  N1  1  0.79779000  0.77988000  0.37449000  1.0
  N  N2  1  0.83968000  0.90259000  0.40528000  1.0
  N  N3  1  0.01739000  0.81498000  0.35341000  1.0
  N  N4  1  0.09997000  0.77319000  0.90378000  1.0
  N  N5  1  0.08110000  0.87974000  0.94915000  1.0
  N  N6  1  0.13526000  0.70766000  0.02720000  1.0
  N  N7  1  0.20224000  0.22010000  0.62549000  1.0
  N  N8  1  0.16032000  0.09740000  0.59470000  1.0
  N  N9  1  0.98261000  0.18508000  0.64654000  1.0
  N  N10  1  0.89953000  0.22711000  0.09625000  1.0
  N  N11  1  0.91850000  0.12058000  0.05089000  1.0
  N  N12  1  0.86472000  0.29274000  0.97285000  1.0
  O  O1  1  0.75087000  0.35687000  0.67092000  1.0
  O  O2  1  0.80618000  0.50007000  0.77786000  1.0
  O  O3  1  0.82004000  0.96891000  0.72954000  1.0
  O  O4  1  0.70197000  0.04289000  0.61567000  1.0
  O  O5  1  0.65298000  0.62429000  0.43255000  1.0
  O  O6  1  0.93152000  0.23392000  0.81759000  1.0
  O  O7  1  0.08376000  0.39505000  0.87275000  1.0
  O  O8  1  0.61185000  0.32296000  0.84538000  1.0
  O  O9  1  0.63091000  0.14752000  0.76559000  1.0
  O  O10  1  0.22477000  0.84376000  0.80119000  1.0
  O  O11  1  0.24931000  0.64317000  0.32900000  1.0
  O  O12  1  0.19365000  0.49997000  0.22208000  1.0
  O  O13  1  0.18000000  0.03116000  0.27043000  1.0
  O  O14  1  0.29798000  0.95727000  0.38434000  1.0
  O  O15  1  0.34703000  0.37567000  0.56746000  1.0
  O  O16  1  0.06840000  0.76619000  0.18238000  1.0
  O  O17  1  0.91611000  0.60506000  0.12730000  1.0
  O  O18  1  0.38809000  0.67702000  0.15459000  1.0
  O  O19  1  0.36895000  0.85240000  0.23441000  1.0
  O  O20  1  0.77452000  0.15645000  0.19875000  1.0
