# generated using pymatgen
data_H40C53N8
_symmetry_space_group_name_H-M   'P 1'
_cell_length_a   19.91140000
_cell_length_b   19.91140000
_cell_length_c   39.82280000
_cell_angle_alpha   90.00010000
_cell_angle_beta   89.99990000
_cell_angle_gamma   90.00000000
_symmetry_Int_Tables_number   1
_chemical_formula_structural   H40C53N8
_chemical_formula_sum   'H80 C106 N16'
_cell_volume   15788.30060414
_cell_formula_units_Z   2
loop_
 _symmetry_equiv_pos_site_id
 _symmetry_equiv_pos_as_xyz
  1  'x, y, z'
loop_
 _atom_site_type_symbol
 _atom_site_label
 _atom_site_symmetry_multiplicity
 _atom_site_fract_x
 _atom_site_fract_y
 _atom_site_fract_z
 _atom_site_occupancy
  C  1  1  0.35410100  0.15390200  0.01154000  1
  C  2  1  0.32958900  0.12045900  0.04023600  1
  C  3  1  0.28477500  0.06632400  0.03690900  1
  C  4  1  0.26127300  0.04429500  0.00503000  1
  C  5  1  0.28957800  0.07644300  0.97648100  1
  C  6  1  0.33410600  0.13082300  0.97954200  1
  C  7  1  0.21856200  0.98104600  0.00129600  1
  C  8  1  0.27442600  0.92894800  0.99780700  1
  C  9  1  0.30226000  0.91210800  0.96602700  1
  C  10  1  0.35599200  0.86681800  0.96283800  1
  C  11  1  0.38588100  0.83808600  0.99157200  1
  C  12  1  0.36241900  0.85819200  0.02351500  1
  C  13  1  0.30859900  0.90347700  0.02643700  1
  C  14  1  0.16993500  0.96921800  0.03032700  1
  C  15  1  0.16910900  0.98165200  0.97199800  1
  C  16  1  0.14511400  0.92056600  0.95792800  1
  C  17  1  0.09842700  0.91971400  0.93148600  1
  C  18  1  0.07156900  0.98030600  0.91895100  1
  C  19  1  0.09060700  0.04125700  0.93429400  1
  C  20  1  0.13781600  0.04160300  0.96057300  1
  C  21  1  0.13232900  0.02329800  0.04406400  1
  C  22  1  0.08559800  0.01352500  0.07002400  1
  C  23  1  0.07283100  0.94849200  0.08270100  1
  C  24  1  0.10580800  0.89349000  0.06761800  1
  C  25  1  0.15261100  0.90377800  0.04164900  1
  C  42  1  0.03049100  0.98064700  0.89108700  1
  C  43  1  0.39396400  0.21010600  0.01501600  1
  C  46  1  0.43128100  0.78609600  0.98777300  1
  C  48  1  0.03219700  0.93892400  0.11046800  1
  C  50  1  0.83552800  0.37637400  0.50954200  1
  C  51  1  0.86536000  0.34866500  0.53848300  1
  C  52  1  0.91511600  0.29895000  0.53549000  1
  C  53  1  0.93564200  0.27349800  0.50373100  1
  C  54  1  0.90822500  0.30578000  0.47498900  1
  C  55  1  0.85824400  0.35522900  0.47768100  1
  C  56  1  0.99289500  0.22301500  0.50016300  1
  C  57  1  0.05147500  0.27152300  0.49523600  1
  C  58  1  0.07218900  0.29308500  0.46282300  1
  C  59  1  0.12132100  0.34297900  0.45841600  1
  C  60  1  0.15080000  0.37500200  0.48639500  1
  C  61  1  0.12852300  0.35667600  0.51881300  1
  C  62  1  0.07935900  0.30675000  0.52297900  1
  C  63  1  0.00004900  0.17528700  0.52994800  1
  C  64  1  0.98435700  0.17211700  0.47177200  1
  C  65  1  0.04093400  0.13684200  0.45899300  1
  C  66  1  0.03459500  0.08675500  0.43436200  1
  C  67  1  0.97074700  0.06881000  0.42192400  1
  C  68  1  0.91347900  0.10072300  0.43533600  1
  C  69  1  0.92033900  0.15030200  0.46028400  1
  C  70  1  0.94262200  0.14330100  0.54389400  1
  C  71  1  0.94786500  0.09577000  0.56984200  1
  C  72  1  0.01141800  0.07630900  0.58220100  1
  C  73  1  0.06927800  0.10446900  0.56732800  1
  C  74  1  0.06352800  0.15236200  0.54154100  1
  C  91  1  0.96627800  0.02359500  0.39584300  1
  C  92  1  0.77993700  0.41698400  0.51247800  1
  C  95  1  0.20326200  0.41960900  0.48159800  1
  C  97  1  0.01774000  0.03188800  0.60869600  1
  C  99  1  0.97801900  0.00768600  0.66405400  1
  C  100  1  0.94688100  0.04236100  0.69057400  1
  C  102  1  0.98002200  0.95838800  0.73033500  1
  C  103  1  0.00978100  0.91923200  0.70438000  1
  C  104  1  0.00827700  0.94513100  0.67128100  1
  C  106  1  0.98991600  0.94750400  0.76506900  1
  C  107  1  0.93935000  0.95340600  0.79017000  1
  C  108  1  0.96002900  0.95463200  0.82420100  1
  C  109  1  0.02858300  0.94999100  0.83304500  1
  C  110  1  0.07577700  0.94213100  0.80710500  1
  C  115  1  0.86626800  0.95719800  0.78282000  1
  C  119  1  0.04225800  0.85292000  0.70992500  1
  C  125  1  0.01713500  0.98137200  0.16681900  1
  C  126  1  0.96542800  0.94112000  0.18027000  1
  C  128  1  0.97845700  0.99142200  0.23439900  1
  C  129  1  0.03079900  0.03371900  0.22239300  1
  C  130  1  0.04874500  0.02796300  0.18821200  1
  C  132  1  0.95835000  0.99080400  0.26826600  1
  C  133  1  0.98453900  0.94491600  0.29227200  1
  C  134  1  0.97489100  0.96015900  0.32664700  1
  C  135  1  0.94088500  0.01908500  0.33687500  1
  C  136  1  0.91336400  0.06037200  0.31171300  1
  C  141  1  0.02573700  0.88503200  0.28365900  1
  C  145  1  0.06963200  0.08187700  0.24339500  1
  C  151  1  0.39737400  0.32658100  0.99918500  1
  C  152  1  0.45895200  0.34944800  0.01247100  1
  C  154  1  0.43251300  0.46282700  0.99815700  1
  C  155  1  0.36949800  0.44324200  0.98445600  1
  C  156  1  0.35351100  0.37419900  0.98498800  1
  C  158  1  0.45190200  0.53041000  0.00074500  1
  C  159  1  0.47450300  0.56891400  0.97289700  1
  C  160  1  0.47059500  0.63967200  0.97547100  1
  C  161  1  0.44522000  0.67081200  0.00473200  1
  C  162  1  0.42698300  0.62971400  0.03196700  1
  C  167  1  0.49634300  0.53909100  0.94047100  1
  C  171  1  0.31842000  0.49018300  0.97049100  1
  C  177  1  0.66168000  0.41255800  0.49933900  1
  C  178  1  0.63598900  0.47410200  0.51125000  1
  C  180  1  0.52391300  0.44032100  0.49826200  1
  C  181  1  0.54649300  0.37710300  0.48602800  1
  C  182  1  0.61622700  0.36475100  0.48665800  1
  C  184  1  0.45550000  0.45697500  0.49977600  1
  C  185  1  0.41785800  0.47634600  0.47106200  1
  C  186  1  0.34735700  0.46805500  0.47235200  1
  C  187  1  0.31549500  0.44153200  0.50118000  1
  C  188  1  0.35563700  0.42655100  0.52927200  1
  C  193  1  0.44872900  0.49902200  0.43902200  1
  C  197  1  0.50217100  0.32256700  0.47323600  1
  H  26  1  0.08473800  0.87453200  0.92128100  1
  H  27  1  0.16281600  0.87544600  0.96637600  1
  H  28  1  0.07151900  0.08604300  0.92599200  1
  H  29  1  0.14957300  0.08684200  0.97114400  1
  H  30  1  0.13967800  0.07124700  0.03567500  1
  H  31  1  0.06170100  0.05455100  0.07991000  1
  H  32  1  0.09723500  0.84555000  0.07589200  1
  H  33  1  0.17455700  0.86234500  0.03124400  1
  H  34  1  0.29364900  0.91679100  0.05006200  1
  H  35  1  0.38321700  0.83876600  0.04493000  1
  H  36  1  0.37170300  0.85363700  0.93924600  1
  H  37  1  0.28296500  0.93211200  0.94446600  1
  H  38  1  0.27800600  0.06035400  0.95281300  1
  H  39  1  0.26980900  0.04260900  0.05838900  1
  H  40  1  0.34358100  0.13554900  0.06381000  1
  H  41  1  0.35193300  0.15326300  0.95818700  1
  H  44  1  0.00306300  0.89853000  0.11210500  1
  H  45  1  0.98856500  0.00778300  0.89111500  1
  H  47  1  0.46189300  0.78511100  0.96805100  1
  H  49  1  0.43121500  0.21054200  0.03163200  1
  H  75  1  0.07719000  0.06442500  0.42522100  1
  H  76  1  0.08815800  0.14794700  0.46738300  1
  H  77  1  0.86642500  0.08795000  0.42717000  1
  H  78  1  0.87736400  0.17031600  0.47006200  1
  H  79  1  0.89563400  0.15486100  0.53532400  1
  H  80  1  0.90482500  0.07524400  0.57946700  1
  H  81  1  0.11623600  0.09074900  0.57527800  1
  H  82  1  0.10691000  0.16989300  0.53103200  1
  H  83  1  0.06386400  0.29627500  0.54687800  1
  H  84  1  0.14799800  0.37941300  0.53971600  1
  H  85  1  0.13572900  0.35521000  0.43449000  1
  H  86  1  0.05102700  0.27308600  0.44170900  1
  H  87  1  0.92355300  0.29239700  0.45143000  1
  H  88  1  0.93604300  0.28117100  0.55715100  1
  H  89  1  0.84984100  0.36290900  0.56194900  1
  H  90  1  0.83762300  0.37458000  0.45619600  1
  H  93  1  0.05626000  0.00009800  0.60913800  1
  H  94  1  0.99144400  0.98061000  0.39728500  1
  H  96  1  0.20620000  0.44550300  0.46031200  1
  H  98  1  0.78062000  0.45728300  0.52718800  1
  H  105  1  0.03050200  0.91856600  0.65230500  1
  H  112  1  0.92479700  0.95923700  0.84277100  1
  H  113  1  0.12610600  0.93955000  0.81207200  1
  H  114  1  0.92542100  0.08844500  0.68690300  1
  H  116  1  0.85486300  0.95052600  0.75625700  1
  H  117  1  0.84679200  0.00591300  0.79076300  1
  H  118  1  0.83981100  0.91779800  0.79655300  1
  H  120  1  0.03612300  0.83451900  0.73552300  1
  H  121  1  0.09587700  0.85664200  0.70454100  1
  H  122  1  0.02007500  0.81560500  0.69317300  1
  H  131  1  0.08700300  0.05706800  0.17894900  1
  H  138  1  0.99705900  0.93024600  0.34432500  1
  H  139  1  0.89045000  0.10478500  0.31763700  1
  H  140  1  0.94114700  0.90632500  0.16588200  1
  H  142  1  0.03076600  0.87714200  0.25670200  1
  H  143  1  0.00259000  0.84013200  0.29431100  1
  H  144  1  0.07608100  0.89057800  0.29415800  1
  H  146  1  0.05489700  0.08165800  0.26973200  1
  H  147  1  0.06266200  0.13273400  0.23377300  1
  H  148  1  0.12297900  0.06938300  0.24230000  1
  H  157  1  0.30812500  0.35854100  0.97564900  1
  H  164  1  0.48070900  0.66826800  0.95473700  1
  H  165  1  0.40497700  0.64950200  0.05296300  1
  H  166  1  0.49237100  0.31698900  0.02317100  1
  H  168  1  0.49920800  0.48441900  0.94132200  1
  H  169  1  0.54614500  0.55793400  0.93394500  1
  H  170  1  0.46116300  0.55317800  0.92066100  1
  H  172  1  0.33361700  0.54268000  0.97153900  1
  H  173  1  0.27164400  0.48536300  0.98458900  1
  H  174  1  0.30871700  0.47763800  0.94425000  1
  H  183  1  0.63410600  0.31943100  0.47827100  1
  H  190  1  0.31976800  0.47647700  0.45110300  1
  H  191  1  0.33563800  0.40410200  0.55009900  1
  H  192  1  0.66696700  0.51016200  0.52085500  1
  H  194  1  0.50300600  0.50537000  0.44087000  1
  H  195  1  0.42732900  0.54733000  0.43171000  1
  H  196  1  0.43840300  0.46241400  0.41928200  1
  H  198  1  0.44898600  0.33525100  0.47391900  1
  H  199  1  0.50922300  0.27741500  0.48838100  1
  H  200  1  0.51528500  0.31111400  0.44724100  1
  N  101  1  0.95079800  0.01788200  0.72217700  1
  N  111  1  0.05521100  0.94306000  0.77478000  1
  N  123  1  0.05247900  0.95355200  0.86399000  1
  N  124  1  0.97965800  0.03834600  0.63452800  1
  N  127  1  0.94839400  0.94730600  0.21310800  1
  N  137  1  0.92458300  0.04607100  0.27897600  1
  N  149  1  0.94260300  0.04432100  0.36770600  1
  N  150  1  0.04081000  0.97755600  0.13587600  1
  N  153  1  0.47393300  0.41585700  0.01169300  1
  N  163  1  0.42885500  0.56219000  0.02860200  1
  N  175  1  0.42172800  0.73285100  0.00526000  1
  N  176  1  0.37575900  0.26388900  0.99985700  1
  N  179  1  0.56886700  0.48557300  0.51039800  1
  N  189  1  0.42313700  0.43242800  0.52715000  1
  N  201  1  0.25422800  0.41588800  0.50123000  1
  N  202  1  0.72525000  0.39428700  0.49993200  1
