# generated using pymatgen
data_SiH32(C9N2)4
_symmetry_space_group_name_H-M   'P 1'
_cell_length_a   22.93155000
_cell_length_b   42.59780000
_cell_length_c   43.71870000
_cell_angle_alpha   90.00000000
_cell_angle_beta   90.00000000
_cell_angle_gamma   89.97770000
_symmetry_Int_Tables_number   1
_chemical_formula_structural   SiH32(C9N2)4
_chemical_formula_sum   'Si8 H256 C288 N64'
_cell_volume   42705.89102513
_cell_formula_units_Z   8
loop_
 _symmetry_equiv_pos_site_id
 _symmetry_equiv_pos_as_xyz
  1  'x, y, z'
loop_
 _atom_site_type_symbol
 _atom_site_label
 _atom_site_symmetry_multiplicity
 _atom_site_fract_x
 _atom_site_fract_y
 _atom_site_fract_z
 _atom_site_occupancy
  C  1  1  0.24625100  0.14256600  0.21477200  1
  C  2  1  0.29708600  0.12402500  0.21326100  1
  C  3  1  0.29698800  0.09588600  0.19653800  1
  C  4  1  0.24589000  0.08543900  0.18142200  1
  C  5  1  0.19591500  0.10505200  0.18209700  1
  C  6  1  0.19570300  0.13306700  0.19896900  1
  C  8  1  0.24075800  0.06768700  0.12487000  1
  C  9  1  0.18914400  0.06598700  0.10712000  1
  C  10  1  0.18866700  0.07589100  0.07647100  1
  C  11  1  0.23960900  0.08825100  0.06294100  1
  C  12  1  0.28932700  0.09317300  0.08132800  1
  C  13  1  0.28929600  0.08369300  0.11215100  1
  C  14  1  0.30233800  0.03010400  0.16598900  1
  C  15  1  0.18941100  0.02931100  0.16849100  1
  C  16  1  0.17847600  0.00311300  0.14930500  1
  C  17  1  0.13101000  0.98306500  0.15476300  1
  C  18  1  0.09422300  0.98818000  0.18012000  1
  C  19  1  0.10689900  0.01283900  0.20057800  1
  C  20  1  0.15434400  0.03293700  0.19497100  1
  C  21  1  0.31487900  0.01938300  0.19602100  1
  C  22  1  0.36188900  0.99901600  0.20172800  1
  C  23  1  0.39691900  0.98832800  0.17736100  1
  C  24  1  0.38363400  0.99786600  0.14725800  1
  C  25  1  0.33658800  0.01819100  0.14163700  1
  C  42  1  0.24674700  0.14255600  0.78177000  1
  C  43  1  0.19595000  0.12400600  0.78327300  1
  C  44  1  0.19609500  0.09586800  0.80000000  1
  C  45  1  0.24717800  0.08544600  0.81516100  1
  C  46  1  0.29711600  0.10506800  0.81448400  1
  C  47  1  0.29729600  0.13306800  0.79759000  1
  C  49  1  0.25236200  0.06767300  0.87170200  1
  C  50  1  0.30399200  0.06598700  0.88944000  1
  C  51  1  0.30446800  0.07588800  0.92009100  1
  C  52  1  0.25350300  0.08822500  0.93363400  1
  C  53  1  0.20375500  0.09312600  0.91526200  1
  C  54  1  0.20378500  0.08365200  0.88443800  1
  C  55  1  0.19086700  0.03008400  0.83057100  1
  C  56  1  0.30378700  0.02932700  0.82806400  1
  C  57  1  0.31480700  0.00313100  0.84724300  1
  C  58  1  0.36229000  0.98308200  0.84176500  1
  C  59  1  0.39907500  0.98822500  0.81641400  1
  C  60  1  0.38636600  0.01290700  0.79598200  1
  C  61  1  0.33885300  0.03297800  0.80158800  1
  C  62  1  0.17832500  0.01937900  0.80053600  1
  C  63  1  0.13134300  0.99901600  0.79481700  1
  C  64  1  0.09632100  0.98832100  0.81918000  1
  C  65  1  0.10960600  0.99784100  0.84928600  1
  C  66  1  0.15661800  0.01816500  0.85491500  1
  C  83  1  0.74598000  0.75541500  0.78177500  1
  C  84  1  0.79583500  0.76408200  0.79860500  1
  C  85  1  0.79602600  0.79216800  0.81535300  1
  C  86  1  0.74704000  0.81251600  0.81515000  1
  C  87  1  0.69657900  0.80289900  0.79895300  1
  C  88  1  0.69618500  0.77479400  0.78217500  1
  C  90  1  0.75262600  0.83042800  0.87169300  1
  C  91  1  0.70423500  0.81421600  0.88432400  1
  C  92  1  0.70408100  0.80479100  0.91515900  1
  C  93  1  0.75362200  0.80987500  0.93362300  1
  C  94  1  0.80451200  0.82242100  0.92020100  1
  C  95  1  0.80404300  0.83240200  0.88957500  1
  C  96  1  0.80457500  0.86829200  0.82788800  1
  C  97  1  0.69141900  0.86817000  0.83061400  1
  C  98  1  0.65665300  0.87965800  0.85496300  1
  C  99  1  0.60947400  0.89990800  0.84941200  1
  C  100  1  0.59651500  0.90979100  0.81938100  1
  C  101  1  0.63214600  0.89963600  0.79504100  1
  C  102  1  0.67933600  0.87936500  0.80069100  1
  C  103  1  0.84040200  0.86391600  0.80179600  1
  C  104  1  0.88816700  0.88376900  0.79608900  1
  C  105  1  0.90048400  0.90889200  0.81606500  1
  C  106  1  0.86314500  0.91464100  0.84107000  1
  C  107  1  0.81540200  0.89482800  0.84664400  1
  C  124  1  0.74754800  0.75543400  0.21480600  1
  C  125  1  0.69773000  0.76406800  0.19791900  1
  C  126  1  0.69750500  0.79215400  0.18116800  1
  C  127  1  0.74642700  0.81252300  0.18141900  1
  C  128  1  0.79687100  0.80292900  0.19765100  1
  C  129  1  0.79728800  0.77483100  0.21444300  1
  C  131  1  0.74082600  0.83040700  0.12485500  1
  C  132  1  0.78922300  0.81414800  0.11225700  1
  C  133  1  0.78944800  0.80479500  0.08139900  1
  C  134  1  0.73991900  0.80987100  0.06291400  1
  C  135  1  0.68902300  0.82243200  0.07633300  1
  C  136  1  0.68941000  0.83237000  0.10696900  1
  C  137  1  0.68878100  0.86827000  0.16864800  1
  C  138  1  0.80194800  0.86817400  0.16591200  1
  C  139  1  0.83669500  0.87964200  0.14155200  1
  C  140  1  0.88384300  0.89989900  0.14708200  1
  C  141  1  0.89681800  0.90979400  0.17710600  1
  C  142  1  0.86120200  0.89965900  0.20145700  1
  C  143  1  0.81401500  0.87940300  0.19582300  1
  C  144  1  0.65300800  0.86390900  0.19476000  1
  C  145  1  0.60519500  0.88374800  0.20046400  1
  C  146  1  0.59280900  0.90886400  0.18048500  1
  C  147  1  0.63011200  0.91460600  0.15546600  1
  C  148  1  0.67789000  0.89479800  0.14988800  1
  C  165  1  0.74649300  0.64242100  0.71486500  1
  C  166  1  0.79628000  0.62303500  0.71452400  1
  C  167  1  0.79598400  0.59495800  0.69770100  1
  C  168  1  0.74561500  0.58536800  0.68141300  1
  C  169  1  0.69660400  0.60570000  0.68119100  1
  C  170  1  0.69673000  0.63377900  0.69794800  1
  C  172  1  0.74009300  0.56758100  0.62483100  1
  C  173  1  0.68871200  0.56557400  0.60692100  1
  C  174  1  0.68829000  0.57555600  0.57629800  1
  C  175  1  0.73915900  0.58817800  0.56291700  1
  C  176  1  0.78860600  0.59335500  0.58142600  1
  C  177  1  0.78844100  0.58386800  0.61224300  1
  C  178  1  0.80143600  0.52979700  0.66579000  1
  C  179  1  0.68825300  0.52958600  0.66857900  1
  C  180  1  0.67746200  0.50308500  0.64977900  1
  C  181  1  0.62978700  0.48322200  0.65534200  1
  C  182  1  0.59251100  0.48886800  0.68039700  1
  C  183  1  0.60482900  0.51394900  0.70042300  1
  C  184  1  0.65250900  0.53386300  0.69471800  1
  C  185  1  0.81370900  0.51856900  0.69568100  1
  C  186  1  0.86118200  0.49847200  0.70126200  1
  C  187  1  0.89685400  0.48847600  0.67687200  1
  C  188  1  0.88361900  0.49831000  0.64686200  1
  C  189  1  0.83619800  0.51842100  0.64138900  1
  C  206  1  0.74641500  0.64246800  0.28175100  1
  C  207  1  0.69650200  0.62319700  0.28211000  1
  C  208  1  0.69666200  0.59509900  0.29890200  1
  C  209  1  0.74701400  0.58538000  0.31514400  1
  C  210  1  0.79612600  0.60561800  0.31538700  1
  C  211  1  0.79615200  0.63370700  0.29864100  1
  C  213  1  0.75238700  0.56753400  0.37171000  1
  C  214  1  0.80375900  0.56547500  0.38962300  1
  C  215  1  0.80416100  0.57542400  0.42025500  1
  C  216  1  0.75333100  0.58811700  0.43362900  1
  C  217  1  0.70390200  0.59334500  0.41511700  1
  C  218  1  0.70405300  0.58385400  0.38430000  1
  C  219  1  0.69098300  0.52986800  0.33069600  1
  C  220  1  0.80416400  0.52950900  0.32794400  1
  C  221  1  0.81489300  0.50298900  0.34673500  1
  C  222  1  0.86258600  0.48311000  0.34119500  1
  C  223  1  0.89989100  0.48873700  0.31615100  1
  C  224  1  0.88758000  0.51381100  0.29610700  1
  C  225  1  0.83991300  0.53375300  0.30180200  1
  C  226  1  0.67867600  0.51871500  0.30078600  1
  C  227  1  0.63120200  0.49864300  0.29518000  1
  C  228  1  0.59556400  0.48860500  0.31955900  1
  C  229  1  0.60881100  0.49838700  0.34958500  1
  C  230  1  0.65623100  0.51846800  0.35508400  1
  C  247  1  0.24504400  0.25522900  0.28235000  1
  C  248  1  0.29787300  0.26670200  0.29443900  1
  C  249  1  0.29831900  0.29456500  0.31155300  1
  C  250  1  0.24687900  0.31264800  0.31518800  1
  C  251  1  0.19380100  0.30030700  0.30373500  1
  C  252  1  0.19280200  0.27183100  0.28757000  1
  C  254  1  0.25245200  0.32987200  0.37175100  1
  C  255  1  0.20334200  0.31458200  0.38470500  1
  C  256  1  0.20342900  0.30499900  0.41548600  1
  C  257  1  0.25368700  0.30921100  0.43361700  1
  C  258  1  0.30498700  0.32089000  0.41988400  1
  C  259  1  0.30450500  0.33074000  0.38920400  1
  C  260  1  0.30305600  0.36908000  0.32840400  1
  C  261  1  0.19051000  0.36758700  0.33086700  1
  C  262  1  0.15770700  0.38038100  0.35533300  1
  C  263  1  0.11043000  0.40055800  0.34974300  1
  C  264  1  0.09551000  0.40905400  0.31954500  1
  C  265  1  0.12907500  0.39740600  0.29502500  1
  C  266  1  0.17622100  0.37711800  0.30068100  1
  C  267  1  0.33587400  0.36697400  0.30099200  1
  C  268  1  0.38302900  0.38728300  0.29544300  1
  C  269  1  0.39726000  0.41086600  0.31679600  1
  C  270  1  0.36222300  0.41475600  0.34302900  1
  C  271  1  0.31519600  0.39440100  0.34848700  1
  C  288  1  0.24784800  0.25520800  0.71417200  1
  C  289  1  0.19500900  0.26669200  0.70208600  1
  C  290  1  0.19453100  0.29456700  0.68499300  1
  C  291  1  0.24596100  0.31263800  0.68135300  1
  C  292  1  0.29906000  0.30026900  0.69277600  1
  C  293  1  0.30007800  0.27180100  0.70895000  1
  C  295  1  0.24036400  0.32990200  0.62480300  1
  C  296  1  0.28950400  0.31464500  0.61182300  1
  C  297  1  0.28941300  0.30511400  0.58102800  1
  C  298  1  0.23908800  0.30926000  0.56293000  1
  C  299  1  0.18777100  0.32090200  0.57669300  1
  C  300  1  0.18828100  0.33075200  0.60737600  1
  C  301  1  0.18972700  0.36909200  0.66817100  1
  C  302  1  0.30226400  0.36759000  0.66570800  1
  C  303  1  0.33499100  0.38043500  0.64124700  1
  C  304  1  0.38222600  0.40061900  0.64684200  1
  C  305  1  0.39714200  0.40909600  0.67704400  1
  C  306  1  0.36364200  0.39740300  0.70156200  1
  C  307  1  0.31656100  0.37709500  0.69590100  1
  C  308  1  0.15694500  0.36698400  0.69559400  1
  C  309  1  0.10972800  0.38727100  0.70114100  1
  C  310  1  0.09537700  0.41081700  0.67976600  1
  C  311  1  0.13036600  0.41470200  0.65351900  1
  C  312  1  0.17753000  0.39441000  0.64809300  1
  C  329  1  0.24881000  0.08931500  0.96607100  1
  C  330  1  0.24388600  0.06022400  0.98208000  1
  C  331  1  0.24933700  0.06022300  0.01450800  1
  C  332  1  0.24435800  0.08932300  0.03050700  1
  C  333  1  0.24265800  0.11852300  0.01451600  1
  C  334  1  0.25050700  0.11852000  0.98205100  1
  C  347  1  0.74476600  0.80875800  0.03048800  1
  C  348  1  0.74970800  0.83784600  0.01447800  1
  C  349  1  0.74395400  0.83785800  0.98206900  1
  C  350  1  0.74882800  0.80876500  0.96605300  1
  C  351  1  0.75062400  0.77955700  0.98203000  1
  C  352  1  0.74290600  0.77956200  0.01450400  1
  C  365  1  0.74842500  0.58924700  0.46605700  1
  C  366  1  0.74338300  0.56016800  0.48207700  1
  C  367  1  0.74904700  0.56017500  0.51449100  1
  C  368  1  0.74408100  0.58927200  0.53048900  1
  C  369  1  0.74236400  0.61847100  0.51449400  1
  C  370  1  0.75021300  0.61845500  0.48202900  1
  C  383  1  0.24346200  0.30827000  0.53047500  1
  C  384  1  0.24848700  0.33738100  0.51450000  1
  C  385  1  0.24403400  0.33736500  0.48201800  1
  C  386  1  0.24922800  0.30824400  0.46606800  1
  C  387  1  0.25056600  0.27904300  0.48206800  1
  C  388  1  0.24226700  0.27905200  0.51450300  1
  C  401  1  0.94447500  0.93045200  0.18223100  1
  C  402  1  0.93807700  0.96270500  0.17409300  1
  C  403  1  0.98902700  0.98176200  0.17181500  1
  C  404  1  0.04285900  0.96987700  0.18347200  1
  C  405  1  0.04733600  0.93892900  0.19572400  1
  C  406  1  0.99899500  0.91808500  0.19243200  1
  C  419  1  0.54885800  0.93046900  0.81423500  1
  C  420  1  0.55525400  0.96271900  0.82237100  1
  C  421  1  0.50429300  0.98179000  0.82466300  1
  C  422  1  0.45045000  0.96991200  0.81303400  1
  C  423  1  0.44597200  0.93896900  0.80077400  1
  C  424  1  0.49433100  0.91811300  0.80406300  1
  C  437  1  0.04916000  0.96735500  0.81395300  1
  C  438  1  0.05619600  0.93514000  0.82210300  1
  C  439  1  0.00562400  0.91578700  0.82434200  1
  C  440  1  0.95167300  0.92729700  0.81248900  1
  C  441  1  0.94673800  0.95813900  0.80004400  1
  C  442  1  0.99450400  0.97932600  0.80351600  1
  C  455  1  0.44409600  0.96734800  0.18258000  1
  C  456  1  0.43707900  0.93514000  0.17441500  1
  C  457  1  0.48765400  0.91576600  0.17221300  1
  C  458  1  0.54158900  0.92726200  0.18407200  1
  C  459  1  0.54651600  0.95811300  0.19649700  1
  C  460  1  0.49874300  0.97931400  0.19301400  1
  C  473  1  0.44431000  0.43006900  0.68226600  1
  C  474  1  0.43689300  0.46240400  0.67467400  1
  C  475  1  0.48727400  0.48189800  0.67246500  1
  C  476  1  0.54145100  0.47036700  0.68400200  1
  C  477  1  0.54677800  0.43936600  0.69601300  1
  C  478  1  0.49922800  0.41808300  0.69230700  1
  C  491  1  0.04827200  0.43000100  0.31432300  1
  C  492  1  0.05557900  0.46234100  0.32191000  1
  C  493  1  0.00513200  0.48180700  0.32411300  1
  C  494  1  0.95099400  0.47024000  0.31258000  1
  C  495  1  0.94576800  0.43923400  0.30056900  1
  C  496  1  0.99339500  0.41798400  0.30429100  1
  C  509  1  0.54756600  0.46816500  0.31446000  1
  C  510  1  0.55376000  0.43580200  0.32222800  1
  C  511  1  0.50264700  0.41686700  0.32451300  1
  C  512  1  0.44866900  0.42912300  0.31341300  1
  C  513  1  0.44422500  0.46025200  0.30160500  1
  C  514  1  0.49298400  0.48084700  0.30472100  1
  C  527  1  0.94491000  0.46805000  0.68195500  1
  C  528  1  0.93881700  0.43568500  0.67419200  1
  C  529  1  0.98997700  0.41675200  0.67199800  1
  C  530  1  0.04388600  0.42903400  0.68313700  1
  C  531  1  0.04822400  0.46017400  0.69491700  1
  C  532  1  0.99942800  0.48075700  0.69174200  1
  C  545  1  0.24448500  0.22689600  0.26541500  1
  C  546  1  0.24693900  0.22845600  0.23281600  1
  C  547  1  0.25259400  0.19994700  0.21596400  1
  C  548  1  0.24607400  0.17085000  0.23178200  1
  C  549  1  0.23868100  0.16936800  0.26416800  1
  C  550  1  0.24263900  0.19770200  0.28143500  1
  C  563  1  0.24842700  0.22687800  0.73111200  1
  C  564  1  0.24602400  0.22844200  0.76371200  1
  C  565  1  0.24039100  0.19993700  0.78056900  1
  C  566  1  0.24689400  0.17083500  0.76475200  1
  C  567  1  0.25426900  0.16934500  0.73236400  1
  C  568  1  0.25027100  0.19768100  0.71509900  1
  C  581  1  0.74678700  0.67079500  0.73173500  1
  C  582  1  0.72517100  0.67051400  0.76238000  1
  C  583  1  0.72618600  0.69900600  0.77955600  1
  C  584  1  0.74566500  0.72706400  0.76487100  1
  C  585  1  0.76713300  0.72737300  0.73419100  1
  C  586  1  0.76642100  0.69883700  0.71706600  1
  C  599  1  0.74631600  0.67082800  0.26486100  1
  C  600  1  0.76796800  0.67048800  0.23421800  1
  C  601  1  0.76734500  0.69900800  0.21707200  1
  C  602  1  0.74785800  0.72709400  0.23172700  1
  C  603  1  0.72622400  0.72743200  0.26237300  1
  C  604  1  0.72688100  0.69891900  0.27952300  1
  H  26  1  0.12254600  0.96530400  0.13961600  1
  H  27  1  0.20342200  0.99892700  0.13028900  1
  H  28  1  0.08088800  0.01677000  0.21922300  1
  H  29  1  0.16212400  0.05035200  0.21050700  1
  H  30  1  0.29022200  0.02643300  0.21432000  1
  H  31  1  0.37009400  0.99187300  0.22366900  1
  H  32  1  0.40766100  0.98975300  0.12916000  1
  H  33  1  0.32746100  0.02345900  0.11935200  1
  H  34  1  0.32717200  0.08632300  0.12430800  1
  H  35  1  0.32719200  0.10142000  0.07187900  1
  H  36  1  0.15227400  0.07180800  0.06349100  1
  H  37  1  0.15169500  0.05633900  0.11560600  1
  H  38  1  0.15851300  0.09908000  0.17067100  1
  H  39  1  0.33525700  0.08365100  0.19532000  1
  H  40  1  0.33451400  0.13099900  0.22407600  1
  H  41  1  0.15867700  0.14650100  0.19949500  1
  H  67  1  0.37080600  0.96532000  0.85690700  1
  H  68  1  0.28986600  0.99892300  0.86625600  1
  H  69  1  0.41232300  0.01682900  0.77731700  1
  H  70  1  0.33101700  0.05039000  0.78605200  1
  H  71  1  0.20297000  0.02643800  0.78223900  1
  H  72  1  0.12313700  0.99189400  0.77287200  1
  H  73  1  0.08557500  0.98973000  0.86738100  1
  H  74  1  0.16573300  0.02342500  0.87720300  1
  H  75  1  0.16589500  0.08627300  0.87228800  1
  H  76  1  0.16587600  0.10136000  0.92472300  1
  H  77  1  0.34088900  0.07182300  0.93306000  1
  H  78  1  0.34146500  0.05636000  0.88094500  1
  H  79  1  0.33452300  0.09910400  0.82591800  1
  H  80  1  0.15784300  0.08363600  0.80122600  1
  H  81  1  0.15851900  0.13096900  0.77244500  1
  H  82  1  0.33430100  0.14650800  0.79707000  1
  H  108  1  0.58497400  0.90762200  0.86750200  1
  H  109  1  0.66536300  0.87406400  0.87721200  1
  H  110  1  0.62414700  0.90702400  0.77315600  1
  H  111  1  0.70433700  0.87263500  0.78240600  1
  H  112  1  0.83290200  0.84616100  0.78659400  1
  H  113  1  0.91454000  0.87939500  0.77768100  1
  H  114  1  0.87133400  0.93274600  0.85587100  1
  H  115  1  0.79002500  0.89951400  0.86539100  1
  H  116  1  0.84138900  0.84226200  0.88120400  1
  H  117  1  0.84068700  0.82677300  0.93326600  1
  H  118  1  0.66635900  0.79624800  0.92451700  1
  H  119  1  0.66656000  0.81132200  0.87204700  1
  H  120  1  0.65893000  0.81571400  0.79939700  1
  H  121  1  0.83295200  0.79758600  0.82744900  1
  H  122  1  0.83205300  0.75001600  0.79887100  1
  H  123  1  0.65925200  0.76843700  0.77056000  1
  H  149  1  0.90834900  0.90758200  0.12898600  1
  H  150  1  0.82799300  0.87402900  0.11930600  1
  H  151  1  0.86920700  0.90705900  0.22333600  1
  H  152  1  0.78904100  0.87267700  0.21411700  1
  H  153  1  0.66055200  0.84615700  0.20996400  1
  H  154  1  0.57886700  0.87939100  0.21889200  1
  H  155  1  0.62187200  0.93270300  0.14066000  1
  H  156  1  0.70324000  0.89947900  0.13113100  1
  H  157  1  0.65203800  0.84221700  0.11533600  1
  H  158  1  0.65281200  0.82671000  0.06326500  1
  H  159  1  0.82720300  0.79627100  0.07204700  1
  H  160  1  0.82695500  0.81135000  0.12450500  1
  H  161  1  0.83448300  0.81576300  0.19723800  1
  H  162  1  0.66059500  0.79755300  0.16904400  1
  H  163  1  0.66155200  0.74998700  0.19762600  1
  H  164  1  0.83419400  0.76850000  0.22610200  1
  H  190  1  0.62161900  0.46513900  0.64051300  1
  H  191  1  0.70280200  0.49846000  0.63100200  1
  H  192  1  0.57852200  0.51824300  0.71887700  1
  H  193  1  0.65999500  0.55159400  0.70995000  1
  H  194  1  0.78874300  0.52522900  0.71400300  1
  H  195  1  0.86940100  0.49111700  0.72313400  1
  H  196  1  0.90816000  0.49071300  0.62874000  1
  H  197  1  0.82735900  0.52402300  0.61915300  1
  H  198  1  0.82606400  0.58679600  0.62455400  1
  H  199  1  0.82634100  0.60190200  0.57208900  1
  H  200  1  0.65218600  0.57116100  0.56319300  1
  H  201  1  0.65141400  0.55563200  0.61525400  1
  H  202  1  0.65974200  0.60029900  0.66903400  1
  H  203  1  0.83366000  0.58216600  0.69726600  1
  H  204  1  0.83316800  0.62938700  0.72618300  1
  H  205  1  0.66052300  0.64785500  0.69763900  1
  H  231  1  0.87078300  0.46505200  0.35605300  1
  H  232  1  0.78960800  0.49842000  0.36554400  1
  H  233  1  0.91391000  0.51808800  0.27766100  1
  H  234  1  0.83244300  0.55148200  0.28656400  1
  H  235  1  0.70365000  0.52538200  0.28247400  1
  H  236  1  0.62299100  0.49131700  0.27329700  1
  H  237  1  0.58429800  0.49075600  0.36769800  1
  H  238  1  0.66509700  0.52401800  0.37732800  1
  H  239  1  0.66643900  0.58681700  0.37198700  1
  H  240  1  0.66616200  0.60192100  0.42444100  1
  H  241  1  0.84030000  0.57103200  0.43334100  1
  H  242  1  0.84105100  0.55551500  0.38128500  1
  H  243  1  0.83297500  0.60013000  0.32752600  1
  H  244  1  0.65892200  0.58237800  0.29933400  1
  H  245  1  0.65964900  0.62962900  0.27045800  1
  H  246  1  0.83244800  0.64769800  0.29894300  1
  H  272  1  0.08747300  0.40936200  0.36791800  1
  H  273  1  0.16815800  0.37588300  0.37762800  1
  H  274  1  0.11966300  0.40376000  0.27298600  1
  H  275  1  0.19977900  0.36934500  0.28226300  1
  H  276  1  0.32668700  0.35048300  0.28472700  1
  H  277  1  0.40759100  0.38433700  0.27609900  1
  H  278  1  0.37181900  0.43173800  0.35882300  1
  H  279  1  0.29157100  0.39766600  0.36812400  1
  H  280  1  0.34218200  0.33995200  0.38052600  1
  H  281  1  0.34174400  0.32450500  0.43271200  1
  H  282  1  0.16535000  0.29724800  0.42510200  1
  H  283  1  0.16510400  0.31255400  0.37275800  1
  H  284  1  0.15481400  0.31133100  0.30745900  1
  H  285  1  0.33720700  0.30164200  0.32078900  1
  H  286  1  0.33595100  0.25449900  0.29151100  1
  H  287  1  0.15392300  0.26346700  0.27943600  1
  H  313  1  0.40513600  0.40944900  0.62867100  1
  H  314  1  0.32455000  0.37594200  0.61895000  1
  H  315  1  0.37305400  0.40374200  0.72360300  1
  H  316  1  0.29304400  0.36929100  0.71431900  1
  H  317  1  0.16616200  0.35048500  0.71185300  1
  H  318  1  0.08516300  0.38430900  0.72048100  1
  H  319  1  0.12070400  0.43167500  0.63772000  1
  H  320  1  0.20106700  0.39764300  0.62842200  1
  H  321  1  0.15058100  0.33993100  0.61607900  1
  H  322  1  0.15096600  0.32448400  0.56389100  1
  H  323  1  0.32745300  0.29731600  0.57139400  1
  H  324  1  0.32776100  0.31262000  0.62375600  1
  H  325  1  0.33803100  0.31130000  0.68907100  1
  H  326  1  0.15563200  0.30166600  0.67577200  1
  H  327  1  0.15693100  0.25450900  0.70503000  1
  H  328  1  0.33896700  0.26342400  0.71707700  1
  H  336  1  0.27271900  0.01393700  0.01896200  1
  H  337  1  0.26841800  0.03226400  0.05155100  1
  H  339  1  0.22506300  0.03214300  0.94500700  1
  H  340  1  0.22081300  0.01385900  0.97758100  1
  H  342  1  0.22580900  0.14616700  0.05209200  1
  H  343  1  0.22415100  0.16542200  0.01986100  1
  H  345  1  0.26755100  0.14609300  0.94449500  1
  H  346  1  0.26929800  0.16533600  0.97675100  1
  H  354  1  0.72047700  0.88413500  0.97771100  1
  H  355  1  0.72433400  0.86580100  0.94510500  1
  H  357  1  0.76911500  0.86587100  0.05149900  1
  H  358  1  0.77301100  0.88417700  0.01891900  1
  H  360  1  0.76752700  0.75197100  0.94446300  1
  H  361  1  0.76941800  0.73273800  0.97672600  1
  H  363  1  0.72617400  0.75193300  0.05209900  1
  H  364  1  0.72431000  0.73268400  0.01986600  1
  H  372  1  0.77254600  0.51390500  0.51888300  1
  H  373  1  0.76862100  0.53225800  0.55148000  1
  H  375  1  0.72382900  0.53221500  0.44509500  1
  H  376  1  0.71995500  0.51384600  0.47766500  1
  H  378  1  0.72553700  0.64612500  0.55206300  1
  H  379  1  0.72389700  0.66537300  0.51983200  1
  H  381  1  0.76710600  0.64605700  0.44443900  1
  H  382  1  0.76878900  0.66533000  0.47665600  1
  H  390  1  0.22136400  0.38379700  0.47722800  1
  H  391  1  0.22694500  0.36549800  0.44473400  1
  H  393  1  0.26543900  0.36558900  0.55175900  1
  H  394  1  0.27097200  0.38381800  0.51923100  1
  H  396  1  0.26778500  0.25139800  0.44453300  1
  H  397  1  0.26889200  0.23211200  0.47674100  1
  H  399  1  0.22505200  0.25147100  0.55203800  1
  H  400  1  0.22405700  0.23212000  0.51985700  1
  H  408  1  0.95314200  0.01696700  0.14570900  1
  H  409  1  0.02071300  0.02364900  0.15507900  1
  H  411  1  0.84845500  0.96282000  0.17169600  1
  H  412  1  0.87724000  0.99745600  0.16733100  1
  H  414  1  0.12949000  0.94400700  0.21398300  1
  H  415  1  0.09902700  0.91057800  0.22240900  1
  H  417  1  0.97361700  0.87177800  0.19515000  1
  H  418  1  0.04323400  0.87693100  0.20055800  1
  H  426  1  0.54019300  0.01697700  0.85076800  1
  H  427  1  0.47259800  0.02367300  0.84143400  1
  H  429  1  0.64487700  0.96281100  0.82473100  1
  H  430  1  0.61607800  0.99745300  0.82911200  1
  H  432  1  0.36399700  0.94414300  0.78243400  1
  H  433  1  0.39458900  0.91071400  0.77395900  1
  H  435  1  0.51974900  0.87178200  0.80125800  1
  H  436  1  0.45016000  0.87693800  0.79583300  1
  H  444  1  0.04202800  0.88096100  0.85072000  1
  H  445  1  0.97464100  0.87383600  0.84125700  1
  H  447  1  0.14571300  0.93554900  0.82443800  1
  H  448  1  0.11765900  0.90073000  0.82891300  1
  H  450  1  0.86518400  0.95236900  0.78127600  1
  H  451  1  0.89496600  0.98600200  0.77293400  1
  H  453  1  0.01868700  0.02584300  0.80090600  1
  H  454  1  0.94937700  0.02016300  0.79505300  1
  H  462  1  0.45125600  0.88078800  0.14597000  1
  H  463  1  0.51861300  0.87369800  0.15544800  1
  H  465  1  0.34748400  0.93558100  0.17190300  1
  H  466  1  0.37561100  0.90078200  0.16749500  1
  H  468  1  0.62805700  0.95232400  0.21528400  1
  H  469  1  0.59826800  0.98597600  0.22359900  1
  H  471  1  0.47454800  0.02581500  0.19554900  1
  H  472  1  0.54388200  0.02014200  0.20141700  1
  H  480  1  0.45021700  0.51693300  0.64662000  1
  H  481  1  0.51770200  0.52410000  0.65588100  1
  H  483  1  0.34725500  0.46190900  0.67281500  1
  H  484  1  0.37511900  0.49681000  0.66871300  1
  H  486  1  0.62828800  0.44513300  0.71481500  1
  H  487  1  0.59890100  0.41127000  0.72269000  1
  H  489  1  0.47584800  0.37143500  0.69382400  1
  H  490  1  0.54514200  0.37733400  0.69965700  1
  H  498  1  0.04207300  0.51685800  0.34996400  1
  H  499  1  0.97455800  0.52398500  0.34071000  1
  H  501  1  0.14522000  0.46189300  0.32378300  1
  H  502  1  0.11723800  0.49677900  0.32786900  1
  H  504  1  0.86444800  0.44502500  0.28166600  1
  H  505  1  0.89407800  0.41118600  0.27375000  1
  H  507  1  0.01695600  0.37132400  0.30268700  1
  H  508  1  0.94768600  0.37716500  0.29680900  1
  H  516  1  0.53870300  0.38101500  0.34973100  1
  H  517  1  0.47095500  0.37466000  0.34050200  1
  H  519  1  0.64334600  0.43542600  0.32413800  1
  H  520  1  0.61440100  0.40079800  0.32826900  1
  H  522  1  0.36128000  0.45579800  0.28417100  1
  H  523  1  0.39197400  0.48916600  0.27579000  1
  H  525  1  0.51916100  0.52705600  0.30196900  1
  H  526  1  0.44936900  0.52233200  0.29700300  1
  H  534  1  0.95407200  0.38071700  0.64692400  1
  H  535  1  0.02177200  0.37443700  0.65622700  1
  H  537  1  0.84916100  0.43529700  0.67202100  1
  H  538  1  0.87824700  0.40069500  0.66800900  1
  H  540  1  0.13111700  0.45575400  0.71243800  1
  H  541  1  0.10032300  0.48912400  0.72075500  1
  H  543  1  0.97315600  0.52694300  0.69437500  1
  H  544  1  0.04295400  0.52226000  0.69942800  1
  H  552  1  0.27853600  0.21923500  0.17502100  1
  H  553  1  0.27195200  0.18125800  0.17370300  1
  H  555  1  0.23986600  0.27656800  0.22880400  1
  H  556  1  0.23663400  0.25831400  0.19619500  1
  H  558  1  0.22175900  0.12190200  0.26688300  1
  H  559  1  0.21332300  0.14012700  0.29923100  1
  H  561  1  0.24705200  0.21581500  0.32512800  1
  H  562  1  0.25244500  0.17775200  0.32398000  1
  H  570  1  0.21445400  0.21924400  0.82150800  1
  H  571  1  0.22102600  0.18126400  0.82283000  1
  H  573  1  0.25308700  0.27655200  0.76771900  1
  H  574  1  0.25637900  0.25829700  0.80032500  1
  H  576  1  0.27138000  0.12192100  0.72968500  1
  H  577  1  0.27987800  0.14018200  0.69733700  1
  H  579  1  0.24591900  0.21578700  0.67137800  1
  H  580  1  0.24066200  0.17773600  0.67250100  1
  H  588  1  0.70492700  0.68062200  0.82179700  1
  H  589  1  0.71143900  0.71851600  0.82209600  1
  H  591  1  0.70125100  0.62379100  0.76336900  1
  H  592  1  0.68029400  0.64307300  0.79339000  1
  H  594  1  0.79022200  0.77423500  0.73310500  1
  H  595  1  0.81100000  0.75509300  0.70298900  1
  H  597  1  0.78196200  0.67916700  0.67464900  1
  H  598  1  0.78887900  0.71701100  0.67486900  1
  H  606  1  0.78948900  0.68072100  0.17487500  1
  H  607  1  0.78292100  0.71859400  0.17463100  1
  H  609  1  0.79112700  0.62362600  0.23318800  1
  H  610  1  0.81218700  0.64278700  0.20313400  1
  H  612  1  0.70301500  0.77428700  0.26340900  1
  H  613  1  0.68192400  0.75510500  0.29344400  1
  H  615  1  0.71151300  0.67935900  0.32198600  1
  H  616  1  0.70498800  0.71723900  0.32173400  1
  N  335  1  0.26051100  0.03269300  0.02976500  1
  N  338  1  0.23265400  0.03271600  0.96682100  1
  N  341  1  0.23285500  0.14586500  0.03020100  1
  N  344  1  0.26021200  0.14586800  0.96635500  1
  N  353  1  0.73257400  0.86538800  0.96685800  1
  N  356  1  0.76121400  0.86533100  0.02971100  1
  N  359  1  0.76027700  0.75220300  0.96633200  1
  N  362  1  0.73310900  0.75222900  0.03019900  1
  N  371  1  0.76041000  0.53265400  0.52972300  1
  N  374  1  0.73188100  0.53265900  0.46687500  1
  N  377  1  0.73258400  0.64581800  0.53017300  1
  N  380  1  0.76005500  0.64577800  0.46632900  1
  N  389  1  0.23348300  0.36489200  0.46664200  1
  N  392  1  0.25889800  0.36493200  0.52985800  1
  N  395  1  0.26044900  0.25169600  0.46639700  1
  N  398  1  0.23255200  0.25169600  0.53018500  1
  N  407  1  0.98654600  0.01052300  0.15772300  1
  N  410  1  0.88374700  0.97503000  0.16876400  1
  N  413  1  0.09730000  0.92967300  0.21041300  1
  N  416  1  0.00530100  0.88656700  0.19797100  1
  N  425  1  0.50677500  0.01054200  0.83876900  1
  N  428  1  0.60958300  0.97503000  0.82768000  1
  N  431  1  0.39596900  0.92969600  0.78613000  1
  N  434  1  0.48802400  0.88659500  0.79858000  1
  N  443  1  0.00857300  0.88713500  0.83860400  1
  N  446  1  0.11072700  0.92311600  0.82752400  1
  N  449  1  0.89686800  0.96698200  0.78503400  1
  N  452  1  0.98745300  0.01079300  0.79799200  1
  N  461  1  0.48476800  0.88710900  0.15796400  1
  N  464  1  0.38254500  0.92316300  0.16897100  1
  N  467  1  0.59637600  0.96694700  0.21151100  1
  N  470  1  0.50580400  0.01077900  0.19854100  1
  N  479  1  0.48389300  0.51071200  0.65854400  1
  N  482  1  0.38217200  0.47440700  0.66978600  1
  N  485  1  0.59679600  0.43045900  0.71084600  1
  N  488  1  0.50679900  0.38654100  0.69721800  1
  N  497  1  0.00841300  0.51061800  0.33804100  1
  N  500  1  0.11026000  0.47437200  0.32680300  1
  N  503  1  0.89574700  0.43026600  0.28577200  1
  N  506  1  0.98592500  0.38643600  0.29943200  1
  N  515  1  0.50513200  0.38781600  0.33803600  1
  N  518  1  0.60805000  0.42324500  0.32717800  1
  N  521  1  0.39388400  0.46991200  0.28752700  1
  N  524  1  0.48709500  0.51243700  0.29947600  1
  N  533  1  0.98764300  0.38768400  0.65851400  1
  N  536  1  0.88456000  0.42314400  0.66917800  1
  N  539  1  0.09849500  0.46985800  0.70903700  1
  N  542  1  0.00525500  0.51235100  0.69698500  1
  N  551  1  0.26561900  0.20036500  0.18531000  1
  N  554  1  0.24360900  0.25680200  0.21798600  1
  N  557  1  0.22646300  0.14130900  0.27822400  1
  N  560  1  0.24480800  0.19693500  0.31280400  1
  N  569  1  0.22737000  0.20036600  0.81122200  1
  N  572  1  0.24936500  0.25678800  0.77853800  1
  N  575  1  0.26643000  0.14127600  0.71829400  1
  N  578  1  0.24798700  0.19691900  0.68373400  1
  N  587  1  0.71072400  0.69948900  0.80992800  1
  N  590  1  0.70230900  0.64343700  0.77455600  1
  N  593  1  0.78951500  0.75454900  0.72197700  1
  N  596  1  0.78229500  0.69824100  0.68675600  1
  N  605  1  0.78317700  0.69953200  0.18675600  1
  N  608  1  0.79045000  0.64330800  0.22205000  1
  N  611  1  0.70370500  0.75460300  0.27454100  1
  N  614  1  0.71111700  0.69841400  0.30985100  1
  Si  7  1  0.24471900  0.05314900  0.16019900  1
  Si  48  1  0.24842500  0.05314700  0.83636700  1
  Si  89  1  0.74874300  0.84485600  0.83630800  1
  Si  130  1  0.74467300  0.84484700  0.16023700  1
  Si  171  1  0.74402200  0.55307300  0.66018400  1
  Si  212  1  0.74846200  0.55306400  0.33634300  1
  Si  253  1  0.24839000  0.34477800  0.33659300  1
  Si  294  1  0.24441700  0.34478600  0.65997100  1
