# generated using pymatgen
data_H29(C20N3)2
_symmetry_space_group_name_H-M   'P 1'
_cell_length_a   10.56226667
_cell_length_b   64.04030000
_cell_length_c   64.04030000
_cell_angle_alpha   60.00000000
_cell_angle_beta   89.99820000
_cell_angle_gamma   89.99640000
_symmetry_Int_Tables_number   1
_chemical_formula_structural   H29(C20N3)2
_chemical_formula_sum   'H174 C240 N36'
_cell_volume   37514.09503317
_cell_formula_units_Z   6
loop_
 _symmetry_equiv_pos_site_id
 _symmetry_equiv_pos_as_xyz
  1  'x, y, z'
loop_
 _atom_site_type_symbol
 _atom_site_label
 _atom_site_symmetry_multiplicity
 _atom_site_fract_x
 _atom_site_fract_y
 _atom_site_fract_z
 _atom_site_occupancy
  C  1  1  0.05614300  0.01788400  0.47433733  1
  C  2  1  0.05606200  0.04273767  0.46100533  1
  C  3  1  0.04021700  0.05158567  0.47684800  1
  C  5  1  0.04007500  0.01102300  0.49860000  1
  C  6  1  0.03243400  0.98682700  0.51792367  1
  C  7  1  0.02903500  0.97990633  0.54270300  1
  C  9  1  0.03401200  0.98166067  0.57666267  1
  C  10  1  0.02169600  0.95747067  0.58306800  1
  C  11  1  0.01796800  0.95639967  0.56209167  1
  C  12  1  0.04178500  0.99074300  0.59276533  1
  C  13  1  0.04636200  0.01559333  0.58570167  1
  C  15  1  0.03667600  0.05609933  0.56397867  1
  C  16  1  0.05472100  0.04937733  0.58816567  1
  C  17  1  0.06032700  0.02455467  0.60148500  1
  C  18  1  0.02232900  0.08019700  0.54473167  1
  C  19  1  0.01673800  0.08709500  0.51997267  1
  C  21  1  0.02136100  0.08539300  0.48598033  1
  C  22  1  0.00436300  0.10947500  0.47965433  1
  C  23  1  0.00067900  0.11050467  0.50065500  1
  C  24  1  0.03078700  0.07638567  0.46983233  1
  C  25  1  0.02546700  0.09341000  0.44475867  1
  C  26  1  0.90840800  0.09858333  0.43257467  1
  C  27  1  0.90247700  0.11473567  0.40763833  1
  C  28  1  0.01297500  0.12615167  0.39420667  1
  C  29  1  0.12994300  0.12089100  0.40665367  1
  C  30  1  0.13627200  0.10476033  0.43165433  1
  C  31  1  0.00586500  0.14168533  0.36871900  1
  C  32  1  0.09230300  0.13936200  0.35307233  1
  C  33  1  0.07764000  0.15307700  0.32788367  1
  C  34  1  0.97579400  0.16937900  0.31780400  1
  C  35  1  0.89132500  0.17230267  0.33314633  1
  C  36  1  0.90672000  0.15875300  0.35828400  1
  C  37  1  0.01956800  0.09891467  0.55055400  1
  C  38  1  0.91098200  0.10282133  0.56105400  1
  C  39  1  0.91124900  0.12075967  0.56763033  1
  C  40  1  0.01902900  0.13544167  0.56327733  1
  C  41  1  0.12718400  0.13156900  0.55264333  1
  C  42  1  0.12786000  0.11337400  0.54650433  1
  C  43  1  0.02386600  0.15287700  0.57065700  1
  C  44  1  0.02355100  0.14550933  0.59547533  1
  C  45  1  0.05478100  0.16196267  0.60315867  1
  C  46  1  0.08500100  0.18604733  0.58618767  1
  C  47  1  0.07888900  0.19375333  0.56133200  1
  C  48  1  0.04952700  0.17726267  0.55364433  1
  C  49  1  0.03520900  0.97380233  0.61784533  1
  C  50  1  0.14561600  0.96339900  0.63159567  1
  C  51  1  0.13692600  0.94749033  0.65662600  1
  C  52  1  0.01800600  0.94152300  0.66844533  1
  C  53  1  0.90810000  0.95205900  0.65435967  1
  C  54  1  0.91634200  0.96797933  0.62941700  1
  C  55  1  0.00758200  0.92602400  0.69390333  1
  C  56  1  0.91016500  0.90850800  0.70372733  1
  C  57  1  0.89035300  0.89495567  0.72873233  1
  C  58  1  0.96892900  0.89823000  0.74460733  1
  C  59  1  0.06944400  0.91493100  0.73518767  1
  C  60  1  0.08823400  0.92872500  0.71009000  1
  C  61  1  0.03412900  0.96804400  0.51219133  1
  C  62  1  0.14573500  0.95450700  0.51579233  1
  C  63  1  0.92535900  0.96271700  0.50285267  1
  C  64  1  0.92843700  0.94420500  0.49708567  1
  C  65  1  0.03946000  0.93041333  0.50109200  1
  C  66  1  0.14806300  0.93575100  0.51044900  1
  C  67  1  0.04610600  0.91224833  0.49476367  1
  C  68  1  0.06545600  0.88794900  0.51273233  1
  C  69  1  0.09279600  0.87045267  0.50624967  1
  C  70  1  0.10486900  0.87712900  0.48170667  1
  C  71  1  0.08322000  0.90127700  0.46379367  1
  C  72  1  0.05220000  0.91867667  0.47022633  1
  C  123  1  0.38889300  0.47232833  0.60845667  1
  C  124  1  0.38881000  0.45900167  0.59692967  1
  C  125  1  0.37311000  0.47485200  0.57223733  1
  C  127  1  0.37299800  0.49659633  0.59105700  1
  C  128  1  0.36541400  0.51591833  0.59593233  1
  C  129  1  0.36212300  0.54070033  0.57808233  1
  C  131  1  0.36732700  0.57466967  0.54237433  1
  C  132  1  0.35537800  0.58106900  0.56016933  1
  C  133  1  0.35146700  0.56008767  0.58221167  1
  C  134  1  0.37490000  0.59078167  0.51718733  1
  C  135  1  0.37905200  0.58373300  0.49938633  1
  C  137  1  0.36950300  0.56201733  0.48058633  1
  C  138  1  0.38690600  0.58622367  0.46312067  1
  C  139  1  0.39247300  0.59953567  0.47463267  1
  C  140  1  0.35568200  0.54276000  0.47573700  1
  C  141  1  0.35033200  0.51799533  0.49359233  1
  C  143  1  0.35472600  0.48399833  0.52928533  1
  C  144  1  0.33804200  0.47767667  0.51151967  1
  C  145  1  0.33453200  0.49867933  0.48949067  1
  C  146  1  0.36386000  0.46784433  0.55444500  1
  C  147  1  0.35854000  0.44277233  0.56248567  1
  C  148  1  0.24148100  0.43058967  0.56949167  1
  C  149  1  0.23556900  0.40565100  0.57828867  1
  C  150  1  0.34606600  0.39221900  0.58029933  1
  C  151  1  0.46302500  0.40466733  0.57310767  1
  C  152  1  0.46934100  0.42966967  0.56422933  1
  C  153  1  0.33897500  0.36672867  0.59027367  1
  C  154  1  0.42542400  0.35109300  0.60824700  1
  C  155  1  0.41082000  0.32590267  0.61973433  1
  C  156  1  0.30896700  0.31581067  0.61353067  1
  C  157  1  0.22451000  0.33113967  0.59525500  1
  C  158  1  0.23981900  0.35627967  0.58366267  1
  C  159  1  0.35306400  0.54858267  0.45119600  1
  C  160  1  0.24445100  0.55904933  0.43678367  1
  C  161  1  0.24483000  0.56562667  0.41227033  1
  C  162  1  0.35275600  0.56131267  0.40194567  1
  C  163  1  0.46090900  0.55069467  0.41645900  1
  C  164  1  0.46149200  0.54456800  0.44079000  1
  C  165  1  0.35772200  0.56870867  0.37713033  1
  C  166  1  0.35768500  0.59353167  0.35969433  1
  C  167  1  0.38922200  0.60120467  0.33557133  1
  C  168  1  0.41863700  0.58423033  0.32841867  1
  C  169  1  0.41217300  0.55937733  0.34556133  1
  C  170  1  0.38306100  0.55169400  0.36974767  1
  C  171  1  0.36845800  0.61586067  0.50906233  1
  C  172  1  0.47894900  0.62959400  0.50570000  1
  C  173  1  0.47037700  0.65462567  0.49657933  1
  C  174  1  0.35149700  0.66646133  0.49075867  1
  C  175  1  0.24151900  0.65239167  0.49431867  1
  C  176  1  0.24962900  0.62744533  0.50335433  1
  C  177  1  0.34118100  0.69192267  0.48079333  1
  C  178  1  0.24384300  0.70176467  0.48848433  1
  C  179  1  0.22405600  0.72677200  0.47701400  1
  C  180  1  0.30264200  0.74263267  0.45785767  1
  C  181  1  0.40319000  0.73319833  0.45059633  1
  C  182  1  0.42179300  0.70809600  0.46188967  1
  C  183  1  0.36729400  0.51017700  0.62045033  1
  C  184  1  0.47907300  0.51372967  0.63037300  1
  C  185  1  0.25852400  0.50088633  0.63512733  1
  C  186  1  0.26175100  0.49513500  0.65940033  1
  C  187  1  0.37295100  0.49909700  0.66917100  1
  C  188  1  0.48157700  0.50839000  0.65446933  1
  C  189  1  0.37971400  0.49281500  0.69365000  1
  C  190  1  0.39927400  0.51081867  0.69992500  1
  C  191  1  0.42680600  0.50437933  0.72388500  1
  C  192  1  0.43864000  0.47984733  0.74179433  1
  C  193  1  0.41675200  0.46190133  0.73561800  1
  C  194  1  0.38581200  0.46829133  0.71179433  1
  C  245  1  0.72202900  0.60646667  0.01985633  1
  C  246  1  0.72215700  0.59493500  0.04471200  1
  C  247  1  0.70674800  0.57023600  0.05355700  1
  C  249  1  0.70637400  0.58906167  0.01298767  1
  C  250  1  0.69883200  0.59393167  0.98879200  1
  C  251  1  0.69549900  0.57607833  0.98186367  1
  C  253  1  0.70065600  0.54036967  0.98360400  1
  C  254  1  0.68849300  0.55816133  0.95941300  1
  C  255  1  0.68461100  0.58020367  0.95835167  1
  C  256  1  0.70854500  0.51518667  0.99267867  1
  C  257  1  0.71325100  0.49739500  0.01752633  1
  C  259  1  0.70362200  0.47859567  0.05803400  1
  C  260  1  0.72154100  0.46113600  0.05130033  1
  C  261  1  0.72691700  0.47264633  0.02647533  1
  C  262  1  0.68946000  0.47373600  0.08213767  1
  C  263  1  0.68410000  0.49158700  0.08905200  1
  C  265  1  0.68871100  0.52727567  0.08736433  1
  C  266  1  0.67189200  0.50951033  0.11144767  1
  C  267  1  0.66822300  0.48748433  0.11246867  1
  C  268  1  0.69790100  0.55243367  0.07836100  1
  C  269  1  0.69245700  0.56047300  0.09539333  1
  C  270  1  0.57532100  0.56745700  0.10056833  1
  C  271  1  0.56924800  0.57623567  0.11672367  1
  C  272  1  0.67967800  0.57827133  0.12814300  1
  C  273  1  0.79671900  0.57110167  0.12288900  1
  C  274  1  0.80319000  0.56223533  0.10675600  1
  C  275  1  0.67241200  0.58824067  0.14366233  1
  C  276  1  0.75873800  0.60622733  0.14133267  1
  C  277  1  0.74374000  0.61775833  0.15498700  1
  C  278  1  0.64178400  0.61154933  0.17126433  1
  C  279  1  0.55751200  0.59324900  0.17421533  1
  C  280  1  0.57313700  0.58162933  0.16070100  1
  C  281  1  0.68655200  0.44919333  0.10084633  1
  C  282  1  0.57780200  0.43482633  0.10475467  1
  C  283  1  0.57787300  0.41031267  0.12269433  1
  C  284  1  0.68562400  0.39994767  0.13737300  1
  C  285  1  0.79395400  0.41441133  0.13349767  1
  C  286  1  0.79483000  0.43874267  0.11529733  1
  C  287  1  0.69028200  0.37513100  0.15480767  1
  C  288  1  0.69018500  0.35767967  0.14744367  1
  C  289  1  0.72147800  0.33355367  0.16392000  1
  C  290  1  0.75127300  0.32645167  0.18801933  1
  C  291  1  0.74458900  0.34359600  0.19572700  1
  C  292  1  0.71548600  0.36777867  0.17920333  1
  C  293  1  0.70203200  0.50705700  0.97573033  1
  C  294  1  0.81248700  0.50370767  0.96533933  1
  C  295  1  0.80388000  0.49458467  0.94943067  1
  C  296  1  0.68499500  0.48874100  0.94344433  1
  C  297  1  0.57504300  0.49228533  0.95397467  1
  C  298  1  0.58319900  0.50132167  0.96988467  1
  C  299  1  0.67467000  0.47878400  0.92794300  1
  C  300  1  0.57725800  0.48646367  0.91042533  1
  C  301  1  0.55740800  0.47498567  0.89689833  1
  C  302  1  0.63598600  0.45582867  0.90019000  1
  C  303  1  0.73656000  0.44857033  0.91687833  1
  C  304  1  0.75527000  0.45987900  0.93066867  1
  C  305  1  0.70071300  0.61844667  0.97001067  1
  C  306  1  0.81245800  0.62835967  0.95651833  1
  C  307  1  0.59197500  0.63313133  0.96463500  1
  C  308  1  0.59523700  0.65740900  0.94612267  1
  C  309  1  0.70640600  0.66716967  0.93237433  1
  C  310  1  0.81495800  0.65245433  0.93775433  1
  C  311  1  0.71321800  0.69165367  0.91419300  1
  C  312  1  0.73244200  0.69796667  0.88989600  1
  C  313  1  0.76015000  0.72192933  0.87240633  1
  C  314  1  0.77208800  0.73981100  0.87906300  1
  C  315  1  0.75056800  0.73359267  0.90320800  1
  C  316  1  0.71966100  0.70976033  0.92062167  1
  C  367  1  0.95493900  0.22410567  0.26448833  1
  C  368  1  0.90170300  0.23554367  0.27638733  1
  C  369  1  0.82320600  0.25573033  0.26344800  1
  C  370  1  0.79784500  0.26389900  0.23892167  1
  C  375  1  0.72462700  0.28609267  0.22343000  1
  C  378  1  0.03521800  0.20244133  0.27724067  1
  C  381  1  0.28833600  0.26249433  0.61213500  1
  C  382  1  0.23540200  0.27439700  0.58877300  1
  C  383  1  0.15703800  0.26146867  0.58149467  1
  C  384  1  0.13149000  0.23694700  0.59784633  1
  C  389  1  0.05833900  0.22147133  0.59111467  1
  C  392  1  0.36849500  0.27523533  0.62107467  1
  C  395  1  0.62059300  0.61027967  0.22592533  1
  C  396  1  0.56731700  0.58694733  0.23735900  1
  C  397  1  0.48906700  0.57968267  0.25758000  1
  C  398  1  0.46403900  0.59601233  0.26579900  1
  C  403  1  0.39123100  0.58927633  0.28804300  1
  C  406  1  0.70082300  0.61918667  0.20425467  1
  C  409  1  0.94169100  0.84344100  0.79997900  1
  C  410  1  0.86445500  0.83303000  0.78962067  1
  C  411  1  0.78920100  0.81296567  0.80461533  1
  C  412  1  0.79258500  0.80360700  0.82975933  1
  C  417  1  0.72703700  0.78101900  0.84694700  1
  C  420  1  0.02346900  0.86440200  0.78498467  1
  C  423  1  0.27522900  0.79801867  0.45723233  1
  C  424  1  0.19805900  0.78765700  0.47801133  1
  C  425  1  0.12273400  0.80264500  0.48307967  1
  C  426  1  0.12596100  0.82778600  0.46727667  1
  C  431  1  0.06021900  0.84497067  0.47265933  1
  C  434  1  0.35708600  0.78302967  0.45126900  1
  C  437  1  0.60830600  0.45519033  0.84543633  1
  C  438  1  0.53076600  0.47591967  0.83506433  1
  C  439  1  0.45540400  0.48096967  0.81501900  1
  C  440  1  0.45905900  0.46521067  0.80563067  1
  C  445  1  0.39349400  0.47062200  0.78304067  1
  C  448  1  0.69027300  0.44925767  0.86636667  1
  H  73  1  0.09514000  0.90649200  0.44598933  1
  H  74  1  0.04365400  0.93632067  0.45691667  1
  H  75  1  0.11280300  0.85319900  0.51945433  1
  H  76  1  0.06499900  0.88301233  0.53060833  1
  H  77  1  0.23045200  0.92633300  0.51302267  1
  H  78  1  0.22590300  0.95818567  0.52235733  1
  H  79  1  0.84899900  0.94072500  0.49018033  1
  H  80  1  0.84368800  0.97237700  0.50004467  1
  H  81  1  0.06534500  0.00686633  0.46714633  1
  H  82  1  0.06476800  0.05249900  0.44266500  1
  H  83  1  0.01315200  0.03256567  0.51344133  1
  H  84  1  0.01492000  0.03435667  0.54924067  1
  H  85  1  0.00883200  0.94086900  0.56140033  1
  H  86  1  0.01568700  0.94287200  0.60005867  1
  H  87  1  0.23280500  0.96754900  0.62353767  1
  H  88  1  0.21848500  0.94016933  0.66613100  1
  H  89  1  0.83518500  0.97556700  0.61984300  1
  H  90  1  0.82057800  0.94883700  0.66223233  1
  H  91  1  0.07098800  0.01487600  0.61979067  1
  H  92  1  0.06117000  0.06044200  0.59534733  1
  H  93  1  0.99506400  0.12402233  0.46270167  1
  H  94  1  0.98868800  0.12595167  0.50140533  1
  H  95  1  0.83196100  0.09237133  0.56434400  1
  H  96  1  0.83225400  0.12309533  0.57549800  1
  H  97  1  0.20816400  0.11064333  0.53922900  1
  H  98  1  0.20770100  0.14153333  0.54986900  1
  H  99  1  0.05402600  0.18288633  0.53562200  1
  H  100  1  0.10522600  0.21091467  0.54884233  1
  H  101  1  0.06274800  0.15595933  0.62120867  1
  H  102  1  0.01022600  0.12776767  0.60818700  1
  H  103  1  0.22219600  0.10114933  0.44016133  1
  H  104  1  0.21179700  0.12886133  0.39762633  1
  H  105  1  0.84282200  0.16114033  0.36892467  1
  H  106  1  0.81665300  0.18396933  0.32609767  1
  H  107  1  0.13836400  0.15048900  0.31694000  1
  H  108  1  0.16327500  0.12681600  0.35986067  1
  H  109  1  0.81653100  0.11750767  0.39927633  1
  H  110  1  0.82708000  0.09036033  0.44169100  1
  H  111  1  0.85067000  0.90575433  0.69271900  1
  H  112  1  0.81689800  0.88295100  0.73527833  1
  H  113  1  0.15776500  0.94157133  0.70374300  1
  H  114  1  0.12616500  0.91770200  0.74652067  1
  H  119  1  0.22476300  0.20659533  0.58660833  1
  H  120  1  0.92777000  0.89641733  0.77628000  1
  H  121  1  0.22791000  0.85151500  0.48584567  1
  H  122  1  0.94123000  0.17015733  0.28651033  1
  H  195  1  0.42832800  0.44410067  0.74824567  1
  H  196  1  0.37676000  0.45496067  0.70750067  1
  H  197  1  0.44670300  0.51761567  0.72789500  1
  H  198  1  0.39881400  0.52868533  0.68695900  1
  H  199  1  0.56405400  0.51095033  0.66129900  1
  H  200  1  0.55923100  0.52026667  0.62011800  1
  H  201  1  0.18230400  0.48826967  0.66979467  1
  H  202  1  0.17673100  0.49811467  0.62828267  1
  H  203  1  0.39804800  0.46513167  0.62666667  1
  H  204  1  0.39749100  0.44066133  0.60550533  1
  H  205  1  0.34619400  0.51144833  0.55466900  1
  H  206  1  0.34925800  0.54722700  0.51711500  1
  H  207  1  0.34244900  0.55939167  0.59843833  1
  H  208  1  0.34945100  0.59805767  0.55778533  1
  H  209  1  0.56611400  0.62152767  0.50956967  1
  H  210  1  0.55199400  0.66412000  0.49437633  1
  H  211  1  0.16841100  0.61788567  0.50534767  1
  H  212  1  0.15400600  0.66027333  0.48970367  1
  H  213  1  0.40302000  0.61784233  0.46600967  1
  H  214  1  0.39336400  0.59341367  0.44487367  1
  H  215  1  0.32885100  0.46072567  0.51391800  1
  H  216  1  0.32270600  0.49943133  0.47328867  1
  H  217  1  0.16531000  0.56230267  0.44394433  1
  H  218  1  0.16583100  0.57347833  0.40206000  1
  H  219  1  0.54182500  0.53732700  0.45079700  1
  H  220  1  0.54156500  0.54797533  0.40926167  1
  H  221  1  0.38686400  0.53365967  0.38213100  1
  H  222  1  0.43779100  0.54686667  0.34086967  1
  H  223  1  0.39743300  0.61925433  0.32353700  1
  H  224  1  0.34511000  0.60624067  0.36475000  1
  H  225  1  0.55527800  0.43817333  0.55934933  1
  H  226  1  0.54488800  0.39563833  0.57417133  1
  H  227  1  0.17590300  0.36691133  0.57063433  1
  H  228  1  0.14976700  0.32408133  0.59066433  1
  H  229  1  0.47156800  0.31496800  0.63326533  1
  H  230  1  0.49645900  0.35788800  0.61398433  1
  H  231  1  0.14963600  0.39728700  0.58389100  1
  H  232  1  0.16016900  0.43970100  0.56862300  1
  H  233  1  0.18436900  0.69076833  0.50225700  1
  H  234  1  0.15063900  0.73332867  0.48246967  1
  H  235  1  0.49128600  0.70174000  0.45539033  1
  H  236  1  0.45975100  0.74451667  0.43645733  1
  H  241  1  0.55794400  0.58456600  0.30740533  1
  H  242  1  0.26150700  0.77428833  0.42797467  1
  H  243  1  0.56087300  0.48415233  0.76329733  1
  H  244  1  0.27442700  0.28453400  0.64406033  1
  H  317  1  0.76232200  0.74619767  0.90840767  1
  H  318  1  0.71083300  0.70543533  0.93825967  1
  H  319  1  0.77967300  0.72598867  0.85513200  1
  H  320  1  0.73182200  0.68502000  0.88497033  1
  H  321  1  0.89744100  0.65928267  0.92836800  1
  H  322  1  0.89259400  0.61810000  0.96022967  1
  H  323  1  0.51581900  0.66780900  0.94260367  1
  H  324  1  0.51020800  0.62629533  0.97426433  1
  H  325  1  0.73120300  0.62467567  0.00884367  1
  H  326  1  0.73094800  0.60350833  0.05447600  1
  H  327  1  0.68069100  0.55263467  0.03454300  1
  H  328  1  0.68206500  0.51508100  0.03630800  1
  H  329  1  0.67550800  0.59642900  0.94282233  1
  H  330  1  0.68250500  0.55577500  0.94481100  1
  H  331  1  0.89966100  0.50759367  0.96951567  1
  H  332  1  0.88547700  0.49239267  0.94212500  1
  H  333  1  0.50200000  0.50331733  0.97745600  1
  H  334  1  0.48752400  0.48766633  0.95071833  1
  H  335  1  0.73743700  0.46402267  0.01679133  1
  H  336  1  0.72769500  0.44288400  0.06235600  1
  H  337  1  0.66275200  0.51190600  0.12600333  1
  H  338  1  0.65633600  0.47128267  0.12791600  1
  H  339  1  0.49877100  0.44201967  0.09431567  1
  H  340  1  0.49875300  0.40013833  0.12503600  1
  H  341  1  0.87525200  0.44871867  0.11256167  1
  H  342  1  0.87447700  0.40718633  0.14345067  1
  H  343  1  0.71977600  0.38019067  0.18481333  1
  H  344  1  0.77087800  0.33895367  0.21288333  1
  H  345  1  0.72983700  0.32150633  0.15792333  1
  H  346  1  0.67734800  0.36272333  0.12968733  1
  H  347  1  0.88917500  0.55736233  0.10314100  1
  H  348  1  0.87853400  0.57218033  0.13085633  1
  H  349  1  0.50932100  0.56858767  0.16309600  1
  H  350  1  0.48271200  0.58865133  0.18585267  1
  H  351  1  0.80430400  0.63131833  0.15237400  1
  H  352  1  0.82966000  0.61200733  0.12877467  1
  H  353  1  0.48327200  0.58184133  0.11946500  1
  H  354  1  0.49405700  0.56657833  0.09232000  1
  H  355  1  0.51768300  0.50021667  0.90767333  1
  H  356  1  0.48386900  0.48042067  0.88491400  1
  H  357  1  0.82481900  0.45338700  0.94351233  1
  H  358  1  0.79319700  0.43444667  0.91967633  1
  H  363  1  0.89098800  0.30552600  0.20863333  1
  H  364  1  0.59492100  0.42593833  0.89842433  1
  H  365  1  0.89474100  0.76131567  0.85337133  1
  H  366  1  0.60675200  0.64209867  0.17194733  1
  H  372  1  0.78653800  0.26441633  0.27182700  1
  H  373  1  0.92077600  0.22950867  0.29416900  1
  H  376  1  0.64172300  0.28124767  0.21654233  1
  H  377  1  0.69131000  0.29428867  0.23387267  1
  H  379  1  0.10836100  0.20571900  0.28740367  1
  H  380  1  0.08377300  0.19883833  0.26428400  1
  H  386  1  0.12065300  0.26984667  0.56440833  1
  H  387  1  0.25467400  0.29216933  0.57702433  1
  H  390  1  0.97524000  0.21462067  0.60279933  1
  H  391  1  0.02533100  0.23191700  0.57245633  1
  H  393  1  0.44177000  0.28538767  0.60766133  1
  H  394  1  0.41688900  0.26226800  0.63765033  1
  H  400  1  0.45248400  0.56261167  0.26627667  1
  H  401  1  0.58628000  0.57520600  0.23131267  1
  H  404  1  0.30839500  0.60102000  0.28326400  1
  H  405  1  0.35781100  0.57064667  0.29622100  1
  H  407  1  0.77417400  0.60577233  0.20756167  1
  H  408  1  0.74911700  0.63578300  0.20060800  1
  H  414  1  0.73546700  0.80501267  0.79723300  1
  H  415  1  0.86415200  0.83964800  0.77140867  1
  H  418  1  0.66166800  0.78497267  0.85775633  1
  H  419  1  0.67184900  0.77394600  0.83737800  1
  H  421  1  0.08676100  0.85956600  0.77451100  1
  H  422  1  0.08272400  0.86880700  0.79625867  1
  H  428  1  0.06905600  0.79526167  0.49842233  1
  H  429  1  0.19791700  0.76944767  0.48962200  1
  H  432  1  0.99469200  0.85573300  0.45790900  1
  H  433  1  0.00516700  0.83539767  0.48931833  1
  H  435  1  0.42042500  0.77257167  0.46657400  1
  H  436  1  0.41629300  0.79430933  0.43558233  1
  H  442  1  0.40161800  0.49629967  0.80706967  1
  H  443  1  0.53047200  0.48752267  0.84167233  1
  H  446  1  0.32858400  0.45580533  0.78696333  1
  H  447  1  0.33782000  0.48720300  0.77603000  1
  H  449  1  0.75346100  0.46458667  0.86149767  1
  H  450  1  0.74963000  0.43359267  0.87076033  1
  N  4  1  0.03242500  0.03187133  0.49914233  1
  N  8  1  0.03865500  0.99437600  0.55234267  1
  N  14  1  0.03440100  0.03521767  0.56343933  1
  N  20  1  0.02887500  0.07271467  0.51027300  1
  N  115  1  0.95082100  0.18198333  0.29284600  1
  N  116  1  0.94037100  0.88509700  0.76941333  1
  N  117  1  0.15410500  0.86111500  0.47463467  1
  N  118  1  0.13732000  0.20082133  0.59452400  1
  N  126  1  0.36534800  0.49714433  0.56966367  1
  N  130  1  0.37168100  0.55034767  0.55397067  1
  N  136  1  0.36721200  0.56147600  0.50200733  1
  N  142  1  0.36211800  0.50829100  0.51767967  1
  N  237  1  0.28403400  0.29085067  0.62590267  1
  N  238  1  0.27406900  0.76744000  0.44615967  1
  N  239  1  0.48772700  0.47282667  0.76487967  1
  N  240  1  0.47076600  0.59256367  0.30529600  1
  N  248  1  0.69878100  0.56767167  0.03383500  1
  N  252  1  0.70518000  0.55196800  0.99632567  1
  N  258  1  0.70138400  0.50002167  0.03715833  1
  N  264  1  0.69604000  0.51567133  0.07467400  1
  N  359  1  0.61650900  0.62394933  0.18381300  1
  N  360  1  0.60737400  0.44412567  0.88708800  1
  N  361  1  0.82114000  0.76290600  0.86302400  1
  N  362  1  0.80372500  0.30335833  0.20281767  1
  N  371  1  0.85186200  0.25172867  0.22885967  1
  N  374  1  0.92534300  0.23298333  0.24087700  1
  N  385  1  0.18516400  0.22688433  0.62010633  1
  N  388  1  0.25853700  0.23889233  0.62686267  1
  N  399  1  0.51810400  0.61823967  0.25363267  1
  N  402  1  0.59133500  0.62498633  0.23485133  1
  N  413  1  0.86910800  0.81472033  0.83833500  1
  N  416  1  0.93889400  0.83349700  0.82434967  1
  N  427  1  0.20238500  0.83636800  0.44757333  1
  N  430  1  0.27225600  0.82238700  0.44278800  1
  N  441  1  0.53582300  0.44555333  0.81671167  1
  N  444  1  0.60567500  0.44077667  0.83547633  1
