# generated using pymatgen
data_Zn4H12C24O13
_symmetry_space_group_name_H-M   'P 1'
_cell_length_a   10.55594000
_cell_length_b   10.69308706
_cell_length_c   19.98136000
_cell_angle_alpha   74.68387744
_cell_angle_beta   89.88598000
_cell_angle_gamma   60.43693569
_symmetry_Int_Tables_number   1
_chemical_formula_structural   Zn4H12C24O13
_chemical_formula_sum   'Zn8 H24 C48 O26'
_cell_volume   1869.83689769
_cell_formula_units_Z   2
loop_
 _symmetry_equiv_pos_site_id
 _symmetry_equiv_pos_as_xyz
  1  'x, y, z'
loop_
 _atom_site_type_symbol
 _atom_site_label
 _atom_site_symmetry_multiplicity
 _atom_site_fract_x
 _atom_site_fract_y
 _atom_site_fract_z
 _atom_site_occupancy
  Zn  Zn0  1  0.27035000  0.85515000  0.77060000  1
  Zn  Zn1  1  0.41935000  0.56287000  0.90398000  1
  Zn  Zn2  1  0.27425000  0.56341000  0.75956000  1
  Zn  Zn3  1  0.58069000  0.55629000  0.76941000  1
  Zn  Zn4  1  0.87421000  0.85756000  0.27106000  1
  Zn  Zn5  1  0.01254000  0.56868000  0.40300000  1
  Zn  Zn6  1  0.16273000  0.56757000  0.25935000  1
  Zn  Zn7  1  0.86222000  0.56152000  0.26783000  1
  H  H8  1  0.03609000  0.76166000  0.54732000  1
  H  H9  1  0.97605000  0.11980000  0.36530000  1
  H  H10  1  0.06359000  0.22223000  0.44077000  1
  H  H11  1  0.12678000  0.09969000  0.57031000  1
  H  H12  1  0.95490000  0.47752000  0.85426000  1
  H  H13  1  0.79667000  0.42872000  0.05241000  1
  H  H14  1  0.01623000  0.41112000  0.10990000  1
  H  H15  1  0.20444000  0.43041000  0.03859000  1
  H  H16  1  0.43539000  0.14649000  0.73074000  1
  H  H17  1  0.84043000  0.73190000  0.74908000  1
  H  H18  1  0.98168000  0.85767000  0.75899000  1
  H  H19  1  0.85024000  0.13004000  0.74926000  1
  H  H20  1  0.20371000  0.76034000  0.04771000  1
  H  H21  1  0.90612000  0.11508000  0.86518000  1
  H  H22  1  0.71498000  0.21734000  0.94045000  1
  H  H23  1  0.77438000  0.09794000  0.07035000  1
  H  H24  1  0.56307000  0.48167000  0.35409000  1
  H  H25  1  0.77352000  0.42998000  0.55145000  1
  H  H26  1  0.57420000  0.40908000  0.61024000  1
  H  H27  1  0.36606000  0.42768000  0.54036000  1
  H  H28  1  0.41854000  0.14914000  0.23164000  1
  H  H29  1  0.42959000  0.73459000  0.24704000  1
  H  H30  1  0.16313000  0.85855000  0.25825000  1
  H  H31  1  0.02174000  0.12972000  0.25035000  1
  C  C32  1  0.13277000  0.84796000  0.64408000  1
  C  C33  1  0.95725000  0.86667000  0.40671000  1
  C  C34  1  0.08438000  0.92409000  0.56699000  1
  C  C35  1  0.03961000  0.86383000  0.52437000  1
  C  C36  1  0.99931000  0.93538000  0.45174000  1
  C  C37  1  0.00668000  0.06562000  0.42166000  1
  C  C38  1  0.05457000  0.12347000  0.46409000  1
  C  C39  1  0.09097000  0.05486000  0.53648000  1
  C  C40  1  0.19823000  0.47584000  0.89790000  1
  C  C41  1  0.73055000  0.46862000  0.91356000  1
  C  C42  1  0.09144000  0.45560000  0.94183000  1
  C  C43  1  0.96890000  0.46278000  0.91016000  1
  C  C44  1  0.86296000  0.45298000  0.94994000  1
  C  C45  1  0.88028000  0.43487000  0.02214000  1
  C  C46  1  0.00376000  0.42511000  0.05402000  1
  C  C47  1  0.10918000  0.43546000  0.01433000  1
  C  C48  1  0.55355000  0.31690000  0.73788000  1
  C  C49  1  0.54272000  0.85617000  0.73740000  1
  C  C50  1  0.63409000  0.15645000  0.73844000  1
  C  C51  1  0.55471000  0.08458000  0.73495000  1
  C  C52  1  0.62866000  0.93246000  0.73775000  1
  C  C53  1  0.78323000  0.85077000  0.74569000  1
  C  C54  1  0.86215000  0.92175000  0.75080000  1
  C  C55  1  0.78867000  0.07437000  0.74615000  1
  C  C56  1  0.02173000  0.84894000  0.14427000  1
  C  C57  1  0.17755000  0.86314000  0.90625000  1
  C  C58  1  0.99312000  0.92348000  0.06704000  1
  C  C59  1  0.09824000  0.86221000  0.02446000  1
  C  C60  1  0.06716000  0.93217000  0.95167000  1
  C  C61  1  0.92928000  0.06168000  0.92161000  1
  C  C62  1  0.82305000  0.11962000  0.96396000  1
  C  C63  1  0.85523000  0.05286000  0.03651000  1
  C  C64  1  0.32216000  0.47913000  0.39903000  1
  C  C65  1  0.79583000  0.47400000  0.41190000  1
  C  C66  1  0.45054000  0.45684000  0.44257000  1
  C  C67  1  0.56506000  0.46506000  0.41016000  1
  C  C68  1  0.68139000  0.45502000  0.44928000  1
  C  C69  1  0.68386000  0.43541000  0.52164000  1
  C  C70  1  0.57141000  0.42393000  0.55429000  1
  C  C71  1  0.45495000  0.43453000  0.51527000  1
  C  C72  1  0.13111000  0.31836000  0.23920000  1
  C  C73  1  0.60213000  0.86077000  0.23584000  1
  C  C74  1  0.21081000  0.15784000  0.23951000  1
  C  C75  1  0.36174000  0.08670000  0.23548000  1
  C  C76  1  0.44024000  0.93525000  0.23705000  1
  C  C77  1  0.36789000  0.85300000  0.24457000  1
  C  C78  1  0.21832000  0.92300000  0.25047000  1
  C  C79  1  0.13881000  0.07514000  0.24685000  1
  O  O80  1  0.14859000  0.92388000  0.67982000  1
  O  O81  1  0.15601000  0.71363000  0.66873000  1
  O  O82  1  0.96236000  0.74303000  0.43747000  1
  O  O83  1  0.92099000  0.93527000  0.34033000  1
  O  O84  1  0.32011000  0.44521000  0.92964000  1
  O  O85  1  0.15850000  0.52403000  0.83108000  1
  O  O86  1  0.61968000  0.49339000  0.94642000  1
  O  O87  1  0.73735000  0.45619000  0.85175000  1
  O  O88  1  0.41455000  0.37810000  0.73765000  1
  O  O89  1  0.62931000  0.38129000  0.73735000  1
  O  O90  1  0.38769000  0.63272000  0.80087000  1
  O  O91  1  0.60859000  0.72698000  0.72675000  1
  O  O92  1  0.40974000  0.92648000  0.74879000  1
  O  O93  1  0.93060000  0.92454000  0.18028000  1
  O  O94  1  0.13404000  0.71539000  0.16870000  1
  O  O95  1  0.29664000  0.74016000  0.93648000  1
  O  O96  1  0.14409000  0.93138000  0.83983000  1
  O  O97  1  0.22963000  0.45062000  0.43090000  1
  O  O98  1  0.31422000  0.52743000  0.33221000  1
  O  O99  1  0.88164000  0.49896000  0.44474000  1
  O  O100  1  0.79965000  0.46475000  0.34956000  1
  O  O101  1  0.20894000  0.37955000  0.23921000  1
  O  O102  1  0.99100000  0.38285000  0.23857000  1
  O  O103  1  0.97870000  0.63633000  0.29991000  1
  O  O104  1  0.66620000  0.73456000  0.22223000  1
  O  O105  1  0.66389000  0.93014000  0.24955000  1
