# generated using pymatgen
data_H10C13N2O
_symmetry_space_group_name_H-M   'P 1'
_cell_length_a   20.43905000
_cell_length_b   20.43905000
_cell_length_c   20.44540000
_cell_angle_alpha   90.00000000
_cell_angle_beta   90.00000000
_cell_angle_gamma   120.00000000
_symmetry_Int_Tables_number   1
_chemical_formula_structural   H10C13N2O
_chemical_formula_sum   'H120 C156 N24 O12'
_cell_volume   7396.86436998
_cell_formula_units_Z   12
loop_
 _symmetry_equiv_pos_site_id
 _symmetry_equiv_pos_as_xyz
  1  'x, y, z'
loop_
 _atom_site_type_symbol
 _atom_site_label
 _atom_site_symmetry_multiplicity
 _atom_site_fract_x
 _atom_site_fract_y
 _atom_site_fract_z
 _atom_site_occupancy
  C  1  1  0.89150350  0.30160850  0.73596500  1
  C  2  1  0.87970750  0.36106250  0.77695200  1
  C  3  1  0.83937600  0.28230500  0.67393200  1
  C  4  1  0.75605750  0.25903450  0.68880000  1
  C  7  1  0.74892950  0.31657450  0.73450700  1
  C  8  1  0.79483150  0.33259650  0.79950100  1
  C  13  1  0.76887450  0.25721850  0.83748400  1
  C  14  1  0.77558550  0.19555450  0.79740600  1
  C  17  1  0.72730000  0.18521000  0.73278500  1
  C  20  1  0.86034900  0.22772700  0.77777800  1
  C  23  1  0.42258550  0.11845150  0.40265200  1
  C  24  1  0.49383550  0.13028550  0.44366000  1
  C  25  1  0.45543050  0.17056050  0.34060400  1
  C  26  1  0.51546100  0.25389800  0.35545400  1
  C  29  1  0.58012700  0.26105200  0.40118000  1
  C  30  1  0.55023650  0.21517350  0.46618300  1
  C  35  1  0.50080750  0.24114850  0.50413200  1
  C  36  1  0.43241850  0.23438350  0.46404000  1
  C  39  1  0.47036450  0.28263950  0.39940600  1
  C  42  1  0.37984350  0.14961250  0.44443500  1
  C  45  1  0.70832500  0.58741800  0.06924200  1
  C  46  1  0.64890200  0.51617000  0.11025000  1
  C  47  1  0.72768050  0.55459350  0.00723800  1
  C  48  1  0.75099050  0.49457950  0.02213600  1
  C  51  1  0.69349000  0.42992100  0.06787400  1
  C  52  1  0.67743300  0.45981800  0.13284200  1
  C  57  1  0.75280350  0.50929650  0.17081000  1
  C  58  1  0.81443950  0.57767550  0.13070900  1
  C  61  1  0.82481050  0.53971150  0.06611200  1
  C  64  1  0.78221250  0.63020650  0.11104600  1
  C  67  1  0.12340350  0.70337850  0.23596000  1
  C  68  1  0.13517700  0.64389800  0.27692800  1
  C  69  1  0.17549400  0.72263900  0.17390200  1
  C  70  1  0.25881050  0.74586550  0.18872600  1
  C  73  1  0.26590850  0.68829050  0.23441000  1
  C  74  1  0.22005950  0.67230850  0.29943200  1
  C  79  1  0.24610500  0.74770700  0.33741600  1
  C  80  1  0.23938950  0.80939250  0.29736800  1
  C  83  1  0.28762150  0.81968850  0.23272200  1
  C  86  1  0.15462550  0.77726250  0.27777800  1
  C  89  1  0.59228650  0.88653750  0.90258000  1
  C  90  1  0.52104850  0.87467950  0.94361900  1
  C  91  1  0.55941800  0.83449900  0.84049200  1
  C  92  1  0.49940000  0.75114900  0.85529800  1
  C  95  1  0.43473400  0.74396900  0.90103500  1
  C  96  1  0.46461850  0.78977650  0.96607100  1
  C  101  1  0.51400800  0.76371900  0.00398600  1
  C  102  1  0.58243050  0.77055650  0.96388500  1
  C  105  1  0.54449300  0.72237000  0.89921900  1
  C  108  1  0.63501950  0.85533650  0.94432400  1
  C  111  1  0.30655400  0.41755300  0.56926200  1
  C  112  1  0.36594400  0.48883500  0.61025400  1
  C  113  1  0.28720850  0.45034450  0.50722800  1
  C  114  1  0.26386650  0.51034650  0.52209300  1
  C  117  1  0.32132900  0.57504400  0.56782100  1
  C  118  1  0.33738800  0.54517400  0.63279900  1
  C  123  1  0.26201400  0.49568500  0.67077200  1
  C  124  1  0.20041750  0.42727550  0.63067900  1
  C  127  1  0.19003450  0.46519650  0.56605400  1
  C  130  1  0.23267300  0.37476000  0.61106200  1
  C  133  1  0.75817700  0.46105600  0.95691900  1
  C  134  1  0.69506250  0.40798750  0.91796100  1
  C  135  1  0.70740250  0.36652750  0.86769600  1
  C  136  1  0.78092050  0.38343450  0.84635100  1
  C  137  1  0.84165050  0.44513850  0.87841900  1
  C  138  1  0.83073750  0.48016050  0.93296300  1
  C  140  1  0.57257600  0.28809900  0.85275400  1
  C  141  1  0.56032800  0.33338800  0.89607100  1
  C  148  1  0.71537150  0.25184850  0.62356400  1
  C  149  1  0.72540900  0.31496000  0.58461000  1
  C  150  1  0.67158150  0.30262850  0.53437500  1
  C  151  1  0.61496350  0.22910050  0.51306800  1
  C  152  1  0.61603800  0.16836200  0.54502650  1
  C  153  1  0.66197100  0.17928700  0.59957200  1
  C  155  1  0.72799550  0.43744750  0.51942300  1
  C  156  1  0.78556650  0.44968950  0.56270400  1
  C  163  1  0.54896700  0.29461200  0.29022600  1
  C  164  1  0.60209350  0.28463450  0.25129400  1
  C  165  1  0.64359100  0.33848500  0.20107200  1
  C  166  1  0.62664200  0.39505500  0.17969400  1
  C  167  1  0.56496450  0.39409550  0.21180400  1
  C  168  1  0.52980850  0.34801850  0.26624300  1
  C  170  1  0.72210000  0.28216900  0.18619400  1
  C  171  1  0.67675600  0.22456700  0.22944600  1
  C  178  1  0.25668800  0.54384800  0.45685600  1
  C  179  1  0.31980850  0.59688550  0.41788800  1
  C  180  1  0.30748000  0.63831800  0.36758800  1
  C  181  1  0.23397150  0.62144550  0.34624800  1
  C  182  1  0.17322800  0.55979700  0.37836800  1
  C  183  1  0.18413400  0.52477400  0.43291800  1
  C  185  1  0.44230400  0.71665200  0.35257400  1
  C  186  1  0.45454250  0.67142850  0.39597600  1
  C  193  1  0.29948550  0.75306350  0.12348000  1
  C  194  1  0.28942550  0.68996550  0.08449400  1
  C  195  1  0.34323450  0.70230950  0.03423800  1
  C  196  1  0.39985350  0.77582550  0.01291200  1
  C  197  1  0.39887900  0.83655300  0.04499200  1
  C  198  1  0.35293150  0.82562750  0.09952800  1
  C  200  1  0.28680750  0.56748850  0.01926000  1
  C  201  1  0.22922350  0.55525250  0.06252200  1
  C  208  1  0.46592000  0.71048300  0.79004900  1
  C  209  1  0.41271450  0.72039350  0.75117500  1
  C  210  1  0.37116800  0.66649700  0.70099900  1
  C  211  1  0.38815850  0.60995150  0.67964500  1
  C  212  1  0.45007750  0.61114850  0.71150900  1
  C  213  1  0.48515600  0.65715600  0.76600100  1
  C  215  1  0.29250600  0.72266100  0.68626600  1
  C  216  1  0.33795150  0.78036450  0.72939650  1
  C  223  1  0.74764100  0.12121500  0.83484700  1
  C  224  1  0.73201800  0.10657300  0.90338200  1
  C  225  1  0.67911150  0.03158950  0.92524900  1
  C  226  1  0.64838200  0.96835600  0.88206600  1
  C  227  1  0.68497350  0.98430350  0.82010200  1
  C  228  1  0.73271700  0.05732700  0.79749500  1
  C  230  1  0.69548650  0.07617850  0.03603200  1
  C  231  1  0.75413200  0.14673600  0.01607200  1
  C  238  1  0.38601200  0.26234100  0.50144800  1
  C  239  1  0.38687350  0.27785250  0.56999500  1
  C  240  1  0.36483700  0.33077600  0.59190200  1
  C  241  1  0.33229750  0.36146750  0.54873300  1
  C  242  1  0.31187200  0.32511700  0.48666200  1
  C  243  1  0.33713500  0.27736000  0.46406000  1
  C  245  1  0.39298800  0.31427900  0.70266700  1
  C  246  1  0.40484400  0.25560900  0.68266300  1
  C  253  1  0.88877400  0.62414000  0.16814600  1
  C  254  1  0.90340250  0.62320150  0.23668800  1
  C  255  1  0.97838500  0.64530000  0.25859600  1
  C  256  1  0.04161200  0.67776800  0.21540800  1
  C  257  1  0.02568300  0.69823000  0.15336000  1
  C  258  1  0.95267150  0.67301550  0.13076800  1
  C  260  1  0.93383250  0.61747850  0.36938400  1
  C  261  1  0.86320200  0.60529800  0.34937000  1
  C  268  1  0.26737450  0.88375550  0.33480400  1
  C  269  1  0.28294100  0.89839100  0.40334800  1
  C  270  1  0.33575850  0.97338850  0.42527800  1
  C  271  1  0.36645550  0.03663050  0.38211000  1
  C  272  1  0.33017800  0.02069400  0.32001400  1
  C  273  1  0.28251300  0.94766800  0.29739600  1
  C  275  1  0.31911250  0.92881850  0.53605100  1
  C  276  1  0.26070250  0.85816750  0.51603100  1
  C  283  1  0.62884550  0.74258550  0.00126700  1
  C  284  1  0.62809750  0.72720850  0.06983400  1
  C  285  1  0.65025200  0.67438300  0.09179000  1
  C  286  1  0.68259150  0.64348550  0.04861200  1
  C  287  1  0.70276100  0.67959800  0.98643600  1
  C  288  1  0.67760850  0.72744550  0.96385050  1
  C  290  1  0.62267550  0.69137750  0.20258400  1
  C  291  1  0.61049450  0.74980950  0.18250600  1
  C  298  1  0.12610300  0.38079100  0.66812500  1
  C  299  1  0.11150550  0.38171350  0.73667000  1
  C  300  1  0.03654100  0.35964500  0.75859700  1
  C  301  1  0.97331300  0.32735200  0.71540900  1
  C  302  1  0.98919500  0.30675100  0.65338900  1
  C  303  1  0.06218750  0.33194250  0.63075900  1
  C  305  1  0.08111400  0.38738800  0.86937900  1
  C  306  1  0.15170000  0.39946600  0.84934500  1
  H  5  1  0.83564300  0.23389300  0.64774900  1
  H  6  1  0.86639100  0.32949300  0.64027600  1
  H  9  1  0.76683900  0.37140000  0.71311700  1
  H  10  1  0.68865600  0.29205300  0.74142800  1
  H  11  1  0.90116500  0.41341300  0.74885300  1
  H  12  1  0.91383250  0.37487350  0.82089300  1
  H  15  1  0.71064800  0.23214900  0.85467100  1
  H  16  1  0.80461050  0.27435150  0.88044700  1
  H  18  1  0.66797850  0.16305250  0.74607400  1
  H  19  1  0.72864350  0.14235950  0.70227000  1
  H  21  1  0.89392450  0.23854050  0.82227550  1
  H  22  1  0.86659850  0.18554250  0.74977650  1
  H  27  1  0.41075250  0.17425850  0.31438400  1
  H  28  1  0.47564050  0.14354650  0.30698400  1
  H  31  1  0.61704250  0.24312750  0.37981200  1
  H  32  1  0.61588050  0.32132750  0.40809200  1
  H  33  1  0.52473350  0.10881350  0.41559000  1
  H  34  1  0.47354050  0.09621150  0.48762600  1
  H  37  1  0.53395500  0.29939400  0.52127700  1
  H  38  1  0.48223150  0.20546650  0.54712600  1
  H  40  1  0.50750850  0.34197550  0.41268000  1
  H  41  1  0.42617900  0.28126200  0.36886000  1
  H  43  1  0.35707850  0.11604250  0.48893600  1
  H  44  1  0.33141200  0.14335800  0.41642200  1
  H  49  1  0.77607300  0.59930100  0.98105200  1
  H  50  1  0.68049600  0.53436900  0.97357800  1
  H  53  1  0.63867150  0.39294750  0.04649000  1
  H  54  1  0.71806000  0.39421700  0.07482800  1
  H  55  1  0.59656200  0.48522800  0.08214600  1
  H  56  1  0.63505400  0.53648500  0.15417200  1
  H  59  1  0.77791350  0.47618250  0.18801800  1
  H  60  1  0.73564950  0.52788950  0.21376400  1
  H  62  1  0.84700450  0.50258550  0.07943600  1
  H  63  1  0.86763400  0.58388500  0.03556200  1
  H  65  1  0.77138750  0.65297950  0.15552600  1
  H  66  1  0.82438300  0.67863700  0.08302600  1
  H  71  1  0.17923100  0.77105200  0.14771600  1
  H  72  1  0.14844200  0.67544100  0.14026200  1
  H  75  1  0.24792150  0.63345250  0.21300200  1
  H  76  1  0.32617800  0.71275300  0.24129600  1
  H  77  1  0.11365950  0.59153550  0.24883800  1
  H  78  1  0.10110200  0.63012400  0.32089400  1
  H  81  1  0.30435050  0.77275250  0.35455000  1
  H  82  1  0.21043100  0.73059300  0.38041400  1
  H  84  1  0.34694850  0.84182250  0.24598200  1
  H  85  1  0.28628250  0.86253350  0.20220200  1
  H  87  1  0.12107150  0.76645950  0.32228800  1
  H  88  1  0.14839800  0.81947400  0.24979200  1
  H  93  1  0.60406750  0.83080050  0.81423100  1
  H  94  1  0.53920500  0.86155700  0.80692300  1
  H  97  1  0.39785750  0.76195350  0.87968400  1
  H  98  1  0.39895250  0.68368950  0.90791000  1
  H  99  1  0.49017000  0.89621400  0.91560000  1
  H  100  1  0.54136150  0.90868950  0.98761700  1
  H  103  1  0.48083650  0.70544050  0.02103600  1
  H  104  1  0.53253050  0.79929750  0.04704200  1
  H  106  1  0.50735450  0.66301850  0.91244000  1
  H  107  1  0.58868950  0.72380050  0.86865900  1
  H  109  1  0.65778700  0.88888200  0.98883700  1
  H  110  1  0.68344550  0.86159450  0.91629700  1
  H  115  1  0.23882450  0.40563450  0.48104200  1
  H  116  1  0.33439800  0.47053800  0.47357400  1
  H  119  1  0.37614450  0.61203550  0.54644500  1
  H  120  1  0.29673300  0.61072800  0.57477400  1
  H  121  1  0.41829000  0.51977400  0.58215900  1
  H  122  1  0.37978750  0.46857350  0.65420700  1
  H  125  1  0.23686350  0.52877550  0.68793900  1
  H  126  1  0.27916550  0.47713650  0.71375500  1
  H  128  1  0.16781050  0.50230250  0.57935200  1
  H  129  1  0.14723250  0.42100350  0.53550500  1
  H  131  1  0.24352400  0.35202100  0.65555700  1
  H  132  1  0.19051150  0.32630550  0.58305650  1
  H  143  1  0.52927950  0.24376550  0.82879100  1
  H  144  1  0.87871800  0.51962300  0.95555500  1
  H  145  1  0.89627050  0.46258850  0.86626900  1
  H  147  1  0.60814200  0.41969800  0.95515300  1
  H  158  1  0.72695550  0.48074850  0.49547000  1
  H  159  1  0.65354900  0.13130600  0.62209600  1
  H  160  1  0.57892500  0.11375300  0.53280000  1
  H  162  1  0.82409150  0.40185950  0.62174400  1
  H  173  1  0.76647550  0.28324950  0.16227200  1
  H  174  1  0.49027150  0.35646950  0.28877800  1
  H  175  1  0.54736200  0.43110300  0.19949200  1
  H  177  1  0.59032150  0.18595050  0.28840200  1
  H  188  1  0.48560450  0.76093050  0.32856200  1
  H  189  1  0.13614750  0.48536250  0.45554300  1
  H  190  1  0.11861000  0.54237600  0.36623800  1
  H  192  1  0.40672450  0.58521350  0.45515400  1
  H  203  1  0.28774200  0.52421600  0.99516200  1
  H  204  1  0.36146700  0.87361200  0.12212600  1
  H  205  1  0.43603950  0.89117750  0.03284800  1
  H  207  1  0.19071900  0.60307800  0.12159600  1
  H  218  1  0.24816100  0.72159000  0.66230000  1
  H  219  1  0.52475350  0.64876350  0.78848600  1
  H  220  1  0.46762550  0.57407550  0.69928500  1
  H  222  1  0.42451950  0.81910550  0.78823200  1
  H  233  1  0.68264900  0.06362500  0.08434600  1
  H  234  1  0.75281050  0.06249650  0.75092200  1
  H  235  1  0.67635650  0.94362450  0.78721400  1
  H  237  1  0.81962850  0.20220450  0.94110100  1
  H  248  1  0.39326000  0.32707000  0.75099000  1
  H  249  1  0.32226850  0.25732950  0.41746800  1
  H  250  1  0.27990850  0.33383150  0.45373600  1
  H  252  1  0.39479300  0.19016900  0.60756400  1
  H  263  1  0.94621950  0.61669550  0.41767800  1
  H  264  1  0.94751150  0.68788350  0.08417000  1
  H  265  1  0.06637050  0.73017750  0.12043200  1
  H  267  1  0.80777350  0.61524450  0.27426200  1
  H  278  1  0.33228550  0.94119950  0.58434200  1
  H  279  1  0.26234100  0.94250100  0.25084800  1
  H  280  1  0.33881000  0.06138300  0.28713000  1
  H  282  1  0.19531500  0.80274000  0.44093600  1
  H  293  1  0.62198750  0.67831650  0.25088800  1
  H  294  1  0.69245000  0.74741100  0.91723700  1
  H  295  1  0.73471300  0.67084800  0.95352000  1
  H  297  1  0.62025550  0.81499550  0.10729000  1
  H  308  1  0.06874950  0.38818350  0.91767600  1
  H  309  1  0.06730550  0.31704850  0.58416000  1
  H  310  1  0.94849700  0.27481400  0.62047100  1
  H  312  1  0.20713600  0.38960600  0.77418400  1
  N  139  1  0.64482000  0.30809400  0.84049900  1
  N  142  1  0.62100250  0.39067250  0.92648700  1
  N  154  1  0.67571950  0.36520750  0.50718400  1
  N  157  1  0.78218050  0.38901350  0.59311200  1
  N  169  1  0.70208200  0.33439900  0.17392600  1
  N  172  1  0.61940650  0.22788950  0.25980400  1
  N  184  1  0.37006550  0.69668250  0.34032900  1
  N  187  1  0.39386350  0.61419550  0.42643400  1
  N  199  1  0.33905550  0.63973450  0.00699900  1
  N  202  1  0.23263050  0.61592150  0.09296400  1
  N  214  1  0.31259500  0.67049300  0.67392700  1
  N  217  1  0.39538150  0.77712150  0.75968700  1
  N  229  1  0.66350700  0.02149000  0.99027700  1
  N  232  1  0.77125500  0.15859300  0.95134900  1
  N  244  1  0.37031950  0.34632250  0.65694000  1
  N  247  1  0.39958300  0.23852100  0.61793700  1
  N  259  1  0.98849100  0.63988600  0.32363800  1
  N  262  1  0.85138650  0.61054550  0.28464000  1
  N  274  1  0.35129900  0.98349500  0.49031600  1
  N  277  1  0.24362200  0.84635900  0.45130400  1
  N  289  1  0.64495950  0.65899450  0.15685600  1
  N  292  1  0.61558650  0.76671250  0.11774800  1
  N  304  1  0.02645400  0.36507000  0.82364200  1
  N  307  1  0.16352100  0.39429300  0.78460200  1
  O  146  1  0.48909400  0.31877300  0.90792900  1
  O  161  1  0.84221250  0.52091750  0.57452900  1
  O  176  1  0.69137650  0.16794850  0.24128200  1
  O  191  1  0.52576950  0.68602150  0.40783200  1
  O  206  1  0.17251650  0.48403250  0.07427000  1
  O  221  1  0.32333300  0.83698700  0.74121300  1
  O  236  1  0.79583350  0.19980350  0.06124600  1
  O  251  1  0.41615450  0.21382950  0.72779200  1
  O  266  1  0.81004050  0.59380950  0.39448550  1
  O  281  1  0.21907300  0.80498300  0.56114300  1
  O  296  1  0.59912150  0.79160250  0.22758200  1
  O  311  1  0.20488200  0.41095100  0.89443700  1
