# generated using pymatgen
data_Cu2SiH12(C9O4)2
_symmetry_space_group_name_H-M   'P 1'
_cell_length_a   18.62395961
_cell_length_b   18.62898000
_cell_length_c   19.54653000
_cell_angle_alpha   90.00000000
_cell_angle_beta   90.00000000
_cell_angle_gamma   119.99126323
_symmetry_Int_Tables_number   1
_chemical_formula_structural   Cu2SiH12(C9O4)2
_chemical_formula_sum   'Cu12 Si6 H72 C108 O48'
_cell_volume   5873.53589360
_cell_formula_units_Z   6
loop_
 _symmetry_equiv_pos_site_id
 _symmetry_equiv_pos_as_xyz
  1  'x, y, z'
loop_
 _atom_site_type_symbol
 _atom_site_label
 _atom_site_symmetry_multiplicity
 _atom_site_fract_x
 _atom_site_fract_y
 _atom_site_fract_z
 _atom_site_occupancy
  Cu  Cu0  1  0.47823000  0.95646000  0.05110000  1
  Cu  Cu1  1  0.04354000  0.52177000  0.05110000  1
  Cu  Cu2  1  0.47823000  0.52178000  0.05110000  1
  Cu  Cu3  1  0.52191000  0.04382000  0.55089000  1
  Cu  Cu4  1  0.95617000  0.47808000  0.55089000  1
  Cu  Cu5  1  0.52191000  0.47808000  0.55089000  1
  Cu  Cu6  1  0.95645000  0.47822000  0.94890000  1
  Cu  Cu7  1  0.52177000  0.04354000  0.94890000  1
  Cu  Cu8  1  0.52177000  0.47822000  0.94890000  1
  Cu  Cu9  1  0.04383000  0.52191000  0.44911000  1
  Cu  Cu10  1  0.47809000  0.95618000  0.44911000  1
  Cu  Cu11  1  0.47809000  0.52192000  0.44911000  1
  Si  Si12  1  0.26973000  0.13486000  0.25003000  1
  Si  Si13  1  0.86513000  0.13486000  0.25003000  1
  Si  Si14  1  0.86513000  0.73026000  0.25003000  1
  Si  Si15  1  0.73027000  0.86514000  0.74997000  1
  Si  Si16  1  0.13487000  0.86514000  0.74997000  1
  Si  Si17  1  0.13487000  0.26974000  0.74997000  1
  H  H18  1  0.34669000  0.05710000  0.16326000  1
  H  H19  1  0.16265000  0.16385000  0.20456000  1
  H  H20  1  0.94291000  0.28959000  0.16327000  1
  H  H21  1  0.83616000  0.99881000  0.20456000  1
  H  H22  1  0.71038000  0.65330000  0.16326000  1
  H  H23  1  0.00118000  0.83733000  0.20456000  1
  H  H24  1  0.65330000  0.94290000  0.66322000  1
  H  H25  1  0.83736000  0.83615000  0.70456000  1
  H  H26  1  0.05708000  0.71039000  0.66323000  1
  H  H27  1  0.16384000  0.00120000  0.70456000  1
  H  H28  1  0.28963000  0.34670000  0.66323000  1
  H  H29  1  0.99880000  0.16265000  0.70456000  1
  H  H30  1  0.05708000  0.34669000  0.83674000  1
  H  H31  1  0.16384000  0.16265000  0.79544000  1
  H  H32  1  0.28959000  0.94289000  0.83675000  1
  H  H33  1  0.99880000  0.83615000  0.79544000  1
  H  H34  1  0.65331000  0.71040000  0.83674000  1
  H  H35  1  0.83735000  0.00119000  0.79544000  1
  H  H36  1  0.94293000  0.65330000  0.33678000  1
  H  H37  1  0.83615000  0.83735000  0.29545000  1
  H  H38  1  0.71039000  0.05709000  0.33678000  1
  H  H39  1  0.00121000  0.16385000  0.29545000  1
  H  H40  1  0.34669000  0.28960000  0.33677000  1
  H  H41  1  0.16264000  0.99880000  0.29545000  1
  H  H42  1  0.65330000  0.94289000  0.83675000  1
  H  H43  1  0.83735000  0.83615000  0.79544000  1
  H  H44  1  0.05709000  0.71040000  0.83674000  1
  H  H45  1  0.16383000  0.00118000  0.79544000  1
  H  H46  1  0.28961000  0.34669000  0.83674000  1
  H  H47  1  0.99881000  0.16265000  0.79544000  1
  H  H48  1  0.34670000  0.05709000  0.33678000  1
  H  H49  1  0.16264000  0.16385000  0.29545000  1
  H  H50  1  0.94292000  0.28961000  0.33677000  1
  H  H51  1  0.83616000  0.99880000  0.29545000  1
  H  H52  1  0.71037000  0.65330000  0.33678000  1
  H  H53  1  0.00120000  0.83735000  0.29545000  1
  H  H54  1  0.94292000  0.65330000  0.16326000  1
  H  H55  1  0.83616000  0.83735000  0.20456000  1
  H  H56  1  0.71041000  0.05710000  0.16326000  1
  H  H57  1  0.00120000  0.16385000  0.20456000  1
  H  H58  1  0.34668000  0.28959000  0.16327000  1
  H  H59  1  0.16265000  0.99881000  0.20456000  1
  H  H60  1  0.05707000  0.34670000  0.66323000  1
  H  H61  1  0.16385000  0.16265000  0.70456000  1
  H  H62  1  0.28960000  0.94290000  0.66322000  1
  H  H63  1  0.99879000  0.83615000  0.70456000  1
  H  H64  1  0.65331000  0.71039000  0.66323000  1
  H  H65  1  0.83736000  0.00120000  0.70456000  1
  H  H66  1  0.48306000  0.24152000  0.01090000  1
  H  H67  1  0.75846000  0.24152000  0.01090000  1
  H  H68  1  0.75847000  0.51694000  0.01090000  1
  H  H69  1  0.51694000  0.75847000  0.51087000  1
  H  H70  1  0.24153000  0.75847000  0.51087000  1
  H  H71  1  0.24153000  0.48306000  0.51087000  1
  H  H72  1  0.24153000  0.48306000  0.98910000  1
  H  H73  1  0.24153000  0.75847000  0.98910000  1
  H  H74  1  0.51694000  0.75847000  0.98910000  1
  H  H75  1  0.75847000  0.51694000  0.48913000  1
  H  H76  1  0.75847000  0.24153000  0.48914000  1
  H  H77  1  0.48305000  0.24152000  0.48914000  1
  H  H78  1  0.23815000  0.25159000  0.25000000  1
  H  H79  1  0.74839000  0.98655000  0.25000000  1
  H  H80  1  0.01346000  0.76185000  0.25000000  1
  H  H81  1  0.76185000  0.74841000  0.75000000  1
  H  H82  1  0.25161000  0.01345000  0.75000000  1
  H  H83  1  0.98654000  0.23815000  0.75000000  1
  H  H84  1  0.25161000  0.23815000  0.75000000  1
  H  H85  1  0.98655000  0.74840000  0.75000000  1
  H  H86  1  0.76184000  0.01345000  0.75000000  1
  H  H87  1  0.74839000  0.76185000  0.25000000  1
  H  H88  1  0.01344000  0.25159000  0.25000000  1
  H  H89  1  0.23816000  0.98655000  0.25000000  1
  C  C90  1  0.36562000  0.11814000  0.14229000  1
  C  C91  1  0.41771000  0.14390000  0.08476000  1
  C  C92  1  0.44760000  0.08982000  0.05468000  1
  C  C93  1  0.88187000  0.24749000  0.14229000  1
  C  C94  1  0.85610000  0.27380000  0.08476000  1
  C  C95  1  0.91018000  0.35778000  0.05468000  1
  C  C96  1  0.75250000  0.63438000  0.14229000  1
  C  C97  1  0.72619000  0.58230000  0.08476000  1
  C  C98  1  0.64221000  0.55239000  0.05468000  1
  C  C99  1  0.63432000  0.88186000  0.64223000  1
  C  C100  1  0.58229000  0.85610000  0.58466000  1
  C  C101  1  0.55244000  0.91003000  0.55422000  1
  C  C102  1  0.11813000  0.75246000  0.64223000  1
  C  C103  1  0.14389000  0.72619000  0.58466000  1
  C  C104  1  0.08997000  0.64241000  0.55422000  1
  C  C105  1  0.24755000  0.36567000  0.64223000  1
  C  C106  1  0.27381000  0.41770000  0.58466000  1
  C  C107  1  0.35759000  0.44756000  0.55422000  1
  C  C108  1  0.11812000  0.36562000  0.85772000  1
  C  C109  1  0.14389000  0.41770000  0.91524000  1
  C  C110  1  0.08981000  0.44760000  0.94532000  1
  C  C111  1  0.24748000  0.88186000  0.85772000  1
  C  C112  1  0.27381000  0.85610000  0.91525000  1
  C  C113  1  0.35778000  0.91017000  0.94533000  1
  C  C114  1  0.63438000  0.75251000  0.85771000  1
  C  C115  1  0.58230000  0.72620000  0.91524000  1
  C  C116  1  0.55240000  0.64222000  0.94532000  1
  C  C117  1  0.88187000  0.63432000  0.35778000  1
  C  C118  1  0.85611000  0.58230000  0.41534000  1
  C  C119  1  0.91003000  0.55244000  0.44578000  1
  C  C120  1  0.75246000  0.11814000  0.35778000  1
  C  C121  1  0.72619000  0.14390000  0.41535000  1
  C  C122  1  0.64241000  0.08997000  0.44579000  1
  C  C123  1  0.36567000  0.24754000  0.35777000  1
  C  C124  1  0.41770000  0.27381000  0.41534000  1
  C  C125  1  0.44756000  0.35758000  0.44578000  1
  C  C126  1  0.63438000  0.88186000  0.85772000  1
  C  C127  1  0.58229000  0.85610000  0.91525000  1
  C  C128  1  0.55239000  0.91017000  0.94533000  1
  C  C129  1  0.11813000  0.75251000  0.85771000  1
  C  C130  1  0.14389000  0.72619000  0.91524000  1
  C  C131  1  0.08982000  0.64222000  0.94532000  1
  C  C132  1  0.24750000  0.36562000  0.85772000  1
  C  C133  1  0.27381000  0.41770000  0.91524000  1
  C  C134  1  0.35779000  0.44761000  0.94532000  1
  C  C135  1  0.36568000  0.11814000  0.35778000  1
  C  C136  1  0.41771000  0.14390000  0.41535000  1
  C  C137  1  0.44756000  0.08997000  0.44579000  1
  C  C138  1  0.88187000  0.24754000  0.35777000  1
  C  C139  1  0.85611000  0.27381000  0.41534000  1
  C  C140  1  0.91002000  0.35758000  0.44578000  1
  C  C141  1  0.75245000  0.63432000  0.35778000  1
  C  C142  1  0.72619000  0.58230000  0.41534000  1
  C  C143  1  0.64240000  0.55243000  0.44578000  1
  C  C144  1  0.88187000  0.63437000  0.14229000  1
  C  C145  1  0.85611000  0.58230000  0.08476000  1
  C  C146  1  0.91018000  0.55239000  0.05468000  1
  C  C147  1  0.75252000  0.11814000  0.14229000  1
  C  C148  1  0.72619000  0.14390000  0.08476000  1
  C  C149  1  0.64222000  0.08983000  0.05468000  1
  C  C150  1  0.36561000  0.24748000  0.14229000  1
  C  C151  1  0.41770000  0.27380000  0.08476000  1
  C  C152  1  0.44760000  0.35778000  0.05468000  1
  C  C153  1  0.11812000  0.36567000  0.64223000  1
  C  C154  1  0.14389000  0.41770000  0.58466000  1
  C  C155  1  0.08997000  0.44756000  0.55422000  1
  C  C156  1  0.24754000  0.88186000  0.64223000  1
  C  C157  1  0.27381000  0.85610000  0.58466000  1
  C  C158  1  0.35759000  0.91003000  0.55422000  1
  C  C159  1  0.63433000  0.75246000  0.64223000  1
  C  C160  1  0.58230000  0.72619000  0.58466000  1
  C  C161  1  0.55244000  0.64241000  0.55422000  1
  C  C162  1  0.33809000  0.16905000  0.17162000  1
  C  C163  1  0.44300000  0.22149000  0.05557000  1
  C  C164  1  0.83096000  0.16905000  0.17162000  1
  C  C165  1  0.77849000  0.22149000  0.05557000  1
  C  C166  1  0.83095000  0.66190000  0.17162000  1
  C  C167  1  0.77850000  0.55700000  0.05557000  1
  C  C168  1  0.66181000  0.83090000  0.67158000  1
  C  C169  1  0.55697000  0.77849000  0.55554000  1
  C  C170  1  0.16909000  0.83090000  0.67158000  1
  C  C171  1  0.22152000  0.77849000  0.55554000  1
  C  C172  1  0.16909000  0.33818000  0.67158000  1
  C  C173  1  0.22151000  0.44302000  0.55554000  1
  C  C174  1  0.16904000  0.33808000  0.82838000  1
  C  C175  1  0.22150000  0.44300000  0.94444000  1
  C  C176  1  0.16904000  0.83095000  0.82838000  1
  C  C177  1  0.22150000  0.77850000  0.94444000  1
  C  C178  1  0.66191000  0.83095000  0.82838000  1
  C  C179  1  0.55700000  0.77850000  0.94444000  1
  C  C180  1  0.83090000  0.66180000  0.32842000  1
  C  C181  1  0.77848000  0.55697000  0.44446000  1
  C  C182  1  0.83091000  0.16910000  0.32842000  1
  C  C183  1  0.77848000  0.22151000  0.44446000  1
  C  C184  1  0.33819000  0.16910000  0.32842000  1
  C  C185  1  0.44303000  0.22151000  0.44446000  1
  C  C186  1  0.20273000  0.18357000  0.25001000  1
  C  C187  1  0.81644000  0.01918000  0.25001000  1
  C  C188  1  0.98083000  0.79726000  0.25001000  1
  C  C189  1  0.79727000  0.81643000  0.74999000  1
  C  C190  1  0.18356000  0.98082000  0.74999000  1
  C  C191  1  0.01917000  0.20274000  0.74999000  1
  C  C192  1  0.18357000  0.20274000  0.74999000  1
  C  C193  1  0.01916000  0.81643000  0.74999000  1
  C  C194  1  0.79726000  0.98082000  0.74999000  1
  C  C195  1  0.81643000  0.79726000  0.25001000  1
  C  C196  1  0.98084000  0.18357000  0.25001000  1
  C  C197  1  0.20274000  0.01918000  0.25001000  1
  O  O198  1  0.43897000  0.02856000  0.09068000  1
  O  O199  1  0.48004000  0.10953000  0.99490000  1
  O  O200  1  0.97144000  0.41041000  0.09069000  1
  O  O201  1  0.89046000  0.37050000  0.99490000  1
  O  O202  1  0.58957000  0.56103000  0.09069000  1
  O  O203  1  0.62950000  0.51996000  0.99491000  1
  O  O204  1  0.56147000  0.97176000  0.58969000  1
  O  O205  1  0.51965000  0.88980000  0.49463000  1
  O  O206  1  0.02824000  0.58970000  0.58970000  1
  O  O207  1  0.11019000  0.62985000  0.49463000  1
  O  O208  1  0.41031000  0.43853000  0.58969000  1
  O  O209  1  0.37015000  0.48035000  0.49463000  1
  O  O210  1  0.02854000  0.43897000  0.90931000  1
  O  O211  1  0.10954000  0.48004000  0.00510000  1
  O  O212  1  0.41041000  0.97144000  0.90932000  1
  O  O213  1  0.37050000  0.89046000  0.00510000  1
  O  O214  1  0.56103000  0.58959000  0.90931000  1
  O  O215  1  0.51996000  0.62950000  0.00510000  1
  O  O216  1  0.97178000  0.56146000  0.41031000  1
  O  O217  1  0.88980000  0.51965000  0.50537000  1
  O  O218  1  0.58971000  0.02824000  0.41032000  1
  O  O219  1  0.62985000  0.11020000  0.50538000  1
  O  O220  1  0.43853000  0.41029000  0.41031000  1
  O  O221  1  0.48034000  0.37014000  0.50538000  1
  O  O222  1  0.56103000  0.97144000  0.90932000  1
  O  O223  1  0.51996000  0.89047000  0.00510000  1
  O  O224  1  0.02856000  0.58959000  0.90931000  1
  O  O225  1  0.10954000  0.62950000  0.00510000  1
  O  O226  1  0.41043000  0.43897000  0.90931000  1
  O  O227  1  0.37050000  0.48004000  0.00510000  1
  O  O228  1  0.43853000  0.02824000  0.41032000  1
  O  O229  1  0.48035000  0.11020000  0.50538000  1
  O  O230  1  0.97176000  0.41029000  0.41031000  1
  O  O231  1  0.88980000  0.37014000  0.50538000  1
  O  O232  1  0.58968000  0.56146000  0.41031000  1
  O  O233  1  0.62985000  0.51965000  0.50537000  1
  O  O234  1  0.97146000  0.56103000  0.09069000  1
  O  O235  1  0.89046000  0.51996000  0.99491000  1
  O  O236  1  0.58959000  0.02856000  0.09068000  1
  O  O237  1  0.62949000  0.10953000  0.99490000  1
  O  O238  1  0.43897000  0.41041000  0.09069000  1
  O  O239  1  0.48004000  0.37050000  0.99490000  1
  O  O240  1  0.02822000  0.43853000  0.58969000  1
  O  O241  1  0.11020000  0.48034000  0.49463000  1
  O  O242  1  0.41029000  0.97176000  0.58969000  1
  O  O243  1  0.37015000  0.88980000  0.49463000  1
  O  O244  1  0.56147000  0.58971000  0.58970000  1
  O  O245  1  0.51966000  0.62986000  0.49463000  1
