# generated using pymatgen
data_H11C18N4O
_symmetry_space_group_name_H-M   'P 1'
_cell_length_a   19.52810000
_cell_length_b   19.52810000
_cell_length_c   39.05610000
_cell_angle_alpha   90.00000000
_cell_angle_beta   90.00000000
_cell_angle_gamma   90.00000000
_symmetry_Int_Tables_number   1
_chemical_formula_structural   H11C18N4O
_chemical_formula_sum   'H88 C144 N32 O8'
_cell_volume   14893.91444408
_cell_formula_units_Z   8
loop_
 _symmetry_equiv_pos_site_id
 _symmetry_equiv_pos_as_xyz
  1  'x, y, z'
loop_
 _atom_site_type_symbol
 _atom_site_label
 _atom_site_symmetry_multiplicity
 _atom_site_fract_x
 _atom_site_fract_y
 _atom_site_fract_z
 _atom_site_occupancy
  C  1  1  0.01734500  0.98150400  0.01309000  1
  C  2  1  0.03114700  0.99993500  0.04766100  1
  C  3  1  0.02940100  0.95208300  0.07481200  1
  C  4  1  0.01409700  0.88299800  0.06748700  1
  C  5  1  0.99954000  0.86237400  0.03366200  1
  C  6  1  0.00189500  0.91146700  0.00716800  1
  C  9  1  0.01574300  0.03053100  0.98582900  1
  C  10  1  0.00437500  0.10122400  0.99223700  1
  C  11  1  0.99869500  0.15027100  0.96579900  1
  C  12  1  0.00430900  0.12870400  0.93145100  1
  C  13  1  0.01603300  0.05905400  0.92391300  1
  C  14  1  0.02237900  0.01142500  0.95082300  1
  C  25  1  0.02260900  0.00716000  0.51157700  1
  C  26  1  0.00580700  0.00799900  0.54707800  1
  C  27  1  0.05331900  0.99043000  0.57279400  1
  C  28  1  0.12160000  0.97542800  0.56358200  1
  C  29  1  0.14077300  0.97434000  0.52882200  1
  C  30  1  0.09144500  0.98970000  0.50355800  1
  C  33  1  0.97310400  0.02026900  0.48525600  1
  C  34  1  0.90171200  0.01363900  0.49152400  1
  C  35  1  0.85190200  0.02078200  0.46554900  1
  C  36  1  0.87306100  0.03576000  0.43187400  1
  C  37  1  0.94324200  0.04325500  0.42440800  1
  C  38  1  0.99183800  0.03642600  0.45095200  1
  C  49  1  0.97492200  0.00743100  0.83840000  1
  C  50  1  0.02828400  0.96434400  0.82682100  1
  C  51  1  0.03540600  0.94919700  0.79176900  1
  C  52  1  0.98922200  0.97765100  0.76768900  1
  C  54  1  0.92899600  0.03319500  0.81362800  1
  C  55  1  0.99572000  0.96755600  0.73168900  1
  C  56  1  0.95550600  0.00336000  0.70738500  1
  C  57  1  0.96734600  0.99406400  0.67214400  1
  C  58  1  0.01875400  0.94862100  0.66061900  1
  C  59  1  0.05628900  0.91254200  0.68571400  1
  C  67  1  0.96711500  0.02539500  0.87245100  1
  C  68  1  0.03445800  0.94022000  0.62631700  1
  C  71  1  0.00347900  0.01426100  0.33963000  1
  C  72  1  0.04114700  0.06840500  0.32483600  1
  C  73  1  0.04742500  0.07345500  0.28897700  1
  C  74  1  0.01493400  0.02464300  0.26764100  1
  C  76  1  0.97249200  0.96635700  0.31749700  1
  C  77  1  0.01937400  0.02570300  0.23126400  1
  C  78  1  0.97479600  0.98691700  0.21029900  1
  C  79  1  0.98288200  0.98775700  0.17455700  1
  C  80  1  0.03601200  0.02605700  0.15904900  1
  C  81  1  0.07827100  0.06526100  0.18095500  1
  C  89  1  0.99681100  0.00642200  0.37449700  1
  C  90  1  0.04500700  0.02603500  0.12375400  1
  C  93  1  0.95888600  0.68760800  0.00154500  1
  C  94  1  0.95960800  0.65061700  0.03268100  1
  C  95  1  0.95500400  0.57881000  0.03278400  1
  C  96  1  0.95073800  0.54270600  0.00143100  1
  C  98  1  0.95090800  0.64967000  0.97101900  1
  C  99  1  0.95262800  0.47050800  0.99956200  1
  C  100  1  0.95387200  0.43441600  0.96813900  1
  C  101  1  0.96165400  0.36285900  0.96807700  1
  C  102  1  0.96730000  0.32609900  0.99916100  1
  C  103  1  0.96315200  0.36396900  0.02988800  1
  C  111  1  0.96844600  0.75892200  0.00009800  1
  C  112  1  0.97816600  0.25495700  0.00030700  1
  C  115  1  0.31547400  0.94873100  0.49361100  1
  C  116  1  0.35184400  0.94024100  0.52466100  1
  C  117  1  0.42375900  0.94049000  0.52511200  1
  C  118  1  0.46055300  0.95031600  0.49429400  1
  C  120  1  0.35433600  0.95412600  0.46324700  1
  C  121  1  0.53242300  0.95808700  0.49347000  1
  C  122  1  0.56896600  0.97239000  0.46301400  1
  C  123  1  0.63989900  0.98418300  0.46435800  1
  C  124  1  0.67564800  0.98122300  0.49583600  1
  C  125  1  0.63735400  0.96518000  0.52542700  1
  C  133  1  0.24383400  0.95581800  0.49252000  1
  C  134  1  0.74645400  0.99325700  0.49836000  1
  C  545  1  0.32459500  0.18633750  0.08990260  1
  C  546  1  0.33839700  0.20476900  0.12447400  1
  C  547  1  0.33665100  0.15691650  0.15162500  1
  C  548  1  0.32134700  0.08783150  0.14430000  1
  C  549  1  0.30679000  0.06720750  0.11047500  1
  C  550  1  0.30914500  0.11630050  0.08398060  1
  C  553  1  0.32299300  0.23536500  0.06264160  1
  C  554  1  0.31162500  0.30605800  0.06904960  1
  C  555  1  0.30594500  0.35510500  0.04261160  1
  C  556  1  0.31155900  0.33353800  0.00826358  1
  C  557  1  0.32328300  0.26388800  0.00072559  1
  C  558  1  0.32962900  0.21625900  0.02763560  1
  C  569  1  0.32985900  0.21199400  0.58839000  1
  C  570  1  0.31305700  0.21283300  0.62389100  1
  C  571  1  0.36056900  0.19526350  0.64960700  1
  C  572  1  0.42885000  0.18026150  0.64039500  1
  C  573  1  0.44802300  0.17917350  0.60563500  1
  C  574  1  0.39869500  0.19453350  0.58037100  1
  C  577  1  0.28035400  0.22510300  0.56206900  1
  C  578  1  0.20896200  0.21847300  0.56833700  1
  C  579  1  0.15915180  0.22561600  0.54236200  1
  C  580  1  0.18031080  0.24059400  0.50868700  1
  C  581  1  0.25049200  0.24808900  0.50122100  1
  C  582  1  0.29908800  0.24126000  0.52776500  1
  C  593  1  0.28217200  0.21226500  0.91521300  1
  C  594  1  0.33553400  0.16917750  0.90363400  1
  C  595  1  0.34265600  0.15403050  0.86858200  1
  C  596  1  0.29647200  0.18248450  0.84450200  1
  C  598  1  0.23624600  0.23802900  0.89044100  1
  C  599  1  0.30297000  0.17238950  0.80850200  1
  C  600  1  0.26275600  0.20819400  0.78419800  1
  C  601  1  0.27459600  0.19889750  0.74895700  1
  C  602  1  0.32600400  0.15345450  0.73743200  1
  C  603  1  0.36353900  0.11737550  0.76252700  1
  C  611  1  0.27436500  0.23022900  0.94926400  1
  C  612  1  0.34170800  0.14505350  0.70313000  1
  C  615  1  0.31072900  0.21909500  0.41644300  1
  C  616  1  0.34839700  0.27323900  0.40164900  1
  C  617  1  0.35467500  0.27828900  0.36579000  1
  C  618  1  0.32218400  0.22947700  0.34445400  1
  C  620  1  0.27974200  0.17119050  0.39431000  1
  C  621  1  0.32662400  0.23053700  0.30807700  1
  C  622  1  0.28204600  0.19175050  0.28711200  1
  C  623  1  0.29013200  0.19259050  0.25137000  1
  C  624  1  0.34326200  0.23089100  0.23586200  1
  C  625  1  0.38552100  0.27009500  0.25776800  1
  C  633  1  0.30406100  0.21125600  0.45131000  1
  C  634  1  0.35225700  0.23086900  0.20056700  1
  C  637  1  0.26613600  0.89244200  0.07835760  1
  C  638  1  0.26685800  0.85545100  0.10949400  1
  C  639  1  0.26225400  0.78364400  0.10959700  1
  C  640  1  0.25798800  0.74754000  0.07824360  1
  C  642  1  0.25815800  0.85450400  0.04783160  1
  C  643  1  0.25987800  0.67534200  0.07637460  1
  C  644  1  0.26112200  0.63925000  0.04495160  1
  C  645  1  0.26890400  0.56769300  0.04488960  1
  C  646  1  0.27455000  0.53093300  0.07597360  1
  C  647  1  0.27040200  0.56880300  0.10670100  1
  C  655  1  0.27569600  0.96375600  0.07691060  1
  C  656  1  0.28541600  0.45979100  0.07711960  1
  C  659  1  0.62272400  0.15356450  0.57042400  1
  C  660  1  0.65909400  0.14507450  0.60147400  1
  C  661  1  0.73100900  0.14532350  0.60192500  1
  C  662  1  0.76780300  0.15514950  0.57110700  1
  C  664  1  0.66158600  0.15895950  0.54006000  1
  C  665  1  0.83967300  0.16292050  0.57028300  1
  C  666  1  0.87621600  0.17722350  0.53982700  1
  C  667  1  0.94714900  0.18901650  0.54117100  1
  C  668  1  0.98289800  0.18605650  0.57264900  1
  C  669  1  0.94460400  0.17001350  0.60224000  1
  C  677  1  0.55108400  0.16065150  0.56933300  1
  C  678  1  0.05370380  0.19809050  0.57517300  1
  H  7  1  0.04489400  0.04888900  0.05354700  1
  H  16  1  0.03355800  0.96207100  0.94419600  1
  H  17  1  0.05605900  0.81700000  0.09604200  1
  H  18  1  0.95068200  0.18045800  0.90050500  1
  H  19  1  0.98713200  0.89607600  0.98342200  1
  H  20  1  0.99530500  0.11736100  0.01656200  1
  H  31  1  0.95830000  0.02284100  0.55507600  1
  H  40  1  0.04182900  0.04432100  0.44446900  1
  H  41  1  0.18753500  0.00492800  0.59584300  1
  H  42  1  0.81974800  0.99509200  0.39685500  1
  H  43  1  0.10613100  0.98455200  0.47873000  1
  H  44  1  0.88508700  0.99765600  0.51484400  1
  H  61  1  0.09454500  0.87927800  0.67910600  1
  H  62  1  0.91874900  0.03752100  0.71490800  1
  H  63  1  0.93853300  0.02133500  0.65500700  1
  H  64  1  0.88953400  0.06496900  0.82027700  1
  H  65  1  0.06271600  0.94396400  0.84376600  1
  H  66  1  0.07517500  0.91869200  0.78414200  1
  H  69  1  0.05162000  0.89482400  0.61844700  1
  H  70  1  0.91994200  0.03293900  0.88144000  1
  H  83  1  0.11724800  0.09459400  0.17143300  1
  H  84  1  0.93616000  0.95815900  0.22061700  1
  H  85  1  0.94979600  0.95938800  0.15997400  1
  H  86  1  0.94451200  0.92610200  0.32675100  1
  H  87  1  0.06478000  0.10405000  0.33999800  1
  H  88  1  0.07502100  0.11303400  0.27877600  1
  H  91  1  0.07702800  0.06016100  0.11373100  1
  H  92  1  0.00998200  0.96168000  0.38482100  1
  H  105  1  0.96704400  0.34071500  0.05327200  1
  H  106  1  0.95156000  0.45950900  0.94517400  1
  H  107  1  0.96421200  0.33820100  0.94499800  1
  H  108  1  0.95030800  0.67309800  0.94759700  1
  H  109  1  0.96508200  0.67529200  0.05562800  1
  H  110  1  0.95763600  0.55365400  0.05572100  1
  H  113  1  0.98211400  0.23153900  0.02362000  1
  H  114  1  0.96838000  0.78251400  0.97674700  1
  H  127  1  0.65990600  0.96213800  0.54901300  1
  H  128  1  0.54461400  0.97597900  0.43989100  1
  H  129  1  0.66490200  0.99535400  0.44202600  1
  H  130  1  0.33139700  0.96096000  0.43995200  1
  H  131  1  0.32656200  0.93590900  0.54750300  1
  H  132  1  0.44826800  0.93654400  0.54817800  1
  H  135  1  0.76969400  0.98913400  0.52171400  1
  H  136  1  0.22034100  0.96442200  0.46953300  1
  H  551  1  0.35214400  0.25372300  0.13036000  1
  H  560  1  0.34080800  0.16690450  0.02100860  1
  H  561  1  0.36330900  0.02183350  0.17285500  1
  H  562  1  0.25793200  0.38529200  0.97731800  1
  H  563  1  0.29438200  0.10090950  0.06023460  1
  H  564  1  0.30255500  0.32219500  0.09337460  1
  H  575  1  0.26555000  0.22767500  0.63188900  1
  H  584  1  0.34907900  0.24915500  0.52128200  1
  H  585  1  0.49478500  0.20976200  0.67265600  1
  H  586  1  0.12699780  0.19992550  0.47366800  1
  H  587  1  0.41338100  0.18938550  0.55554300  1
  H  588  1  0.19233680  0.20249000  0.59165700  1
  H  605  1  0.40179500  0.08411150  0.75591900  1
  H  606  1  0.22599900  0.24235500  0.79172100  1
  H  607  1  0.24578300  0.22616900  0.73182000  1
  H  608  1  0.19678380  0.26980300  0.89709000  1
  H  609  1  0.36996600  0.14879750  0.92057900  1
  H  610  1  0.38242500  0.12352550  0.86095500  1
  H  613  1  0.35887000  0.09965750  0.69526000  1
  H  614  1  0.22719200  0.23777300  0.95825300  1
  H  627  1  0.42449800  0.29942800  0.24824600  1
  H  628  1  0.24341000  0.16299250  0.29743000  1
  H  629  1  0.25704600  0.16422150  0.23678700  1
  H  630  1  0.25176200  0.13093550  0.40356400  1
  H  631  1  0.37203000  0.30888400  0.41681100  1
  H  632  1  0.38227100  0.31786800  0.35558900  1
  H  635  1  0.38427800  0.26499500  0.19054400  1
  H  636  1  0.31723200  0.16651350  0.46163400  1
  H  649  1  0.27429400  0.54554900  0.13008500  1
  H  650  1  0.25881000  0.66434300  0.02198660  1
  H  651  1  0.27146200  0.54303500  0.02181060  1
  H  652  1  0.25755800  0.87793200  0.02440960  1
  H  653  1  0.27233200  0.88012600  0.13244100  1
  H  654  1  0.26488600  0.75848800  0.13253400  1
  H  657  1  0.28936400  0.43637300  0.10043300  1
  H  658  1  0.27563000  0.98734800  0.05355960  1
  H  671  1  0.96715600  0.16697150  0.62582600  1
  H  672  1  0.85186400  0.18081250  0.51670400  1
  H  673  1  0.97215200  0.20018800  0.51883900  1
  H  674  1  0.63864700  0.16579350  0.51676500  1
  H  675  1  0.63381200  0.14074250  0.62431600  1
  H  676  1  0.75551800  0.14137750  0.62499100  1
  H  679  1  0.07694380  0.19396750  0.59852700  1
  H  680  1  0.52759100  0.16925550  0.54634600  1
  N  21  1  0.01914100  0.03767400  0.89171800  1
  N  22  1  0.98644400  0.21756400  0.97149300  1
  N  23  1  0.98390600  0.79563200  0.02840000  1
  N  24  1  0.03797300  0.96865100  0.10755200  1
  N  45  1  0.96176400  0.05003700  0.39184700  1
  N  46  1  0.78427400  0.00953100  0.47058000  1
  N  47  1  0.20707600  0.96030400  0.52171400  1
  N  48  1  0.03376700  0.99110400  0.60537600  1
  N  53  1  0.93819000  0.01822600  0.78005500  1
  N  60  1  0.04406600  0.92371400  0.71941400  1
  N  75  1  0.97915400  0.97347500  0.28317200  1
  N  82  1  0.06883000  0.06330000  0.21539100  1
  N  97  1  0.94839800  0.58039000  0.97212300  1
  N  104  1  0.95702700  0.43300800  0.02886500  1
  N  119  1  0.42361700  0.95598800  0.46485200  1
  N  126  1  0.56890200  0.95508400  0.52314500  1
  N  565  1  0.32639100  0.24250800  0.96853100  1
  N  566  1  0.29369400  0.42239800  0.04830560  1
  N  567  1  0.29115600  0.00046552  0.10521300  1
  N  568  1  0.34522300  0.17348450  0.18436500  1
  N  589  1  0.26901400  0.25487100  0.46866000  1
  N  590  1  0.09152380  0.21436500  0.54739300  1
  N  591  1  0.51432600  0.16513750  0.59852700  1
  N  592  1  0.34101700  0.19593750  0.68218900  1
  N  597  1  0.24544000  0.22306000  0.85686800  1
  N  604  1  0.35131600  0.12854750  0.79622700  1
  N  619  1  0.28640400  0.17830850  0.35998500  1
  N  626  1  0.37608000  0.26813400  0.29220400  1
  N  641  1  0.25564800  0.78522400  0.04893560  1
  N  648  1  0.26427700  0.63784200  0.10567800  1
  N  663  1  0.73086700  0.16082150  0.54166500  1
  N  670  1  0.87615200  0.15991750  0.59995800  1
  O  8  1  0.00995100  0.83641400  0.09347200  1
  O  15  1  0.99970800  0.17500900  0.90539600  1
  O  32  1  0.16886000  0.96076200  0.58825200  1
  O  39  1  0.82580800  0.04135200  0.40625900  1
  O  552  1  0.31720100  0.04124750  0.17028500  1
  O  559  1  0.30695800  0.37984300  0.98220900  1
  O  576  1  0.47611000  0.16559550  0.66506500  1
  O  583  1  0.13305780  0.24618600  0.48307200  1
