# generated using pymatgen
data_Cr6H29C70(O2F)13
_symmetry_space_group_name_H-M   'P 1'
_cell_length_a   11.02484249
_cell_length_b   11.04680000
_cell_length_c   18.75976000
_cell_angle_alpha   90.27084000
_cell_angle_beta   90.09797704
_cell_angle_gamma   60.58220473
_symmetry_Int_Tables_number   1
_chemical_formula_structural   Cr6H29C70(O2F)13
_chemical_formula_sum   'Cr6 H29 C70 O26 F13'
_cell_volume   1990.12302003
_cell_formula_units_Z   1
loop_
 _symmetry_equiv_pos_site_id
 _symmetry_equiv_pos_as_xyz
  1  'x, y, z'
loop_
 _atom_site_type_symbol
 _atom_site_label
 _atom_site_symmetry_multiplicity
 _atom_site_fract_x
 _atom_site_fract_y
 _atom_site_fract_z
 _atom_site_occupancy
  Cr  Cr0  1  0.39316000  0.20858000  0.50584000  1
  Cr  Cr1  1  0.39844000  0.89306000  0.49507000  1
  Cr  Cr2  1  0.70837000  0.89841000  0.49913000  1
  Cr  Cr3  1  0.93694000  0.12550000  0.00824000  1
  Cr  Cr4  1  0.62500000  0.43795000  0.99892000  1
  Cr  Cr5  1  0.93823000  0.43632000  0.99247000  1
  H  H6  1  0.34859000  0.39698000  0.33314000  1
  H  H7  1  0.90201000  0.68902000  0.79526000  1
  H  H8  1  0.01648000  0.50327000  0.66363000  1
  H  H9  1  0.54234000  0.42595000  0.68750000  1
  H  H10  1  0.27351000  0.24819000  0.83052000  1
  H  H11  1  0.97991000  0.97848000  0.79428000  1
  H  H12  1  0.01098000  0.87474000  0.00494000  1
  H  H13  1  0.20130000  0.87533000  0.67912000  1
  H  H14  1  0.00751000  0.97460000  0.66707000  1
  H  H15  1  0.10545000  0.80756000  0.12693000  1
  H  H16  1  0.54459000  0.57681000  0.17938000  1
  H  H17  1  0.54018000  0.41181000  0.27391000  1
  H  H18  1  0.75268000  0.35976000  0.24103000  1
  H  H19  1  0.90886000  0.13968000  0.35642000  1
  H  H20  1  0.76960000  0.92502000  0.97876000  1
  H  H21  1  0.18692000  0.97972000  0.18697000  1
  H  H22  1  0.90659000  0.69587000  0.66879000  1
  H  H23  1  0.80073000  0.92067000  0.70222000  1
  H  H24  1  0.55245000  0.44018000  0.81428000  1
  H  H25  1  0.37226000  0.46442000  0.82213000  1
  H  H26  1  0.29976000  0.25004000  0.70119000  1
  H  H27  1  0.62972000  0.89564000  0.07069000  1
  H  H28  1  0.43394000  0.13191000  0.28087000  1
  H  H29  1  0.92180000  0.20637000  0.23036000  1
  H  H30  1  0.12834000  0.00613000  0.30941000  1
  H  H31  1  0.96101000  0.46730000  0.18523000  1
  H  H32  1  0.08684000  0.51056000  0.31707000  1
  H  H33  1  0.95097000  0.45796000  0.31240000  1
  H  H34  1  0.44788000  0.72821000  0.68035000  1
  C  C35  1  0.22463000  0.13279000  0.39785000  1
  C  C36  1  0.59624000  0.62780000  0.20455000  1
  C  C37  1  0.58849000  0.64016000  0.27762000  1
  C  C38  1  0.64529000  0.74020000  0.38774000  1
  C  C39  1  0.25565000  0.60391000  0.37560000  1
  C  C40  1  0.35664000  0.49010000  0.33763000  1
  C  C41  1  0.46711000  0.49777000  0.30514000  1
  C  C42  1  0.47776000  0.61884000  0.31155000  1
  C  C43  1  0.65680000  0.70662000  0.31128000  1
  C  C44  1  0.65915000  0.18512000  0.17984000  1
  C  C45  1  0.75643000  0.16164000  0.23252000  1
  C  C46  1  0.79328000  0.81730000  0.15043000  1
  C  C47  1  0.73741000  0.13491000  0.30175000  1
  C  C48  1  0.52206000  0.14460667  0.26747000  1
  C  C49  1  0.54389000  0.16892000  0.19637000  1
  C  C50  1  0.58482000  0.12860000  0.39532000  1
  C  C51  1  0.81890000  0.24865000  0.25370000  1
  C  C52  1  0.80840000  0.21053000  0.33049000  1
  C  C53  1  0.61271000  0.14103000  0.32138000  1
  C  C54  1  0.16630000  0.18548000  0.17622000  1
  C  C55  1  0.16176000  0.29420000  0.21675000  1
  C  C56  1  0.16341000  0.29124000  0.29189000  1
  C  C57  1  0.66916000  0.67714000  0.16374000  1
  C  C58  1  0.14986000  0.08223000  0.28579000  1
  C  C59  1  0.18125000  0.06936000  0.21390000  1
  C  C60  1  0.06002000  0.44287000  0.21208000  1
  C  C61  1  0.05272000  0.44195000  0.29224000  1
  C  C62  1  0.23319000  0.11294000  0.60473000  1
  C  C63  1  0.15811000  0.18215000  0.32764000  1
  C  C64  1  0.69267000  0.60977000  0.80930000  1
  C  C65  1  0.81093000  0.55970000  0.76589000  1
  C  C66  1  0.80115000  0.57418000  0.69304000  1
  C  C67  1  0.55119000  0.67723000  0.70326000  1
  C  C68  1  0.72029000  0.76647000  0.26894000  1
  C  C69  1  0.56277000  0.66078000  0.77710000  1
  C  C70  1  0.92948000  0.58882000  0.76935000  1
  C  C71  1  0.92626000  0.59395000  0.68897000  1
  C  C72  1  0.66982000  0.64601000  0.66151000  1
  C  C73  1  0.65029000  0.14958000  0.83913000  1
  C  C74  1  0.64948000  0.71925000  0.59503000  1
  C  C75  1  0.53815000  0.25263000  0.80019000  1
  C  C76  1  0.53376000  0.24524000  0.72781000  1
  C  C77  1  0.72960000  0.01560000  0.72933000  1
  C  C78  1  0.73466000  0.02277000  0.80461000  1
  C  C79  1  0.72625000  0.75385000  0.19509000  1
  C  C80  1  0.47689000  0.40782000  0.79686000  1
  C  C81  1  0.47269000  0.39728000  0.71684000  1
  C  C82  1  0.63628000  0.13451000  0.69003000  1
  C  C83  1  0.15201000  0.14351000  0.82542000  1
  C  C84  1  0.08227000  0.09861000  0.77931000  1
  C  C85  1  0.09939000  0.09626000  0.70656000  1
  C  C86  1  0.61638000  0.13389000  0.61331000  1
  C  C87  1  0.23879000  0.20687000  0.72252000  1
  C  C88  1  0.22683000  0.20294000  0.79637000  1
  C  C89  1  0.08032000  0.96494000  0.77737000  1
  C  C90  1  0.36068000  0.73686000  0.33455000  1
  C  C91  1  0.09973000  0.96190000  0.69736000  1
  C  C92  1  0.18227000  0.14525000  0.67704000  1
  C  C93  1  0.68318000  0.22509000  0.11054000  1
  C  C94  1  0.70662000  0.62000000  0.09249000  1
  C  C95  1  0.10316000  0.20528000  0.10504000  1
  C  C96  1  0.68705000  0.19100000  0.90650000  1
  C  C97  1  0.71387000  0.58105000  0.88476000  1
  C  C98  1  0.94885000  0.86305000  0.04608000  1
  C  C99  1  0.10678000  0.16885000  0.89864000  1
  C  C100  1  0.00226000  0.82445000  0.11479000  1
  C  C101  1  0.25282000  0.73067000  0.37080000  1
  C  C102  1  0.92529000  0.80209000  0.16715000  1
  C  C103  1  0.73358000  0.87557000  0.08407000  1
  C  C104  1  0.81309000  0.89208000  0.03134000  1
  O  O105  1  0.50248000  0.24619000  0.42797000  1
  O  O106  1  0.82509000  0.59238000  0.06783000  1
  O  O107  1  0.05362000  0.32154000  0.07088000  1
  O  O108  1  0.27607000  0.20040000  0.42945000  1
  O  O109  1  0.08033000  0.08017000  0.92669000  1
  O  O110  1  0.80962000  0.12352000  0.93605000  1
  O  O111  1  0.59679000  0.31222000  0.92503000  1
  O  O112  1  0.63871000  0.54088000  0.91848000  1
  O  O113  1  0.82916000  0.56220000  0.90751000  1
  O  O114  1  0.05740000  0.29355000  0.92226000  1
  O  O115  1  0.83339000  0.33326000  0.99988000  1
  O  O116  1  0.52898000  0.77119000  0.56712000  1
  O  O117  1  0.25586000  0.00887000  0.41674000  1
  O  O118  1  0.52759000  0.78185000  0.41822000  1
  O  O119  1  0.73947000  0.76216000  0.41431000  1
  O  O120  1  0.69427000  0.03365000  0.42895000  1
  O  O121  1  0.50398000  0.23469000  0.58860000  1
  O  O122  1  0.27746000  0.18973000  0.57835000  1
  O  O123  1  0.25736000  0.99736000  0.57737000  1
  O  O124  1  0.74097000  0.75066000  0.57494000  1
  O  O125  1  0.69566000  0.02298000  0.57785000  1
  O  O126  1  0.49999000  0.00002000  0.50002000  1
  O  O127  1  0.07625000  0.11037000  0.08700000  1
  O  O128  1  0.80584000  0.15151000  0.08466000  1
  O  O129  1  0.59272000  0.34240000  0.08535000  1
  O  O130  1  0.63494000  0.56886000  0.06709000  1
  F  F131  1  0.76641000  0.84789000  0.29932000  1
  F  F132  1  0.33791000  0.45797000  0.69091000  1
  F  F133  1  0.19174000  0.85941000  0.81241000  1
  F  F134  1  0.98457000  0.75830000  0.23208000  1
  F  F135  1  0.35789000  0.85576000  0.31855000  1
  F  F136  1  0.15781000  0.59338000  0.41457000  1
  F  F137  1  0.45215000  0.18063000  0.14497000  1
  F  F138  1  0.72307000  0.32387000  0.37254000  1
  F  F139  1  0.12597000  0.51237000  0.18618000  1
  F  F140  1  0.44746000  0.70200000  0.81740000  1
  F  F141  1  0.04901000  0.47949000  0.79602000  1
  F  F142  1  0.14542000  0.84522000  0.40039000  1
  F  F143  1  0.82812000  0.91203000  0.84262000  1
