# generated using pymatgen
data_H32C47N8
_symmetry_space_group_name_H-M   'P 1'
_cell_length_a   27.58430000
_cell_length_b   37.48740000
_cell_length_c   37.48740000
_cell_angle_alpha   90.00000000
_cell_angle_beta   90.00000000
_cell_angle_gamma   90.00000000
_symmetry_Int_Tables_number   1
_chemical_formula_structural   H32C47N8
_chemical_formula_sum   'H128 C188 N32'
_cell_volume   38764.35909078
_cell_formula_units_Z   4
loop_
 _symmetry_equiv_pos_site_id
 _symmetry_equiv_pos_as_xyz
  1  'x, y, z'
loop_
 _atom_site_type_symbol
 _atom_site_label
 _atom_site_symmetry_multiplicity
 _atom_site_fract_x
 _atom_site_fract_y
 _atom_site_fract_z
 _atom_site_occupancy
  H  26  1  0.89992200  0.92911500  0.40192400  1
  H  27  1  0.96265700  0.93945700  0.35949400  1
  H  28  1  0.88927800  0.03967600  0.42054100  1
  H  29  1  0.95108500  0.05018700  0.37789500  1
  H  30  1  0.04531800  0.07004500  0.35908900  1
  H  31  1  0.11127600  0.07934400  0.39922700  1
  H  32  1  0.11884000  0.96878100  0.41840200  1
  H  33  1  0.05430600  0.95917300  0.37771900  1
  H  34  1  0.09471000  0.98942300  0.30930900  1
  H  35  1  0.12066800  0.94667300  0.26764500  1
  H  36  1  0.97624800  0.91341600  0.25242500  1
  H  37  1  0.94983400  0.95631600  0.29532600  1
  H  38  1  0.91134800  0.02073400  0.30929100  1
  H  39  1  0.05640700  0.05312100  0.29511000  1
  H  40  1  0.03018500  0.09697900  0.25315600  1
  H  45  1  0.88562700  0.06418700  0.26794300  1
  H  71  1  0.39992300  0.08111400  0.60824200  1
  H  72  1  0.46263600  0.07082200  0.65069600  1
  H  73  1  0.38936300  0.97053400  0.58970200  1
  H  74  1  0.45115200  0.96007500  0.63237500  1
  H  75  1  0.54536500  0.94028400  0.65120800  1
  H  76  1  0.61133300  0.93099800  0.61107500  1
  H  77  1  0.61885200  0.04156500  0.59190000  1
  H  78  1  0.55430500  0.05115700  0.63256700  1
  H  79  1  0.59466800  0.02104100  0.70102200  1
  H  80  1  0.62044000  0.06387300  0.74269200  1
  H  81  1  0.47589400  0.09690700  0.75774000  1
  H  82  1  0.44968000  0.05393000  0.71486400  1
  H  83  1  0.41134300  0.98949000  0.70093700  1
  H  84  1  0.55645800  0.95729000  0.71521900  1
  H  85  1  0.53029800  0.91345900  0.75721700  1
  H  90  1  0.38568300  0.94605400  0.74232900  1
  H  116  1  0.14990300  0.60824400  0.92915800  1
  H  117  1  0.21258600  0.65071200  0.93948600  1
  H  118  1  0.13926800  0.58966700  0.03972600  1
  H  119  1  0.20102400  0.63235900  0.05022300  1
  H  120  1  0.29526900  0.65120000  0.07003000  1
  H  121  1  0.36126600  0.61108500  0.07929100  1
  H  122  1  0.36880000  0.59198000  0.96871200  1
  H  123  1  0.30422600  0.63263400  0.95914400  1
  H  124  1  0.34449500  0.70112600  0.98938600  1
  H  125  1  0.37028000  0.74284400  0.94660600  1
  H  126  1  0.22577300  0.75778800  0.91343500  1
  H  127  1  0.19955100  0.71486400  0.95636100  1
  H  128  1  0.16122600  0.70096400  0.02076500  1
  H  129  1  0.30626500  0.71521400  0.05312300  1
  H  130  1  0.28003300  0.75718800  0.09695300  1
  H  135  1  0.13548100  0.74233200  0.06418400  1
  H  161  1  0.65000800  0.40213000  0.08113900  1
  H  162  1  0.71271000  0.35967600  0.07080800  1
  H  163  1  0.63919300  0.42057600  0.97055800  1
  H  164  1  0.70096800  0.37789800  0.96005900  1
  H  165  1  0.79516300  0.35915800  0.94024400  1
  H  166  1  0.86115700  0.39927000  0.93096100  1
  H  167  1  0.86895500  0.41821000  0.04155400  1
  H  168  1  0.80438500  0.37755900  0.05114600  1
  H  169  1  0.84447000  0.30906400  0.02077500  1
  H  170  1  0.87028200  0.26739100  0.06360400  1
  H  171  1  0.72583300  0.25270000  0.09703300  1
  H  172  1  0.69957900  0.29556300  0.05405700  1
  H  173  1  0.66121700  0.30930400  0.98972500  1
  H  174  1  0.80613600  0.29516300  0.95699400  1
  H  175  1  0.77973000  0.25325700  0.91314700  1
  H  180  1  0.63531800  0.26799100  0.94631300  1
  H  191  1  0.90921300  0.09843400  0.07062900  1
  H  192  1  0.84504300  0.22840400  0.17942600  1
  H  193  1  0.86627900  0.19270300  0.22951200  1
  H  195  1  0.94593700  0.03790300  0.14715100  1
  H  196  1  0.97135000  0.05080900  0.10569600  1
  H  197  1  0.91145000  0.03341500  0.10751300  1
  H  199  1  0.86989700  0.20718100  0.08790900  1
  H  201  1  0.88259300  0.13235900  0.25262700  1
  H  212  1  0.40922600  0.91193000  0.93974500  1
  H  213  1  0.34506700  0.78192100  0.83098300  1
  H  214  1  0.36638600  0.81758900  0.78088900  1
  H  216  1  0.44609400  0.97239300  0.86320700  1
  H  217  1  0.47146000  0.95948500  0.90467700  1
  H  218  1  0.41158900  0.97693100  0.90283100  1
  H  220  1  0.36952600  0.80331000  0.92262500  1
  H  222  1  0.38236600  0.87810600  0.75791600  1
  H  233  1  0.15909300  0.93974500  0.09860500  1
  H  234  1  0.09580900  0.83081000  0.22869800  1
  H  235  1  0.11659300  0.78075800  0.19280200  1
  H  237  1  0.19528400  0.86327900  0.03782800  1
  H  238  1  0.22086400  0.90468000  0.05072900  1
  H  239  1  0.16086700  0.90297000  0.03350900  1
  H  241  1  0.12057800  0.92233400  0.20732500  1
  H  243  1  0.13239100  0.75773200  0.13231500  1
  H  254  1  0.65911800  0.07062200  0.91176800  1
  H  255  1  0.59515000  0.17957900  0.78187600  1
  H  256  1  0.61604600  0.22962800  0.81774100  1
  H  258  1  0.69530900  0.14708000  0.97255300  1
  H  259  1  0.72092500  0.10570600  0.95961000  1
  H  260  1  0.66094900  0.10736400  0.97687800  1
  H  262  1  0.62020800  0.08809200  0.80292800  1
  H  264  1  0.63183100  0.25255400  0.87802000  1
  H  275  1  0.63357100  0.95877500  0.42404900  1
  H  276  1  0.75453500  0.00279800  0.56905800  1
  H  277  1  0.82811300  0.00371100  0.53634000  1
  H  279  1  0.74695000  0.95976500  0.36671800  1
  H  280  1  0.68726800  0.97695500  0.36331700  1
  H  281  1  0.69663600  0.93093100  0.37241000  1
  H  283  1  0.64029900  0.00718500  0.53301900  1
  H  285  1  0.86756600  0.00849900  0.47932100  1
  H  296  1  0.13364100  0.05155300  0.58627700  1
  H  297  1  0.25446600  0.00751600  0.44121800  1
  H  298  1  0.32805400  0.00648100  0.47392200  1
  H  300  1  0.24703300  0.05038800  0.64359200  1
  H  301  1  0.18731800  0.03325900  0.64698300  1
  H  302  1  0.19677500  0.07928200  0.63793400  1
  H  304  1  0.14027500  0.00317200  0.47729600  1
  H  306  1  0.36767300  0.00181700  0.53085300  1
  H  317  1  0.88357200  0.58617800  0.95879900  1
  H  318  1  0.00449900  0.44113800  0.00279300  1
  H  319  1  0.07808900  0.47385500  0.00372900  1
  H  321  1  0.99696600  0.64349600  0.95982100  1
  H  322  1  0.93728000  0.64690300  0.97699800  1
  H  323  1  0.94666200  0.63781200  0.93097700  1
  H  325  1  0.89023500  0.47721600  0.00714900  1
  H  327  1  0.11753100  0.53088200  0.00857800  1
  H  338  1  0.38358100  0.42409400  0.05153200  1
  H  339  1  0.50445400  0.56913000  0.00744100  1
  H  340  1  0.57804600  0.53642600  0.00650300  1
  H  342  1  0.49698600  0.36679000  0.05051100  1
  H  343  1  0.43729200  0.36337000  0.03334800  1
  H  344  1  0.44669300  0.37248000  0.07936500  1
  H  346  1  0.39020400  0.53305600  0.00312100  1
  H  348  1  0.61749300  0.47939800  0.00166700  1
  C  1  1  0.95513100  0.08621200  0.25780400  1
  C  2  1  0.00472400  0.08158700  0.26571200  1
  C  3  1  0.02001700  0.05588200  0.29082800  1
  C  4  1  0.98657200  0.03424200  0.30993600  1
  C  5  1  0.93721100  0.03743700  0.29921300  1
  C  6  1  0.92165100  0.06303300  0.27434000  1
  C  7  1  0.00299800  0.00491400  0.33584100  1
  C  8  1  0.01949700  0.97582100  0.30969900  1
  C  9  1  0.98620300  0.95398700  0.29068400  1
  C  10  1  0.00163200  0.92880500  0.26506800  1
  C  11  1  0.05107800  0.92535900  0.25604700  1
  C  12  1  0.08450200  0.94790200  0.27352700  1
  C  13  1  0.06885100  0.97291900  0.29890300  1
  C  14  1  0.04379100  0.01336400  0.36239100  1
  C  15  1  0.96235600  0.99615300  0.36238600  1
  C  16  1  0.94669100  0.96111500  0.37105300  1
  C  17  1  0.91005400  0.95483500  0.39657300  1
  C  18  1  0.88849800  0.98326600  0.41543000  1
  C  19  1  0.90419600  0.01826900  0.40766200  1
  C  20  1  0.94061100  0.02436000  0.38218700  1
  C  21  1  0.06089700  0.04817600  0.37052700  1
  C  22  1  0.09938800  0.05388300  0.39468700  1
  C  23  1  0.12091000  0.02507200  0.41296000  1
  C  24  1  0.10342200  0.99038600  0.40616000  1
  C  25  1  0.06541300  0.98487200  0.38187800  1
  C  46  1  0.45521900  0.92410200  0.75249500  1
  C  47  1  0.50481300  0.92879500  0.74462100  1
  C  48  1  0.52007100  0.95448600  0.71948200  1
  C  49  1  0.48659600  0.97606900  0.70033900  1
  C  50  1  0.43723100  0.97282000  0.71103600  1
  C  51  1  0.42170400  0.94722800  0.73592500  1
  C  52  1  0.50299300  0.00540000  0.67442900  1
  C  53  1  0.51942200  0.03452200  0.70056100  1
  C  54  1  0.48603400  0.05631600  0.71953200  1
  C  55  1  0.50135100  0.08155600  0.74512500  1
  C  56  1  0.55076300  0.08506600  0.75420000  1
  C  57  1  0.58428900  0.06255900  0.73678600  1
  C  58  1  0.56874800  0.03750400  0.71140700  1
  C  59  1  0.54383500  0.99696400  0.64792200  1
  C  60  1  0.46236800  0.01412000  0.64785500  1
  C  61  1  0.44666700  0.04914600  0.63917200  1
  C  62  1  0.41003400  0.05539800  0.61364100  1
  C  63  1  0.38852900  0.02694700  0.59478100  1
  C  64  1  0.40425200  0.99195500  0.60257800  1
  C  65  1  0.44065700  0.98589400  0.62806700  1
  C  66  1  0.56094600  0.96215500  0.63977500  1
  C  67  1  0.59944300  0.95645700  0.61562000  1
  C  68  1  0.62096900  0.98527500  0.59736100  1
  C  69  1  0.60345900  0.01995700  0.60415200  1
  C  70  1  0.56544100  0.02546000  0.62843000  1
  C  91  1  0.20497500  0.75249800  0.08620800  1
  C  92  1  0.25457200  0.74460800  0.08157900  1
  C  93  1  0.26987200  0.71947900  0.05588800  1
  C  94  1  0.23644400  0.70031500  0.03427900  1
  C  95  1  0.18708700  0.71106000  0.03745900  1
  C  96  1  0.17150600  0.73593300  0.06304600  1
  C  97  1  0.25287700  0.67444300  0.00493000  1
  C  98  1  0.26927500  0.70058700  0.97581600  1
  C  99  1  0.23590300  0.71956200  0.95401400  1
  C  100  1  0.25121800  0.74518900  0.92881100  1
  C  101  1  0.30062500  0.75429900  0.92534600  1
  C  102  1  0.33413700  0.73689600  0.94787000  1
  C  103  1  0.31858700  0.71149200  0.97289800  1
  C  104  1  0.29372900  0.64793800  0.01334700  1
  C  105  1  0.21226000  0.64787100  0.99618800  1
  C  106  1  0.19663100  0.63915600  0.96115200  1
  C  107  1  0.15999500  0.61363500  0.95487800  1
  C  108  1  0.13847300  0.59476800  0.98331700  1
  C  109  1  0.15417000  0.60255200  0.01831600  1
  C  110  1  0.19055400  0.62805400  0.02439800  1
  C  111  1  0.31084800  0.63978000  0.04815100  1
  C  112  1  0.34936200  0.61563400  0.05383600  1
  C  113  1  0.37090300  0.59740300  0.02500700  1
  C  114  1  0.35339500  0.60421400  0.99032700  1
  C  115  1  0.31536000  0.62848000  0.98484000  1
  C  136  1  0.70472000  0.25787600  0.92409400  1
  C  137  1  0.75433100  0.26579400  0.92861100  1
  C  138  1  0.76973500  0.29088400  0.95430700  1
  C  139  1  0.73637900  0.30997100  0.97604000  1
  C  140  1  0.68701400  0.29923400  0.97295900  1
  C  141  1  0.67134600  0.27439400  0.94737400  1
  C  142  1  0.75288500  0.33585400  0.00536000  1
  C  143  1  0.76928900  0.30968800  0.03445300  1
  C  144  1  0.73592600  0.29082000  0.05635200  1
  C  145  1  0.75126100  0.26522400  0.08158100  1
  C  146  1  0.80065500  0.25605600  0.08498300  1
  C  147  1  0.83414500  0.27336100  0.06236100  1
  C  148  1  0.81858900  0.29874600  0.03731500  1
  C  149  1  0.79374500  0.36234600  0.99693200  1
  C  150  1  0.71231100  0.36246600  0.01410400  1
  C  151  1  0.69671200  0.37119900  0.04914300  1
  C  152  1  0.66008200  0.39672500  0.05541700  1
  C  153  1  0.63849400  0.41554500  0.02697400  1
  C  154  1  0.65414400  0.40772900  0.99197100  1
  C  155  1  0.69054200  0.38223500  0.98588900  1
  C  156  1  0.81080600  0.37053800  0.96212100  1
  C  157  1  0.84930900  0.39469000  0.95642300  1
  C  158  1  0.87090500  0.41289100  0.98524800  1
  C  159  1  0.85350000  0.40600600  0.01994100  1
  C  160  1  0.81544200  0.38176300  0.02544100  1
  C  181  1  0.86317600  0.19022500  0.13970700  1
  C  182  1  0.88235400  0.15536100  0.13507700  1
  C  183  1  0.89556800  0.13411900  0.16505800  1
  C  184  1  0.89040500  0.14748700  0.20024600  1
  C  185  1  0.87093400  0.18216100  0.20453200  1
  C  186  1  0.85797400  0.20319000  0.17492200  1
  C  188  1  0.91870000  0.08643600  0.12566400  1
  C  189  1  0.90576500  0.10762900  0.09616000  1
  C  194  1  0.93798300  0.05002600  0.12130800  1
  C  198  1  0.85300000  0.21235200  0.11078100  1
  C  200  1  0.90033800  0.12673000  0.23017900  1
  C  202  1  0.36310500  0.82014000  0.87069500  1
  C  203  1  0.38230800  0.85499700  0.87531300  1
  C  204  1  0.39557700  0.87621400  0.84532900  1
  C  205  1  0.39044000  0.86282900  0.81015000  1
  C  206  1  0.37095800  0.82815800  0.80586500  1
  C  207  1  0.35796100  0.80714900  0.83548300  1
  C  209  1  0.41876700  0.92389400  0.88470800  1
  C  210  1  0.40577800  0.90272700  0.91421600  1
  C  215  1  0.43810400  0.96029100  0.88905300  1
  C  219  1  0.35307500  0.79798300  0.89962200  1
  C  221  1  0.40063000  0.88351800  0.78020300  1
  C  223  1  0.11354900  0.87057200  0.19046400  1
  C  224  1  0.13243400  0.87523500  0.15551400  1
  C  225  1  0.14543100  0.84527600  0.13417000  1
  C  226  1  0.14033900  0.81007500  0.14751200  1
  C  227  1  0.12114000  0.80574800  0.18226300  1
  C  228  1  0.10843700  0.83533900  0.20340400  1
  C  230  1  0.16836500  0.88471900  0.08647800  1
  C  231  1  0.15563400  0.91420300  0.10776600  1
  C  236  1  0.18745700  0.88911200  0.05001800  1
  C  240  1  0.10403800  0.89943000  0.21286400  1
  C  242  1  0.15016600  0.78016900  0.12669300  1
  C  244  1  0.61323700  0.13981700  0.82002500  1
  C  245  1  0.63228000  0.13514400  0.85492200  1
  C  246  1  0.64527700  0.16510400  0.87626200  1
  C  247  1  0.64003800  0.20031500  0.86296700  1
  C  248  1  0.62076300  0.20463500  0.82823300  1
  C  249  1  0.60801300  0.17504700  0.80710600  1
  C  251  1  0.66834800  0.12564800  0.92391300  1
  C  252  1  0.65561600  0.09616700  0.90262300  1
  C  257  1  0.68749600  0.12124900  0.96035500  1
  C  261  1  0.60318700  0.11092800  0.79782000  1
  C  263  1  0.64960500  0.23020600  0.88392600  1
  C  265  1  0.70904100  0.98755300  0.52593700  1
  C  266  1  0.70950200  0.97968600  0.48895600  1
  C  267  1  0.75364600  0.98038500  0.46918400  1
  C  268  1  0.79819300  0.98915400  0.48607000  1
  C  269  1  0.79709900  0.99648900  0.52314400  1
  C  270  1  0.75357700  0.99570000  0.54267600  1
  C  272  1  0.70938600  0.96534300  0.41594500  1
  C  273  1  0.66606700  0.96453700  0.43578900  1
  C  278  1  0.71018000  0.95782000  0.37735900  1
  C  282  1  0.66585000  0.99224800  0.54439900  1
  C  284  1  0.84156600  0.99432100  0.46749600  1
  C  286  1  0.20902500  0.02278900  0.48434700  1
  C  287  1  0.20951700  0.03062600  0.52133800  1
  C  288  1  0.25366400  0.02987000  0.54110200  1
  C  289  1  0.29818900  0.02106000  0.52420300  1
  C  290  1  0.29706500  0.01375300  0.48712400  1
  C  291  1  0.25354500  0.01462200  0.46759700  1
  C  293  1  0.20944900  0.04490100  0.59436200  1
  C  294  1  0.16612600  0.04578000  0.57452400  1
  C  299  1  0.21026400  0.05238300  0.63295400  1
  C  303  1  0.16579200  0.01814200  0.46591900  1
  C  305  1  0.34151900  0.01574400  0.54278200  1
  C  307  1  0.95901700  0.48427500  0.98759000  1
  C  308  1  0.95948100  0.52125800  0.97972600  1
  C  309  1  0.00362600  0.54102400  0.98043600  1
  C  310  1  0.04816900  0.52413300  0.98921200  1
  C  311  1  0.04706500  0.48706000  0.99654500  1
  C  312  1  0.00354900  0.46752800  0.99571900  1
  C  314  1  0.95939000  0.59427200  0.96538800  1
  C  315  1  0.91606500  0.57443300  0.96456900  1
  C  320  1  0.96019500  0.63285800  0.95786800  1
  C  324  1  0.91579700  0.46582900  0.99222900  1
  C  326  1  0.09153900  0.54270500  0.99439000  1
  C  328  1  0.45899300  0.52599000  0.02268100  1
  C  329  1  0.45946400  0.48901500  0.03056900  1
  C  330  1  0.50361600  0.46925600  0.02986000  1
  C  331  1  0.54815300  0.48615000  0.02106900  1
  C  332  1  0.54704000  0.52322400  0.01373400  1
  C  333  1  0.50351100  0.54274800  0.01453600  1
  C  335  1  0.45939600  0.41600900  0.04493600  1
  C  336  1  0.41606700  0.43584200  0.04575800  1
  C  341  1  0.46021100  0.37742500  0.05246900  1
  C  345  1  0.41578000  0.54444700  0.01802900  1
  C  347  1  0.59152100  0.46758400  0.01587900  1
  N  41  1  0.85392800  0.97612800  0.43937700  1
  N  42  1  0.15896700  0.03042700  0.43422300  1
  N  43  1  0.94196700  0.11073600  0.23378900  1
  N  44  1  0.06421400  0.90129200  0.23147900  1
  N  86  1  0.35397500  0.03406000  0.57080800  1
  N  87  1  0.65901600  0.97993500  0.57608400  1
  N  88  1  0.44212100  0.89965200  0.77659400  1
  N  89  1  0.56377400  0.10917900  0.77874400  1
  N  131  1  0.10391900  0.57080800  0.97617900  1
  N  132  1  0.40896500  0.57613800  0.03032900  1
  N  133  1  0.19180400  0.77652800  0.11071900  1
  N  134  1  0.31365400  0.77887800  0.90126800  1
  N  176  1  0.60393100  0.43950000  0.03410900  1
  N  177  1  0.90898100  0.43413800  0.97992100  1
  N  178  1  0.69145100  0.23389200  0.89956400  1
  N  179  1  0.81368000  0.23153600  0.10911300  1
  N  187  1  0.91291400  0.10069100  0.15870300  1
  N  190  1  0.88819000  0.14086300  0.10202400  1
  N  208  1  0.41298100  0.90962800  0.85167300  1
  N  211  1  0.38815600  0.86950500  0.90836100  1
  N  229  1  0.16259100  0.85166200  0.10069600  1
  N  232  1  0.13826800  0.90830500  0.14105400  1
  N  250  1  0.66249700  0.15870800  0.90971900  1
  N  253  1  0.63816800  0.10206900  0.86935900  1
  N  271  1  0.75100400  0.97337200  0.43358800  1
  N  274  1  0.66779700  0.97182000  0.47116400  1
  N  292  1  0.25104300  0.03684400  0.57670600  1
  N  295  1  0.16783300  0.03852200  0.53914400  1
  N  313  1  0.00099700  0.57662300  0.97342600  1
  N  316  1  0.91778300  0.53905800  0.97184900  1
  N  334  1  0.50099500  0.43365800  0.03688400  1
  N  337  1  0.41777400  0.47121400  0.03846000  1
