# generated using pymatgen
data_EuH27C30(NO2)3
_symmetry_space_group_name_H-M   'P 1'
_cell_length_a   9.62273000
_cell_length_b   12.38706000
_cell_length_c   19.06739000
_cell_angle_alpha   106.26946000
_cell_angle_beta   99.54115000
_cell_angle_gamma   101.20923000
_symmetry_Int_Tables_number   1
_chemical_formula_structural   EuH27C30(NO2)3
_chemical_formula_sum   'Eu2 H54 C60 N6 O12'
_cell_volume   2080.80064731
_cell_formula_units_Z   2
loop_
 _symmetry_equiv_pos_site_id
 _symmetry_equiv_pos_as_xyz
  1  'x, y, z'
loop_
 _atom_site_type_symbol
 _atom_site_label
 _atom_site_symmetry_multiplicity
 _atom_site_fract_x
 _atom_site_fract_y
 _atom_site_fract_z
 _atom_site_occupancy
  Eu  Eu0  1  0.21308000  0.01480000  0.00681000  1
  Eu  Eu1  1  0.78722000  0.98451000  0.99387000  1
  H  H2  1  0.33505000  0.07829000  0.18763000  1
  H  H3  1  0.78600000  0.07252000  0.24630000  1
  H  H4  1  0.78158000  0.14495000  0.38154000  1
  H  H5  1  0.13379000  0.80656000  0.83022000  1
  H  H6  1  0.78290000  0.14784000  0.66005000  1
  H  H7  1  0.34211000  0.15200000  0.32485000  1
  H  H8  1  0.76906000  0.12721000  0.78680000  1
  H  H9  1  0.66988000  0.65387000  0.75065000  1
  H  H10  1  0.22023000  0.12033000  0.82467000  1
  H  H11  1  0.15946000  0.33674000  0.67759000  1
  H  H12  1  0.10561000  0.46726000  0.70011000  1
  H  H13  1  0.20320000  0.43692000  0.62914000  1
  H  H14  1  0.11996000  0.17457000  0.59608000  1
  H  H15  1  0.96782000  0.05414000  0.55690000  1
  H  H16  1  0.16745000  0.68274000  0.70923000  1
  H  H17  1  0.08618000  0.55815000  0.59902000  1
  H  H18  1  0.93060000  0.58149000  0.55035000  1
  H  H19  1  0.71668000  0.53352000  0.63047000  1
  H  H20  1  0.22013000  0.13111000  0.69424000  1
  H  H21  1  0.57755000  0.43513000  0.49875000  1
  H  H22  1  0.64753000  0.39616000  0.41789000  1
  H  H23  1  0.74078000  0.52343000  0.49417000  1
  H  H24  1  0.48816000  0.25153000  0.44474000  1
  H  H25  1  0.49314000  0.11364000  0.45058000  1
  H  H26  1  0.77932000  0.99505000  0.45399000  1
  H  H27  1  0.60487000  0.01012000  0.46328000  1
  H  H28  1  0.72959000  0.00324000  0.54042000  1
  H  H29  1  0.66773000  0.92370000  0.81159000  1
  H  H30  1  0.21558000  0.92612000  0.75348000  1
  H  H31  1  0.22035000  0.85506000  0.61778000  1
  H  H32  1  0.86631000  0.19367000  0.16943000  1
  H  H33  1  0.21729000  0.85040000  0.33775000  1
  H  H34  1  0.65946000  0.85031000  0.67405000  1
  H  H35  1  0.23066000  0.86929000  0.21057000  1
  H  H36  1  0.33079000  0.34456000  0.24976000  1
  H  H37  1  0.77874000  0.87463000  0.17227000  1
  H  H38  1  0.84145000  0.66334000  0.32073000  1
  H  H39  1  0.89490000  0.53246000  0.29913000  1
  H  H40  1  0.79668000  0.56403000  0.36966000  1
  H  H41  1  0.88085000  0.82655000  0.40245000  1
  H  H42  1  0.03351000  0.94670000  0.44069000  1
  H  H43  1  0.83231000  0.31751000  0.28996000  1
  H  H44  1  0.91383000  0.44251000  0.40035000  1
  H  H45  1  0.06915000  0.41932000  0.44933000  1
  H  H46  1  0.28413000  0.46544000  0.36931000  1
  H  H47  1  0.77981000  0.86609000  0.30317000  1
  H  H48  1  0.42372000  0.56756000  0.50217000  1
  H  H49  1  0.34945000  0.60358000  0.58176000  1
  H  H50  1  0.25992000  0.47701000  0.50419000  1
  H  H51  1  0.51215000  0.74888000  0.55401000  1
  H  H52  1  0.50753000  0.88715000  0.54857000  1
  H  H53  1  0.22121000  0.00650000  0.54364000  1
  H  H54  1  0.39579000  0.99057000  0.53545000  1
  H  H55  1  0.27256000  0.99659000  0.45748000  1
  C  C56  1  0.91744000  0.21992000  0.56989000  1
  C  C57  1  0.87367000  0.81210000  0.87120000  1
  C  C58  1  0.56067000  0.06994000  0.20550000  1
  C  C59  1  0.89949000  0.41163000  0.56541000  1
  C  C60  1  0.70168000  0.24029000  0.49279000  1
  C  C61  1  0.43416000  0.09153000  0.22937000  1
  C  C62  1  0.76317000  0.36149000  0.51376000  1
  C  C63  1  0.97556000  0.34117000  0.59499000  1
  C  C64  1  0.68661000  0.08825000  0.26223000  1
  C  C65  1  0.56368000  0.03265000  0.12429000  1
  C  C66  1  0.68625000  0.12755000  0.33689000  1
  C  C67  1  0.04007000  0.74545000  0.78773000  1
  C  C68  1  0.89828000  0.73840000  0.80055000  1
  C  C69  1  0.87416000  0.13862000  0.69771000  1
  C  C70  1  0.43575000  0.13162000  0.30432000  1
  C  C71  1  0.86941000  0.12956000  0.76737000  1
  C  C72  1  0.77988000  0.66059000  0.74205000  1
  C  C73  1  0.12333000  0.12579000  0.78846000  1
  C  C74  1  0.99515000  0.12478000  0.81570000  1
  C  C75  1  0.77909000  0.16877000  0.51958000  1
  C  C76  1  0.11805000  0.39744000  0.65305000  1
  C  C77  1  0.00516000  0.14360000  0.59616000  1
  C  C78  1  0.06084000  0.67909000  0.72150000  1
  C  C79  1  0.96791000  0.54136000  0.59207000  1
  C  C80  1  0.80310000  0.59535000  0.67611000  1
  C  C81  1  0.12511000  0.13216000  0.71796000  1
  C  C82  1  0.99379000  0.11555000  0.89217000  1
  C  C83  1  0.67906000  0.43304000  0.47954000  1
  C  C84  1  0.55457000  0.18829000  0.43844000  1
  C  C85  1  0.71962000  0.03806000  0.49329000  1
  C  C86  1  0.08282000  0.78068000  0.42896000  1
  C  C87  1  0.12592000  0.18666000  0.12889000  1
  C  C88  1  0.44109000  0.92985000  0.79392000  1
  C  C89  1  0.10037000  0.58896000  0.43381000  1
  C  C90  1  0.29868000  0.76058000  0.50630000  1
  C  C91  1  0.56789000  0.90938000  0.76999000  1
  C  C92  1  0.23683000  0.63931000  0.48553000  1
  C  C93  1  0.02462000  0.65931000  0.40399000  1
  C  C94  1  0.31494000  0.91104000  0.73727000  1
  C  C95  1  0.43699000  0.96679000  0.87540000  1
  C  C96  1  0.31532000  0.87227000  0.66253000  1
  C  C97  1  0.96007000  0.25463000  0.21190000  1
  C  C98  1  0.10198000  0.26089000  0.19910000  1
  C  C99  1  0.12598000  0.85930000  0.29995000  1
  C  C100  1  0.56577000  0.86970000  0.69483000  1
  C  C101  1  0.13034000  0.86723000  0.23001000  1
  C  C102  1  0.22053000  0.33837000  0.25790000  1
  C  C103  1  0.87606000  0.87001000  0.20859000  1
  C  C104  1  0.00438000  0.87140000  0.18146000  1
  C  C105  1  0.22142000  0.83193000  0.47930000  1
  C  C106  1  0.88232000  0.60291000  0.34576000  1
  C  C107  1  0.99566000  0.85678000  0.40209000  1
  C  C108  1  0.93904000  0.32121000  0.27788000  1
  C  C109  1  0.03213000  0.45914000  0.40727000  1
  C  C110  1  0.19746000  0.40395000  0.32367000  1
  C  C111  1  0.87476000  0.86491000  0.27941000  1
  C  C112  1  0.00577000  0.87960000  0.10480000  1
  C  C113  1  0.32064000  0.56791000  0.52003000  1
  C  C114  1  0.44608000  0.81236000  0.56051000  1
  C  C115  1  0.28131000  0.96256000  0.50501000  1
  N  N116  1  0.00212000  0.14232000  0.67277000  1
  N  N117  1  0.94356000  0.60262000  0.66504000  1
  N  N118  1  0.56249000  0.15201000  0.35910000  1
  N  N119  1  0.99834000  0.85654000  0.32515000  1
  N  N120  1  0.05655000  0.39809000  0.33455000  1
  N  N121  1  0.43908000  0.84896000  0.64025000  1
  O  O122  1  0.44398000  0.00518000  0.07623000  1
  O  O123  1  0.68899000  0.03179000  0.11015000  1
  O  O124  1  0.74292000  0.80428000  0.87813000  1
  O  O125  1  0.98532000  0.88282000  0.92044000  1
  O  O126  1  0.86887000  0.08974000  0.90633000  1
  O  O127  1  0.11790000  0.13265000  0.93462000  1
  O  O128  1  0.55643000  0.99545000  0.92360000  1
  O  O129  1  0.31129000  0.96638000  0.88902000  1
  O  O130  1  0.25657000  0.19293000  0.12170000  1
  O  O131  1  0.01407000  0.11620000  0.07931000  1
  O  O132  1  0.13068000  0.90456000  0.09043000  1
  O  O133  1  0.88185000  0.86245000  0.06206000  1
