# generated using pymatgen
data_Ba2P8H43C56N7(Cl2O19)2
_symmetry_space_group_name_H-M   'P 1'
_cell_length_a   8.32398000
_cell_length_b   13.17238000
_cell_length_c   18.90099000
_cell_angle_alpha   100.71152000
_cell_angle_beta   91.19796000
_cell_angle_gamma   98.77204000
_symmetry_Int_Tables_number   1
_chemical_formula_structural   Ba2P8H43C56N7(Cl2O19)2
_chemical_formula_sum   'Ba2 P8 H43 C56 N7 Cl4 O38'
_cell_volume   2009.90956245
_cell_formula_units_Z   1
loop_
 _symmetry_equiv_pos_site_id
 _symmetry_equiv_pos_as_xyz
  1  'x, y, z'
loop_
 _atom_site_type_symbol
 _atom_site_label
 _atom_site_symmetry_multiplicity
 _atom_site_fract_x
 _atom_site_fract_y
 _atom_site_fract_z
 _atom_site_occupancy
  Ba  Ba0  1  0.85278000  0.54834000  0.46507000  1
  Ba  Ba1  1  0.33706000  0.45175000  0.53494000  1
  P  P2  1  0.04104000  0.39477000  0.33633000  1
  P  P3  1  0.67288000  0.75403000  0.55610000  1
  P  P4  1  0.12222000  0.81848000  0.40666000  1
  P  P5  1  0.14867000  0.60532000  0.66368000  1
  P  P6  1  0.05896000  0.17924000  0.59807000  1
  P  P7  1  0.64232000  0.59662000  0.27379000  1
  P  P8  1  0.52676000  0.23000000  0.44902000  1
  P  P9  1  0.55164000  0.38790000  0.72286000  1
  H  H10  1  0.47976000  0.74889000  0.27529000  1
  H  H11  1  0.71917000  0.81767000  0.37491000  1
  H  H12  1  0.78911000  0.90974000  0.31896000  1
  H  H13  1  0.27800000  0.85790000  0.29332000  1
  H  H14  1  0.14471000  0.99159000  0.25037000  1
  H  H15  1  0.35513000  0.77044000  0.60744000  1
  H  H16  1  0.14337000  0.74344000  0.57334000  1
  H  H17  1  0.25337000  0.93293000  0.68969000  1
  H  H18  1  0.29851000  0.93711000  0.59686000  1
  H  H19  1  0.09198000  0.90850000  0.62151000  1
  H  H20  1  0.85617000  0.26644000  0.41582000  1
  H  H21  1  0.06476000  0.24807000  0.42630000  1
  H  H22  1  0.77984000  0.08840000  0.35120000  1
  H  H23  1  0.91341000  0.07880000  0.42505000  1
  H  H24  1  0.98580000  0.07348000  0.33586000  1
  H  H25  1  0.86718000  0.71379000  0.65818000  1
  H  H26  1  0.94588000  0.90143000  0.72412000  1
  H  H27  1  0.77654000  0.88477000  0.77994000  1
  H  H28  1  0.59341000  0.82832000  0.22236000  1
  H  H29  1  0.59521000  0.91042000  0.35677000  1
  H  H30  1  0.60713000  0.28880000  0.31769000  1
  H  H31  1  0.54097000  0.18461000  0.18724000  1
  H  H32  1  0.69704000  0.14147000  0.23869000  1
  H  H33  1  0.20105000  0.90278000  0.17522000  1
  H  H34  1  0.14325000  0.32063000  0.72960000  1
  H  H35  1  0.93732000  0.25142000  0.72808000  1
  H  H36  1  0.23102000  0.22617000  0.82066000  1
  H  H37  1  0.06185000  0.29085000  0.85116000  1
  H  H38  1  0.03168000  0.15107000  0.81795000  1
  H  H39  1  0.67447000  0.21545000  0.68020000  1
  H  H40  1  0.47232000  0.17108000  0.63786000  1
  H  H41  1  0.54238000  0.02089000  0.67429000  1
  H  H42  1  0.41882000  0.07340000  0.74587000  1
  H  H43  1  0.64534000  0.33830000  0.10580000  1
  H  H44  1  0.54044000  0.36295000  0.99792000  1
  H  H45  1  0.82869000  0.48019000  0.65719000  1
  H  H46  1  0.31650000  0.64856000  0.80288000  1
  H  H47  1  0.53974000  0.68582000  0.89521000  1
  H  H48  1  0.64881000  0.66944000  0.01335000  1
  H  H49  1  0.61364000  0.60548000  0.12656000  1
  H  H50  1  0.38148000  0.48268000  0.33343000  1
  H  H51  1  0.86184000  0.96158000  0.58078000  1
  H  H52  1  0.79732000  0.26280000  0.54431000  1
  C  C53  1  0.68155000  0.85976000  0.33350000  1
  C  C54  1  0.15198000  0.83471000  0.27059000  1
  C  C55  1  0.11851000  0.90971000  0.22026000  1
  C  C56  1  0.22909000  0.78116000  0.61971000  1
  C  C57  1  0.21827000  0.89717000  0.63277000  1
  C  C58  1  0.95460000  0.22815000  0.38961000  1
  C  C59  1  0.90509000  0.11028000  0.37503000  1
  C  C60  1  0.77873000  0.75507000  0.69050000  1
  C  C61  1  0.86733000  0.84354000  0.74906000  1
  C  C62  1  0.60541000  0.78446000  0.26629000  1
  C  C63  1  0.52067000  0.21446000  0.30458000  1
  C  C64  1  0.56644000  0.14757000  0.23356000  1
  C  C65  1  0.06804000  0.24551000  0.73508000  1
  C  C66  1  0.09988000  0.22738000  0.81093000  1
  C  C67  1  0.54529000  0.18831000  0.68973000  1
  C  C68  1  0.53502000  0.08746000  0.71901000  1
  C  C69  1  0.99851000  0.45728000  0.04742000  1
  C  C70  1  0.89809000  0.40671000  0.09327000  1
  C  C71  1  0.73245000  0.37409000  0.07308000  1
  C  C72  1  0.67017000  0.38727000  0.00844000  1
  C  C73  1  0.77239000  0.42534000  0.95802000  1
  C  C74  1  0.93598000  0.46485000  0.97830000  1
  C  C75  1  0.71215000  0.41797000  0.88729000  1
  C  C76  1  0.81361000  0.45750000  0.83489000  1
  C  C77  1  0.97653000  0.50759000  0.85764000  1
  C  C78  1  0.03665000  0.50919000  0.92950000  1
  C  C79  1  0.76176000  0.44796000  0.76108000  1
  C  C80  1  0.87025000  0.48841000  0.71289000  1
  C  C81  1  0.02591000  0.54520000  0.73485000  1
  C  C82  1  0.08098000  0.55427000  0.80895000  1
  C  C83  1  0.16188000  0.49509000  0.06923000  1
  C  C84  1  0.22283000  0.48662000  0.13909000  1
  C  C85  1  0.11857000  0.43708000  0.18653000  1
  C  C86  1  0.96388000  0.38782000  0.15774000  1
  C  C87  1  0.23769000  0.60707000  0.83631000  1
  C  C88  1  0.29822000  0.60383000  0.90633000  1
  C  C89  1  0.19853000  0.55298000  0.95268000  1
  C  C90  1  0.26156000  0.54500000  0.02218000  1
  C  C91  1  0.46002000  0.64688000  0.92992000  1
  C  C92  1  0.52281000  0.63707000  0.99756000  1
  C  C93  1  0.42458000  0.58608000  0.04422000  1
  C  C94  1  0.38612000  0.52974000  0.16151000  1
  C  C95  1  0.48648000  0.57641000  0.11252000  1
  C  C96  1  0.44107000  0.52765000  0.23292000  1
  C  C97  1  0.33554000  0.48188000  0.27941000  1
  C  C98  1  0.17230000  0.44004000  0.26040000  1
  C  C99  1  0.74984000  0.18042000  0.53957000  1
  C  C100  1  0.43130000  0.80907000  0.46858000  1
  C  C101  1  0.39002000  0.98056000  0.45093000  1
  C  C102  1  0.33520000  0.87404000  0.44305000  1
  C  C103  1  0.57633000  0.84962000  0.51062000  1
  C  C104  1  0.63363000  0.96188000  0.52191000  1
  C  C105  1  0.53995000  0.02882000  0.49112000  1
  C  C106  1  0.60210000  0.13976000  0.50160000  1
  C  C107  1  0.84646000  0.11679000  0.56497000  1
  C  C108  1  0.78624000  0.00872000  0.55884000  1
  N  N109  1  0.35811000  0.23828000  0.29800000  1
  N  N110  1  0.47810000  0.04212000  0.21683000  1
  N  N111  1  0.13808000  0.72883000  0.22897000  1
  N  N112  1  0.55282000  0.35906000  0.86989000  1
  N  N113  1  0.87882000  0.30798000  0.18867000  1
  N  N114  1  0.38671000  0.69939000  0.44455000  1
  N  N115  1  0.95180000  0.88715000  0.18934000  1
  Cl  Cl116  1  0.65051000  0.66718000  0.73338000  1
  Cl  Cl117  1  0.98849000  0.79839000  0.81194000  1
  Cl  Cl118  1  0.69748000  0.09403000  0.78297000  1
  Cl  Cl119  1  0.26289000  0.03868000  0.40047000  1
  O  O120  1  0.87309000  0.42589000  0.32514000  1
  O  O121  1  0.12242000  0.43437000  0.41438000  1
  O  O122  1  0.65950000  0.62710000  0.36881000  1
  O  O123  1  0.77456000  0.53144000  0.24716000  1
  O  O124  1  0.98601000  0.25875000  0.32357000  1
  O  O125  1  0.70906000  0.71198000  0.24324000  1
  O  O126  1  0.84820000  0.76819000  0.53453000  1
  O  O127  1  0.08116000  0.68595000  0.40481000  1
  O  O128  1  0.00980000  0.86915000  0.46147000  1
  O  O129  1  0.67740000  0.80017000  0.64966000  1
  O  O130  1  0.04017000  0.84029000  0.32533000  1
  O  O131  1  0.31661000  0.57414000  0.67490000  1
  O  O132  1  0.06729000  0.56572000  0.58563000  1
  O  O133  1  0.53021000  0.37299000  0.63120000  1
  O  O134  1  0.19021000  0.74241000  0.68242000  1
  O  O135  1  0.61134000  0.36629000  0.46363000  1
  O  O136  1  0.10855000  0.31414000  0.59520000  1
  O  O137  1  0.18243000  0.12419000  0.55149000  1
  O  O138  1  0.11019000  0.16204000  0.68488000  1
  O  O139  1  0.57837000  0.63380000  0.53638000  1
  O  O140  1  0.34151000  0.23185000  0.46551000  1
  O  O141  1  0.53110000  0.15926000  0.36013000  1
  O  O142  1  0.42149000  0.45458000  0.75199000  1
  O  O143  1  0.47835000  0.26275000  0.73838000  1
  O  O144  1  0.26226000  0.20237000  0.24058000  1
  O  O145  1  0.31343000  0.30338000  0.35052000  1
  O  O146  1  0.45879000  0.99566000  0.14946000  1
  O  O147  1  0.47536000  0.98531000  0.26569000  1
  O  O148  1  0.06084000  0.65015000  0.25316000  1
  O  O149  1  0.21655000  0.71198000  0.17030000  1
  O  O150  1  0.42837000  0.40735000  0.88170000  1
  O  O151  1  0.53262000  0.25985000  0.87251000  1
  O  O152  1  0.91290000  0.21366000  0.17126000  1
  O  O153  1  0.74020000  0.32332000  0.21416000  1
  O  O154  1  0.37112000  0.66617000  0.37555000  1
  O  O155  1  0.30367000  0.64405000  0.48545000  1
  O  O156  1  0.90451000  0.80176000  0.14214000  1
  O  O157  1  0.86319000  0.96134000  0.19662000  1
