# generated using pymatgen
data_Cd2H6C17O10
_symmetry_space_group_name_H-M   'P 1'
_cell_length_a   10.28322000
_cell_length_b   10.29782000
_cell_length_c   20.56632291
_cell_angle_alpha   102.61665182
_cell_angle_beta   102.73503261
_cell_angle_gamma   94.31585000
_symmetry_Int_Tables_number   1
_chemical_formula_structural   Cd2H6C17O10
_chemical_formula_sum   'Cd8 H24 C68 O40'
_cell_volume   2055.49948968
_cell_formula_units_Z   4
loop_
 _symmetry_equiv_pos_site_id
 _symmetry_equiv_pos_as_xyz
  1  'x, y, z'
loop_
 _atom_site_type_symbol
 _atom_site_label
 _atom_site_symmetry_multiplicity
 _atom_site_fract_x
 _atom_site_fract_y
 _atom_site_fract_z
 _atom_site_occupancy
  Cd  Cd0  1  0.94423000  0.84000000  0.31588000  1
  Cd  Cd1  1  0.29179000  0.15582000  0.53376000  1
  Cd  Cd2  1  0.65922000  0.55339000  0.18739000  1
  Cd  Cd3  1  0.34138000  0.20754000  0.96686000  1
  Cd  Cd4  1  0.05578000  0.16000000  0.68412000  1
  Cd  Cd5  1  0.70821000  0.84419000  0.46624000  1
  Cd  Cd6  1  0.34079000  0.44662000  0.81261000  1
  Cd  Cd7  1  0.65862000  0.79246000  0.03314000  1
  H  H8  1  0.84055000  0.13738000  0.43602000  1
  H  H9  1  0.07318000  0.48695000  0.41830000  1
  H  H10  1  0.45323000  0.84682000  0.31424000  1
  H  H11  1  0.65041000  0.40876000  0.32209000  1
  H  H12  1  0.49168000  0.34560000  0.37778000  1
  H  H13  1  0.27094000  0.20863000  0.35937000  1
  H  H14  1  0.36189000  0.65510000  0.06484000  1
  H  H15  1  0.01243000  0.42674000  0.08541000  1
  H  H16  1  0.65471000  0.04640000  0.18563000  1
  H  H17  1  0.09648000  0.84867000  0.18142000  1
  H  H18  1  0.15478000  0.00338000  0.12267000  1
  H  H19  1  0.29006000  0.22481000  0.14056000  1
  H  H20  1  0.15946000  0.86263000  0.56398000  1
  H  H21  1  0.92682000  0.51305000  0.58170000  1
  H  H22  1  0.54679000  0.15320000  0.68577000  1
  H  H23  1  0.34960000  0.59124000  0.67791000  1
  H  H24  1  0.50832000  0.65441000  0.62222000  1
  H  H25  1  0.72906000  0.79138000  0.64063000  1
  H  H26  1  0.63812000  0.34490000  0.93516000  1
  H  H27  1  0.98758000  0.57327000  0.91459000  1
  H  H28  1  0.34530000  0.95360000  0.81437000  1
  H  H29  1  0.90352000  0.15133000  0.81858000  1
  H  H30  1  0.84522000  0.99663000  0.87733000  1
  H  H31  1  0.70994000  0.77519000  0.85944000  1
  C  C32  1  0.70896000  0.96209000  0.33146000  1
  C  C33  1  0.84512000  0.22513000  0.41492000  1
  C  C34  1  0.59959000  0.17459000  0.35869000  1
  C  C35  1  0.97731000  0.42368000  0.40669000  1
  C  C36  1  0.96809000  0.30580000  0.43009000  1
  C  C37  1  0.72853000  0.25961000  0.37542000  1
  C  C38  1  0.58873000  0.03149000  0.34122000  1
  C  C39  1  0.46366000  0.95587000  0.32948000  1
  C  C40  1  0.73817000  0.37903000  0.35286000  1
  C  C41  1  0.86113000  0.45942000  0.36775000  1
  C  C42  1  0.86662000  0.58447000  0.34216000  1
  C  C43  1  0.34916000  0.01966000  0.33574000  1
  C  C44  1  0.08787000  0.26001000  0.46923000  1
  C  C45  1  0.48251000  0.23653000  0.36288000  1
  C  C46  1  0.35961000  0.16070000  0.35305000  1
  C  C47  1  0.55008000  0.06623000  0.51118000  1
  C  C48  1  0.21642000  0.93839000  0.32639000  1
  C  C49  1  0.54143000  0.78962000  0.16844000  1
  C  C50  1  0.27514000  0.65198000  0.08687000  1
  C  C51  1  0.32727000  0.89751000  0.14221000  1
  C  C52  1  0.07629000  0.52209000  0.09677000  1
  C  C53  1  0.19317000  0.53000000  0.07242000  1
  C  C54  1  0.24245000  0.76887000  0.12659000  1
  C  C55  1  0.47072000  0.90933000  0.15928000  1
  C  C56  1  0.54541000  0.03475000  0.17073000  1
  C  C57  1  0.12398000  0.76047000  0.15017000  1
  C  C58  1  0.04228000  0.63850000  0.13601000  1
  C  C59  1  0.91794000  0.63478000  0.16254000  1
  C  C60  1  0.48023000  0.14838000  0.16463000  1
  C  C61  1  0.23686000  0.40996000  0.03267000  1
  C  C62  1  0.26408000  0.01362000  0.13748000  1
  C  C63  1  0.33885000  0.13675000  0.14705000  1
  C  C64  1  0.43436000  0.94880000  0.98731000  1
  C  C65  1  0.56010000  0.28194000  0.17483000  1
  C  C66  1  0.29105000  0.03791000  0.66854000  1
  C  C67  1  0.15488000  0.77488000  0.58508000  1
  C  C68  1  0.40042000  0.82541000  0.64131000  1
  C  C69  1  0.02270000  0.57633000  0.59331000  1
  C  C70  1  0.03191000  0.69420000  0.56991000  1
  C  C71  1  0.27148000  0.74040000  0.62458000  1
  C  C72  1  0.41127000  0.96851000  0.65878000  1
  C  C73  1  0.53634000  0.04413000  0.67052000  1
  C  C74  1  0.26183000  0.62098000  0.64714000  1
  C  C75  1  0.13888000  0.54058000  0.63225000  1
  C  C76  1  0.13338000  0.41554000  0.65784000  1
  C  C77  1  0.65085000  0.98034000  0.66426000  1
  C  C78  1  0.91214000  0.74000000  0.53077000  1
  C  C79  1  0.51749000  0.76347000  0.63712000  1
  C  C80  1  0.64039000  0.83930000  0.64695000  1
  C  C81  1  0.44993000  0.93377000  0.48882000  1
  C  C82  1  0.78359000  0.06162000  0.67361000  1
  C  C83  1  0.45858000  0.21039000  0.83156000  1
  C  C84  1  0.72487000  0.34802000  0.91313000  1
  C  C85  1  0.67273000  0.10250000  0.85779000  1
  C  C86  1  0.92371000  0.47792000  0.90323000  1
  C  C87  1  0.80684000  0.47000000  0.92758000  1
  C  C88  1  0.75755000  0.23113000  0.87341000  1
  C  C89  1  0.52929000  0.09067000  0.84072000  1
  C  C90  1  0.45459000  0.96526000  0.82927000  1
  C  C91  1  0.87602000  0.23953000  0.84983000  1
  C  C92  1  0.95773000  0.36150000  0.86399000  1
  C  C93  1  0.08206000  0.36523000  0.83746000  1
  C  C94  1  0.51977000  0.85162000  0.83537000  1
  C  C95  1  0.76314000  0.59005000  0.96733000  1
  C  C96  1  0.73593000  0.98638000  0.86252000  1
  C  C97  1  0.66116000  0.86326000  0.85295000  1
  C  C98  1  0.56565000  0.05121000  0.01269000  1
  C  C99  1  0.43991000  0.71806000  0.82517000  1
  O  O100  1  0.50687000  0.17628000  0.53245000  1
  O  O101  1  0.67024000  0.05911000  0.50724000  1
  O  O102  1  0.76743000  0.98152000  0.28612000  1
  O  O103  1  0.75296000  0.88390000  0.37033000  1
  O  O104  1  0.11344000  0.00288000  0.32798000  1
  O  O105  1  0.20451000  0.32739000  0.48366000  1
  O  O106  1  0.76214000  0.60710000  0.30187000  1
  O  O107  1  0.97555000  0.66519000  0.36431000  1
  O  O108  1  0.07104000  0.14916000  0.48688000  1
  O  O109  1  0.20822000  0.81305000  0.31812000  1
  O  O110  1  0.32353000  0.99046000  0.96511000  1
  O  O111  1  0.44358000  0.82829000  0.98985000  1
  O  O112  1  0.52425000  0.73069000  0.21422000  1
  O  O113  1  0.61785000  0.74603000  0.12894000  1
  O  O114  1  0.49462000  0.38458000  0.17546000  1
  O  O115  1  0.17028000  0.29336000  0.01952000  1
  O  O116  1  0.89590000  0.74111000  0.20128000  1
  O  O117  1  0.83762000  0.52549000  0.14240000  1
  O  O118  1  0.34552000  0.42752000  0.01302000  1
  O  O119  1  0.68536000  0.29149000  0.18186000  1
  O  O120  1  0.49314000  0.82372000  0.46755000  1
  O  O121  1  0.32977000  0.94090000  0.49276000  1
  O  O122  1  0.23257000  0.01849000  0.71388000  1
  O  O123  1  0.24705000  0.11610000  0.62967000  1
  O  O124  1  0.88657000  0.99712000  0.67202000  1
  O  O125  1  0.79550000  0.67262000  0.51634000  1
  O  O126  1  0.23786000  0.39291000  0.69813000  1
  O  O127  1  0.02446000  0.33482000  0.63569000  1
  O  O128  1  0.92897000  0.85084000  0.51312000  1
  O  O129  1  0.79179000  0.18695000  0.68188000  1
  O  O130  1  0.67647000  0.00955000  0.03489000  1
  O  O131  1  0.55643000  0.17171000  0.01015000  1
  O  O132  1  0.47576000  0.26932000  0.78578000  1
  O  O133  1  0.38216000  0.25397000  0.87106000  1
  O  O134  1  0.50538000  0.61542000  0.82454000  1
  O  O135  1  0.82973000  0.70664000  0.98048000  1
  O  O136  1  0.10411000  0.25890000  0.79872000  1
  O  O137  1  0.16238000  0.47452000  0.85760000  1
  O  O138  1  0.65448000  0.57249000  0.98698000  1
  O  O139  1  0.31465000  0.70851000  0.81814000  1
