# generated using pymatgen
data_Zn3H46C56(N2O3)4
_symmetry_space_group_name_H-M   'P 1'
_cell_length_a   9.41640000
_cell_length_b   18.19014000
_cell_length_c   18.59433000
_cell_angle_alpha   61.79409000
_cell_angle_beta   83.91304000
_cell_angle_gamma   86.27103000
_symmetry_Int_Tables_number   1
_chemical_formula_structural   Zn3H46C56(N2O3)4
_chemical_formula_sum   'Zn6 H92 C112 N16 O24'
_cell_volume   2790.51612085
_cell_formula_units_Z   2
loop_
 _symmetry_equiv_pos_site_id
 _symmetry_equiv_pos_as_xyz
  1  'x, y, z'
loop_
 _atom_site_type_symbol
 _atom_site_label
 _atom_site_symmetry_multiplicity
 _atom_site_fract_x
 _atom_site_fract_y
 _atom_site_fract_z
 _atom_site_occupancy
  Zn  Zn0  1  0.33988000  0.07942000  0.64389000  1
  Zn  Zn1  1  0.51770000  0.50031000  0.74535000  1
  Zn  Zn2  1  0.66012000  0.92057000  0.35611000  1
  Zn  Zn3  1  0.64049000  0.06989000  0.13123000  1
  Zn  Zn4  1  0.35951000  0.93011000  0.86877000  1
  Zn  Zn5  1  0.48230000  0.49968000  0.25465000  1
  H  H6  1  0.12735000  0.04700000  0.89910000  1
  H  H7  1  0.43154000  0.59702000  0.48697000  1
  H  H8  1  0.80841000  0.88696000  0.58750000  1
  H  H9  1  0.06645000  0.85274000  0.59137000  1
  H  H10  1  0.27421000  0.43898000  0.68541000  1
  H  H11  1  0.76758000  0.32046000  0.55193000  1
  H  H12  1  0.44944000  0.26625000  0.16402000  1
  H  H13  1  0.09033000  0.19904000  0.95337000  1
  H  H14  1  0.29287000  0.99519000  0.38955000  1
  H  H15  1  0.48098000  0.72263000  0.33845000  1
  H  H16  1  0.27013000  0.18523000  0.03997000  1
  H  H17  1  0.02159000  0.60788000  0.85545000  1
  H  H18  1  0.45293000  0.33597000  0.50054000  1
  H  H19  1  0.39696000  0.23549000  0.06329000  1
  H  H20  1  0.44617000  0.44503000  0.43417000  1
  H  H21  1  0.67018000  0.05549000  0.88698000  1
  H  H22  1  0.97841000  0.39211000  0.14455000  1
  H  H23  1  0.50401000  0.91669000  0.58492000  1
  H  H24  1  0.07137000  0.21336000  0.21206000  1
  H  H25  1  0.08381000  0.34736000  0.69077000  1
  H  H26  1  0.78325000  0.68316000  0.90030000  1
  H  H27  1  0.32982000  0.94450000  0.11303000  1
  H  H28  1  0.91617000  0.70531000  0.94787000  1
  H  H29  1  0.21675000  0.31684000  0.09970000  1
  H  H30  1  0.19159000  0.11303000  0.41250000  1
  H  H31  1  0.51902000  0.27736000  0.66155000  1
  H  H32  1  0.13515000  0.72503000  0.87425000  1
  H  H33  1  0.60304000  0.76451000  0.93671000  1
  H  H34  1  0.03139000  0.27255000  0.40348000  1
  H  H35  1  0.02918000  0.75978000  0.34563000  1
  H  H36  1  0.79338000  0.20437000  0.22534000  1
  H  H37  1  0.68455000  0.32490000  0.84288000  1
  H  H38  1  0.92863000  0.78663000  0.78794000  1
  H  H39  1  0.07223000  0.16940000  0.73580000  1
  H  H40  1  0.97081000  0.24021000  0.65437000  1
  H  H41  1  0.27066000  0.82998000  0.47819000  1
  H  H42  1  0.56846000  0.40297000  0.51303000  1
  H  H43  1  0.49599000  0.08330000  0.41508000  1
  H  H44  1  0.84326000  0.77633000  0.36524000  1
  H  H45  1  0.09204000  0.72451000  0.48674000  1
  H  H46  1  0.93355000  0.14725000  0.40863000  1
  H  H47  1  0.76542000  0.06527000  0.37991000  1
  H  H48  1  0.22320000  0.15648000  0.20106000  1
  H  H49  1  0.87943000  0.69440000  0.73890000  1
  H  H50  1  0.76431000  0.17779000  0.68098000  1
  H  H51  1  0.68108000  0.09491000  0.67955000  1
  H  H52  1  0.73744000  0.44857000  0.16613000  1
  H  H53  1  0.55056000  0.73374000  0.83598000  1
  H  H54  1  0.44565000  0.55027000  0.08073000  1
  H  H55  1  0.43415000  0.40237000  0.01002000  1
  H  H56  1  0.45105000  0.10134000  0.91746000  1
  H  H57  1  0.26256000  0.55143000  0.83387000  1
  H  H58  1  0.23458000  0.93472000  0.62009000  1
  H  H59  1  0.70643000  0.22157000  0.13713000  1
  H  H60  1  0.72933000  0.17002000  0.52181000  1
  H  H61  1  0.87265000  0.95299000  0.10091000  1
  H  H62  1  0.29357000  0.77843000  0.86287000  1
  H  H63  1  0.56585000  0.59762000  0.98998000  1
  H  H64  1  0.99358000  0.22973000  0.82201000  1
  H  H65  1  0.54707000  0.66402000  0.49946000  1
  H  H66  1  0.90967000  0.80095000  0.04663000  1
  H  H67  1  0.57230000  0.34160000  0.98834000  1
  H  H68  1  0.90795000  0.27548000  0.51327000  1
  H  H69  1  0.11593000  0.89431000  0.08569000  1
  H  H70  1  0.96861000  0.72745000  0.59652000  1
  H  H71  1  0.55435000  0.44973000  0.91927000  1
  H  H72  1  0.55383000  0.55496000  0.56583000  1
  H  H73  1  0.00642000  0.77026000  0.17799000  1
  H  H74  1  0.40196000  0.78621000  0.43431000  1
  H  H75  1  0.15674000  0.22367000  0.63476000  1
  H  H76  1  0.92777000  0.83059000  0.26421000  1
  H  H77  1  0.88407000  0.10568000  0.91431000  1
  H  H78  1  0.72579000  0.56102000  0.31459000  1
  H  H79  1  0.08383000  0.29468000  0.05213000  1
  H  H80  1  0.23242000  0.67953000  0.44807000  1
  H  H81  1  0.59803000  0.21379000  0.56569000  1
  H  H82  1  0.12057000  0.30560000  0.26110000  1
  H  H83  1  0.70713000  0.00481000  0.61045000  1
  H  H84  1  0.34705000  0.33179000  0.35754000  1
  H  H85  1  0.77680000  0.84352000  0.79894000  1
  H  H86  1  0.42770000  0.65840000  0.01166000  1
  H  H87  1  0.31892000  0.90509000  0.32045000  1
  H  H88  1  0.91619000  0.65264000  0.30923000  1
  H  H89  1  0.86485000  0.27496000  0.12575000  1
  H  H90  1  0.31544000  0.67509000  0.15712000  1
  H  H91  1  0.31372000  0.05721000  0.15392000  1
  H  H92  1  0.20662000  0.79562000  0.77466000  1
  H  H93  1  0.23569000  0.82221000  0.31902000  1
  H  H94  1  0.68628000  0.94279000  0.84608000  1
  H  H95  1  0.72987000  0.81477000  0.96003000  1
  H  H96  1  0.54894000  0.89865000  0.08254000  1
  H  H97  1  0.65294000  0.66820000  0.64246000  1
  C  C98  1  0.38689000  0.28690000  0.33676000  1
  C  C99  1  0.13001000  0.25094000  0.89572000  1
  C  C100  1  0.66001000  0.39294000  0.67458000  1
  C  C101  1  0.87863000  0.92356000  0.60038000  1
  C  C102  1  0.59931000  0.69049000  0.74682000  1
  C  C103  1  0.53047000  0.85356000  0.63024000  1
  C  C104  1  0.36262000  0.39607000  0.18819000  1
  C  C105  1  0.41433000  0.12255000  0.76708000  1
  C  C106  1  0.46953000  0.14643000  0.36976000  1
  C  C107  1  0.61001000  0.82087000  0.51511000  1
  C  C108  1  0.40068000  0.30951000  0.25318000  1
  C  C109  1  0.87923000  0.05101000  0.38139000  1
  C  C110  1  0.06630000  0.62254000  0.79383000  1
  C  C111  1  0.93370000  0.37745000  0.20617000  1
  C  C112  1  0.71338000  0.20207000  0.55953000  1
  C  C113  1  0.95917000  0.03930000  0.13432000  1
  C  C114  1  0.02867000  0.12357000  0.65450000  1
  C  C115  1  0.86947000  0.80684000  0.82973000  1
  C  C116  1  0.08344000  0.06906000  0.14780000  1
  C  C117  1  0.37565000  0.71333000  0.17354000  1
  C  C118  1  0.23495000  0.30393000  0.89163000  1
  C  C119  1  0.17669000  0.26822000  0.08803000  1
  C  C120  1  0.49294000  0.16025000  0.86904000  1
  C  C121  1  0.55675000  0.75117000  0.77120000  1
  C  C122  1  0.62435000  0.28666000  0.82646000  1
  C  C123  1  0.01540000  0.32821000  0.27253000  1
  C  C124  1  0.13053000  0.19316000  0.17028000  1
  C  C125  1  0.39700000  0.68794000  0.25559000  1
  C  C126  1  0.52125000  0.83236000  0.71351000  1
  C  C127  1  0.39643000  0.82084000  0.02438000  1
  C  C128  1  0.89404000  0.14670000  0.15518000  1
  C  C129  1  0.89650000  0.05762000  0.89491000  1
  C  C130  1  0.52843000  0.10352000  0.26065000  1
  C  C131  1  0.63737000  0.60392000  0.81181000  1
  C  C132  1  0.12077000  0.94899000  0.61861000  1
  C  C133  1  0.58567000  0.87745000  0.23292000  1
  C  C134  1  0.05748000  0.19344000  0.67054000  1
  C  C135  1  0.12137000  0.07644000  0.39962000  1
  C  C136  1  0.70668000  0.75568000  0.96176000  1
  C  C137  1  0.79176000  0.28515000  0.51758000  1
  C  C138  1  0.80978000  0.21539000  0.16158000  1
  C  C139  1  0.77367000  0.02876000  0.87961000  1
  C  C140  1  0.12866000  0.33539000  0.74693000  1
  C  C141  1  0.44325000  0.24882000  0.22880000  1
  C  C142  1  0.20062000  0.59049000  0.78243000  1
  C  C143  1  0.52445000  0.81645000  0.21283000  1
  C  C144  1  0.75932000  0.14428000  0.64545000  1
  C  C145  1  0.97418000  0.09589000  0.39750000  1
  C  C146  1  0.94252000  0.80656000  0.32946000  1
  C  C147  1  0.22633000  0.97123000  0.12039000  1
  C  C148  1  0.04083000  0.96070000  0.86568000  1
  C  C149  1  0.08371000  0.96581000  0.37032000  1
  C  C150  1  0.07715000  0.26844000  0.82173000  1
  C  C151  1  0.87134000  0.66460000  0.25307000  1
  C  C152  1  0.60300000  0.31205000  0.74441000  1
  C  C153  1  0.28681000  0.37154000  0.81710000  1
  C  C154  1  0.42884000  0.78987000  0.11135000  1
  C  C155  1  0.58050000  0.79474000  0.60477000  1
  C  C156  1  0.23456000  0.38754000  0.74330000  1
  C  C157  1  0.33999000  0.60705000  0.32542000  1
  C  C158  1  0.74891000  0.39113000  0.29779000  1
  C  C159  1  0.96600000  0.30896000  0.35283000  1
  C  C160  1  0.50526000  0.60678000  0.03920000  1
  C  C161  1  0.20824000  0.71484000  0.48242000  1
  C  C162  1  0.51821000  0.39250000  0.46792000  1
  C  C163  1  0.02582000  0.90410000  0.60250000  1
  C  C164  1  0.10350000  0.94237000  0.10509000  1
  C  C165  1  0.21866000  0.03458000  0.14282000  1
  C  C166  1  0.10595000  0.85329000  0.84482000  1
  C  C167  1  0.16861000  0.65902000  0.63606000  1
  C  C168  1  0.96786000  0.97500000  0.11266000  1
  C  C169  1  0.91656000  0.93094000  0.85220000  1
  C  C170  1  0.47555000  0.18354000  0.78717000  1
  C  C171  1  0.47875000  0.16763000  0.28649000  1
  C  C172  1  0.93626000  0.98549000  0.36748000  1
  C  C173  1  0.97132000  0.87642000  0.34550000  1
  C  C174  1  0.17945000  0.01089000  0.38616000  1
  C  C175  1  0.60040000  0.62802000  0.08478000  1
  C  C176  1  0.48179000  0.60749000  0.53208000  1
  C  C177  1  0.37114000  0.61748000  0.58992000  1
  C  C178  1  0.98460000  0.67178000  0.72747000  1
  C  C179  1  0.06374000  0.01451000  0.63252000  1
  C  C180  1  0.03400000  0.69103000  0.64717000  1
  C  C181  1  0.86999000  0.74906000  0.10428000  1
  C  C182  1  0.92285000  0.73156000  0.17827000  1
  C  C183  1  0.46907000  0.74064000  0.27470000  1
  C  C184  1  0.62886000  0.38252000  0.41008000  1
  C  C185  1  0.71319000  0.62846000  0.18290000  1
  C  C186  1  0.61311000  0.71309000  0.66324000  1
  C  C187  1  0.38999000  0.17912000  0.48489000  1
  C  C188  1  0.82055000  0.98910000  0.61384000  1
  C  C189  1  0.76505000  0.69606000  0.10837000  1
  C  C190  1  0.39960000  0.37197000  0.91522000  1
  C  C191  1  0.76544000  0.61246000  0.25670000  1
  C  C192  1  0.47157000  0.89648000  0.73935000  1
  C  C193  1  0.03214000  0.02499000  0.88734000  1
  C  C194  1  0.19022000  0.78460000  0.83842000  1
  C  C195  1  0.28662000  0.79793000  0.44047000  1
  C  C196  1  0.50706000  0.83974000  0.13096000  1
  C  C197  1  0.53093000  0.25936000  0.72530000  1
  C  C198  1  0.57116000  0.21012000  0.88865000  1
  C  C199  1  0.29332000  0.24432000  0.03824000  1
  C  C200  1  0.79938000  0.40950000  0.21757000  1
  C  C201  1  0.49474000  0.39321000  0.96080000  1
  C  C202  1  0.60356000  0.17915000  0.97562000  1
  C  C203  1  0.83139000  0.34097000  0.36394000  1
  C  C204  1  0.24068000  0.85572000  0.35455000  1
  C  C205  1  0.82331000  0.73177000  0.91197000  1
  C  C206  1  0.41950000  0.20525000  0.39523000  1
  C  C207  1  0.25109000  0.60887000  0.70221000  1
  C  C208  1  0.78134000  0.96542000  0.85718000  1
  C  C209  1  0.91629000  0.03418000  0.62968000  1
  N  N210  1  0.12997000  0.07100000  0.64843000  1
  N  N211  1  0.24735000  0.66345000  0.56640000  1
  N  N212  1  0.10227000  0.89692000  0.35591000  1
  N  N213  1  0.75265000  0.33655000  0.43361000  1
  N  N214  1  0.84301000  0.08811000  0.14090000  1
  N  N215  1  0.87003000  0.92900000  0.35157000  1
  N  N216  1  0.96147000  0.86342000  0.83901000  1
  N  N217  1  0.89773000  0.10308000  0.64409000  1
  N  N218  1  0.30890000  0.30572000  0.95179000  1
  N  N219  1  0.69110000  0.69428000  0.04821000  1
  N  N220  1  0.03853000  0.13657000  0.16099000  1
  N  N221  1  0.62398000  0.41614000  0.32856000  1
  N  N222  1  0.38904000  0.41231000  0.83392000  1
  N  N223  1  0.61096000  0.58768000  0.16608000  1
  N  N224  1  0.15699000  0.91188000  0.85910000  1
  N  N225  1  0.37601000  0.58386000  0.67144000  1
  O  O226  1  0.56457000  0.89537000  0.46545000  1
  O  O227  1  0.35736000  0.45635000  0.20710000  1
  O  O228  1  0.63602000  0.94468000  0.17420000  1
  O  O229  1  0.57122000  0.10125000  0.02507000  1
  O  O230  1  0.65961000  0.22531000  0.99718000  1
  O  O231  1  0.33405000  0.40492000  0.12047000  1
  O  O232  1  0.59923000  0.04182000  0.30998000  1
  O  O233  1  0.42877000  0.89874000  0.97493000  1
  O  O234  1  0.49955000  0.88453000  0.81044000  1
  O  O235  1  0.34039000  0.77468000  0.00282000  1
  O  O236  1  0.64984000  0.45957000  0.68389000  1
  O  O237  1  0.57858000  0.85855000  0.30906000  1
  O  O238  1  0.28568000  0.60748000  0.38942000  1
  O  O239  1  0.66595000  0.59508000  0.87953000  1
  O  O240  1  0.32093000  0.22632000  0.50844000  1
  O  O241  1  0.40077000  0.95818000  0.69002000  1
  O  O242  1  0.35015000  0.54043000  0.31611000  1
  O  O243  1  0.67907000  0.77368000  0.49156000  1
  O  O244  1  0.64263000  0.54364000  0.79290000  1
  O  O245  1  0.50045000  0.11546000  0.18956000  1
  O  O246  1  0.43543000  0.10463000  0.53455000  1
  O  O247  1  0.36398000  0.05532000  0.82580000  1
  O  O248  1  0.42142000  0.14145000  0.69094000  1
  O  O249  1  0.71431000  0.39251000  0.61058000  1
