# generated using pymatgen
data_H18C37O2
_symmetry_space_group_name_H-M   'P 1'
_cell_length_a   13.10890000
_cell_length_b   13.10890000
_cell_length_c   18.53870000
_cell_angle_alpha   90.00000000
_cell_angle_beta   90.00000000
_cell_angle_gamma   90.00000000
_symmetry_Int_Tables_number   1
_chemical_formula_structural   H18C37O2
_chemical_formula_sum   'H36 C74 O4'
_cell_volume   3185.75062952
_cell_formula_units_Z   2
loop_
 _symmetry_equiv_pos_site_id
 _symmetry_equiv_pos_as_xyz
  1  'x, y, z'
loop_
 _atom_site_type_symbol
 _atom_site_label
 _atom_site_symmetry_multiplicity
 _atom_site_fract_x
 _atom_site_fract_y
 _atom_site_fract_z
 _atom_site_occupancy
  C  1  1  0.46018000  0.11314600  0.99200500  1
  C  2  1  0.41370200  0.06055250  0.04978700  1
  C  3  1  0.30646250  0.05084550  0.06000300  1
  C  4  1  0.24574850  0.07505400  0.99918350  1
  C  5  1  0.28841200  0.10893600  0.93321400  1
  C  6  1  0.39419400  0.13787150  0.93343000  1
  C  9  1  0.57155450  0.11622500  0.99067550  1
  C  10  1  0.63135400  0.14413200  0.05193950  1
  C  11  1  0.73523800  0.11240800  0.06007350  1
  C  12  1  0.78156300  0.05909250  0.00225950  1
  C  13  1  0.72589850  0.02662450  0.94145200  1
  C  14  1  0.62229900  0.05957200  0.93668700  1
  C  21  1  0.95500500  0.43347350  0.49974850  1
  C  22  1  0.96336700  0.37927100  0.56596700  1
  C  23  1  0.94819800  0.27313400  0.57002800  1
  C  24  1  0.92934100  0.21780750  0.50646950  1
  C  25  1  0.93089700  0.26574600  0.43880550  1
  C  26  1  0.93732900  0.37384850  0.43626150  1
  C  29  1  0.97013500  0.54309200  0.49765600  1
  C  30  1  0.94276100  0.60974950  0.55525550  1
  C  31  1  0.96402900  0.71590550  0.55182600  1
  C  32  1  0.99464500  0.75865600  0.48564500  1
  C  33  1  0.01769700  0.69618000  0.42609200  1
  C  34  1  0.01802850  0.58934500  0.43721450  1
  C  41  1  0.02329550  0.07056600  0.30431500  1
  C  42  1  0.12743450  0.07849050  0.32079750  1
  C  43  1  0.18303250  0.02596500  0.26991800  1
  C  44  1  0.11648050  0.99917850  0.21397550  1
  C  45  1  0.15753250  0.99958550  0.14295300  1
  C  46  1  0.26340100  0.02212800  0.12957650  1
  C  47  1  0.32670875  0.03317850  0.19166650  1
  C  48  1  0.28854600  0.03289950  0.26152500  1
  C  49  1  0.16636600  0.15164400  0.36870400  1
  C  50  1  0.09845800  0.21860350  0.40147500  1
  C  51  1  0.99191100  0.21067700  0.38926050  1
  C  52  1  0.95392900  0.13500900  0.34125000  1
  C  53  1  0.91428350  0.00352650  0.19906050  1
  C  54  1  0.85828900  0.91283100  0.20456650  1
  C  55  1  0.91135300  0.84155300  0.24275000  1
  C  56  1  0.99446100  0.88871500  0.27548200  1
  C  57  1  0.88290800  0.74018050  0.25560550  1
  C  58  1  0.93131250  0.68809750  0.31135550  1
  C  59  1  0.00585800  0.73676400  0.35500100  1
  C  60  1  0.04034000  0.83577800  0.33413800  1
  C  61  1  0.87001250  0.08197550  0.15603425  1
  C  62  1  0.76824100  0.07202950  0.12808850  1
  C  63  1  0.71034300  0.98515000  0.14877650  1
  C  64  1  0.75578950  0.90394100  0.18446150  1
  C  77  1  0.00992750  0.99465500  0.24467600  1
  C  78  1  0.90707900  0.95738700  0.79375500  1
  C  79  1  0.82368700  0.96874900  0.74704800  1
  C  80  1  0.84652700  0.05321750  0.70561900  1
  C  81  1  0.95220300  0.07128200  0.70872200  1
  C  82  1  0.99178300  0.15305200  0.66770300  1
  C  83  1  0.92326800  0.22342200  0.63498400  1
  C  84  1  0.81664100  0.21279000  0.64536550  1
  C  85  1  0.77753500  0.12548150  0.67856250  1
  C  86  1  0.72659350  0.93162300  0.76473300  1
  C  87  1  0.70801750  0.91110300  0.83766450  1
  C  88  1  0.77294300  0.96137350  0.88786600  1
  C  89  1  0.87831700  0.97073050  0.86712000  1
  C  90  1  0.02732350  0.89947100  0.70278300  1
  C  91  1  0.12351400  0.86035700  0.71883600  1
  C  92  1  0.16932250  0.92257700  0.76837000  1
  C  93  1  0.10312950  0.00092900  0.79055100  1
  C  94  1  0.26929700  0.91044700  0.79329600  1
  C  95  1  0.30576050  0.97852900  0.84435200  1
  C  96  1  0.24564650  0.06079700  0.87020450  1
  C  97  1  0.14252400  0.06911750  0.84404150  1
  C  98  1  0.97110100  0.85046700  0.64686100  1
  C  99  1  0.00911950  0.76125050  0.61322000  1
  C  100  1  0.10563650  0.72268750  0.63384100  1
  C  101  1  0.16363150  0.77230900  0.68615800  1
  C  114  1  0.00096000  0.98826850  0.75200850  1
  H  7  1  0.46164650  0.02583250  0.08547325  1
  H  8  1  0.17012800  0.05638750  0.99962950  1
  H  15  1  0.85245100  0.02789300  0.01010250  1
  H  16  1  0.57928550  0.03785950  0.89367300  1
  H  19  1  0.44712750  0.13530450  0.83680950  1
  H  20  1  0.57175900  0.15345150  0.14637900  1
  H  27  1  0.97966500  0.41636700  0.61291200  1
  H  28  1  0.92498500  0.13952800  0.50910250  1
  H  35  1  0.00259950  0.83625100  0.48171600  1
  H  36  1  0.04377150  0.54516900  0.39574500  1
  H  39  1  0.96721150  0.40297300  0.33693850  1
  H  40  1  0.92762900  0.57973900  0.65603800  1
  H  65  1  0.63914650  0.97162100  0.12805000  1
  H  66  1  0.71448800  0.83905950  0.19356400  1
  H  67  1  0.82165700  0.70758800  0.23044250  1
  H  68  1  0.90003000  0.61947500  0.32551050  1
  H  69  1  0.09282500  0.87260650  0.36541700  1
  H  70  1  0.91356300  0.14350800  0.14202400  1
  H  71  1  0.10745100  0.99049700  0.10140200  1
  H  72  1  0.40092275  0.05598000  0.18862850  1
  H  73  1  0.33479950  0.05685050  0.30264875  1
  H  74  1  0.87725700  0.12784050  0.33257700  1
  H  75  1  0.24278000  0.16101100  0.37723700  1
  H  76  1  0.12774200  0.27068600  0.43720300  1
  H  102  1  0.13709250  0.66072650  0.60847800  1
  H  103  1  0.23427200  0.74462750  0.69859200  1
  H  104  1  0.31493900  0.85160500  0.77705900  1
  H  105  1  0.37658800  0.96290500  0.86501700  1
  H  106  1  0.09553300  0.12392600  0.86479050  1
  H  107  1  0.90287500  0.87917900  0.62989800  1
  H  108  1  0.06865000  0.15802500  0.65899400  1
  H  109  1  0.76599300  0.26034450  0.61988500  1
  H  110  1  0.70040400  0.11493150  0.68194850  1
  H  111  1  0.92990100  0.00564600  0.90010600  1
  H  112  1  0.66658800  0.93911850  0.72986850  1
  H  113  1  0.63415350  0.89392700  0.85034000  1
  O  17  1  0.43416750  0.18612850  0.87454550  1
  O  18  1  0.58632700  0.19930200  0.10579650  1
  O  37  1  0.91296700  0.41857950  0.37192950  1
  O  38  1  0.88544900  0.57652600  0.61221450  1
