# generated using pymatgen
data_ZnH20C28(NO2)2
_symmetry_space_group_name_H-M   'P 1'
_cell_length_a   8.58916000
_cell_length_b   13.37359000
_cell_length_c   14.19948830
_cell_angle_alpha   62.15778412
_cell_angle_beta   84.23786329
_cell_angle_gamma   78.24153000
_symmetry_Int_Tables_number   1
_chemical_formula_structural   ZnH20C28(NO2)2
_chemical_formula_sum   'Zn2 H40 C56 N4 O8'
_cell_volume   1411.95782434
_cell_formula_units_Z   2
loop_
 _symmetry_equiv_pos_site_id
 _symmetry_equiv_pos_as_xyz
  1  'x, y, z'
loop_
 _atom_site_type_symbol
 _atom_site_label
 _atom_site_symmetry_multiplicity
 _atom_site_fract_x
 _atom_site_fract_y
 _atom_site_fract_z
 _atom_site_occupancy
  Zn  Zn0  1  0.47908000  0.61803000  0.17479000  1
  Zn  Zn1  1  0.97280000  0.79623000  0.82432000  1
  H  H2  1  0.97735000  0.47186000  0.24920000  1
  H  H3  1  0.23502000  0.35821000  0.33686000  1
  H  H4  1  0.98203000  0.13711000  0.60900000  1
  H  H5  1  0.72634000  0.25331000  0.51957000  1
  H  H6  1  0.38481000  0.21107000  0.48136000  1
  H  H7  1  0.20584000  0.03093000  0.65835000  1
  H  H8  1  0.36861000  0.90656000  0.81564000  1
  H  H9  1  0.63299000  0.79762000  0.89239000  1
  H  H10  1  0.85988000  0.96018000  0.60232000  1
  H  H11  1  0.60421000  0.07894000  0.51360000  1
  H  H12  1  0.59303000  0.96878000  0.91820000  1
  H  H13  1  0.69470000  0.15097000  0.85419000  1
  H  H14  1  0.70530000  0.09581000  0.17838000  1
  H  H15  1  0.60552000  0.91373000  0.24063000  1
  H  H16  1  0.78828000  0.28573000  0.88473000  1
  H  H17  1  0.75131000  0.26401000  0.11120000  1
  H  H18  1  0.89114000  0.43466000  0.82222000  1
  H  H19  1  0.96623000  0.62563000  0.75996000  1
  H  H20  1  0.86815000  0.61628000  0.05599000  1
  H  H21  1  0.79292000  0.42545000  0.13130000  1
  H  H22  1  0.47238000  0.71990000  0.75108000  1
  H  H23  1  0.73179000  0.69339000  0.66328000  1
  H  H24  1  0.48422000  0.74517000  0.38972000  1
  H  H25  1  0.22627000  0.77361000  0.47872000  1
  H  H26  1  0.88402000  0.69249000  0.51834000  1
  H  H27  1  0.70910000  0.69134000  0.33900000  1
  H  H28  1  0.87425000  0.72425000  0.18168000  1
  H  H29  1  0.14006000  0.69147000  0.10465000  1
  H  H30  1  0.36153000  0.56343000  0.39545000  1
  H  H31  1  0.10415000  0.59326000  0.48466000  1
  H  H32  1  0.09257000  0.88845000  0.08004000  1
  H  H33  1  0.19657000  0.00656000  0.14376000  1
  H  H34  1  0.20660000  0.27393000  0.82003000  1
  H  H35  1  0.10236000  0.15475000  0.75818000  1
  H  H36  1  0.29022000  0.17099000  0.11311000  1
  H  H37  1  0.24612000  0.37579000  0.88839000  1
  H  H38  1  0.39033000  0.25703000  0.17569000  1
  H  H39  1  0.46984000  0.38467000  0.23812000  1
  H  H40  1  0.37031000  0.67055000  0.94423000  1
  H  H41  1  0.28849000  0.55598000  0.86933000  1
  C  C42  1  0.67916000  0.43645000  0.32818000  1
  C  C43  1  0.83586000  0.36894000  0.37892000  1
  C  C44  1  0.97979000  0.39821000  0.32741000  1
  C  C45  1  0.12384000  0.33410000  0.37655000  1
  C  C46  1  0.12845000  0.23786000  0.47785000  1
  C  C47  1  0.98277000  0.20929000  0.52971000  1
  C  C48  1  0.83937000  0.27407000  0.48056000  1
  C  C49  1  0.28275000  0.17166000  0.52385000  1
  C  C50  1  0.30684000  0.06924000  0.61293000  1
  C  C51  1  0.46206000  0.00464000  0.65743000  1
  C  C52  1  0.47429000  0.92169000  0.76535000  1
  C  C53  1  0.62195000  0.85969000  0.80838000  1
  C  C54  1  0.74804000  0.95293000  0.64632000  1
  C  C55  1  0.60495000  0.01842000  0.59797000  1
  C  C56  1  0.53887000  0.81697000  0.12534000  1
  C  C57  1  0.59237000  0.92984000  0.08337000  1
  C  C58  1  0.61745000  0.99742000  0.97442000  1
  C  C59  1  0.67359000  0.09981000  0.93891000  1
  C  C60  1  0.70548000  0.13813000  0.01108000  1
  C  C61  1  0.67947000  0.06944000  0.12067000  1
  C  C62  1  0.62395000  0.96718000  0.15612000  1
  C  C63  1  0.76203000  0.24646000  0.96989000  1
  C  C64  1  0.78085000  0.30138000  0.02663000  1
  C  C65  1  0.83292000  0.41132000  0.98355000  1
  C  C66  1  0.88434000  0.47085000  0.87733000  1
  C  C67  1  0.92691000  0.57713000  0.84176000  1
  C  C68  1  0.87405000  0.57280000  0.00687000  1
  C  C69  1  0.83120000  0.46529000  0.04853000  1
  C  C70  1  0.17645000  0.76694000  0.67158000  1
  C  C71  1  0.33326000  0.74825000  0.62034000  1
  C  C72  1  0.47640000  0.72479000  0.67242000  1
  C  C73  1  0.62128000  0.70950000  0.62327000  1
  C  C74  1  0.62770000  0.71518000  0.52135000  1
  C  C75  1  0.48298000  0.73842000  0.46924000  1
  C  C76  1  0.33852000  0.75476000  0.51830000  1
  C  C77  1  0.78311000  0.69574000  0.47516000  1
  C  C78  1  0.80918000  0.68361000  0.38501000  1
  C  C79  1  0.96509000  0.66380000  0.34027000  1
  C  C80  1  0.97912000  0.68898000  0.23198000  1
  C  C81  1  0.12750000  0.66969000  0.18883000  1
  C  C82  1  0.25053000  0.60040000  0.35143000  1
  C  C83  1  0.10669000  0.61771000  0.39996000  1
  C  C84  1  0.03510000  0.94430000  0.87365000  1
  C  C85  1  0.09016000  0.01474000  0.91530000  1
  C  C86  1  0.11680000  0.97309000  0.02404000  1
  C  C87  1  0.17418000  0.03971000  0.05935000  1
  C  C88  1  0.20578000  0.14975000  0.98714000  1
  C  C89  1  0.17937000  0.19056000  0.87768000  1
  C  C90  1  0.12200000  0.12421000  0.84246000  1
  C  C91  1  0.26207000  0.21682000  0.02845000  1
  C  C92  1  0.27816000  0.32853000  0.97231000  1
  C  C93  1  0.33113000  0.39490000  0.01561000  1
  C  C94  1  0.38429000  0.34792000  0.12119000  1
  C  C95  1  0.42947000  0.41796000  0.15672000  1
  C  C96  1  0.37533000  0.57843000  0.99282000  1
  C  C97  1  0.32913000  0.51334000  0.95134000  1
  N  N98  1  0.75777000  0.87445000  0.75043000  1
  N  N99  1  0.92133000  0.62912000  0.90467000  1
  N  N100  1  0.26208000  0.62603000  0.24708000  1
  N  N101  1  0.42522000  0.53226000  0.09423000  1
  O  O102  1  0.68720000  0.52851000  0.23803000  1
  O  O103  1  0.55202000  0.40304000  0.37097000  1
  O  O104  1  0.52354000  0.77647000  0.06028000  1
  O  O105  1  0.51471000  0.76138000  0.22416000  1
  O  O106  1  0.18476000  0.76763000  0.76257000  1
  O  O107  1  0.04851000  0.77938000  0.62848000  1
  O  O108  1  0.02194000  0.83876000  0.93858000  1
  O  O109  1  0.00752000  0.98759000  0.77527000  1
