# generated using pymatgen
data_H17(C9N)2
_symmetry_space_group_name_H-M   'P 1'
_cell_length_a   29.34590000
_cell_length_b   32.89879726
_cell_length_c   32.89860000
_cell_angle_alpha   120.00140495
_cell_angle_beta   89.60900000
_cell_angle_gamma   90.39099766
_symmetry_Int_Tables_number   1
_chemical_formula_structural   H17(C9N)2
_chemical_formula_sum   'H204 C216 N24'
_cell_volume   27505.26737032
_cell_formula_units_Z   12
loop_
 _symmetry_equiv_pos_site_id
 _symmetry_equiv_pos_as_xyz
  1  'x, y, z'
loop_
 _atom_site_type_symbol
 _atom_site_label
 _atom_site_symmetry_multiplicity
 _atom_site_fract_x
 _atom_site_fract_y
 _atom_site_fract_z
 _atom_site_occupancy
  H  7  1  0.92490300  0.57081100  0.55323400  1
  H  8  1  0.02902700  0.53761800  0.61892800  1
  H  9  1  0.89531500  0.49437300  0.62083900  1
  H  16  1  0.97529900  0.62692900  0.55983700  1
  H  17  1  0.10733600  0.61652700  0.50730700  1
  H  18  1  0.06786100  0.52718100  0.55659900  1
  H  29  1  0.59340900  0.98462100  0.43145200  1
  H  30  1  0.69779300  0.08386600  0.46171000  1
  H  31  1  0.56475400  0.12855500  0.50730700  1
  H  38  1  0.64383300  0.93494800  0.37522100  1
  H  39  1  0.77428200  0.89403100  0.38995300  1
  H  40  1  0.73608000  0.03350000  0.47462100  1
  H  51  1  0.26191100  0.45064200  0.02013000  1
  H  52  1  0.36602800  0.38160900  0.92083600  1
  H  53  1  0.23352800  0.38329100  0.87621400  1
  H  60  1  0.31147300  0.44338300  0.06965400  1
  H  61  1  0.44324400  0.49658800  0.11078000  1
  H  62  1  0.40530900  0.44411400  0.97167500  1
  H  73  1  0.42440200  0.43208300  0.45058400  1
  H  74  1  0.52967800  0.46249000  0.38235700  1
  H  75  1  0.39730100  0.50854100  0.38295300  1
  H  82  1  0.47425100  0.37544900  0.44385900  1
  H  83  1  0.60492700  0.38915900  0.49908500  1
  H  84  1  0.56756800  0.47508100  0.44570200  1
  H  95  1  0.09301000  0.02075400  0.57268100  1
  H  96  1  0.19656500  0.92129100  0.54087500  1
  H  97  1  0.06349600  0.87686500  0.49544100  1
  H  104  1  0.14324700  0.07021300  0.62884600  1
  H  105  1  0.27509900  0.11146700  0.61627400  1
  H  106  1  0.23609800  0.97236200  0.52965600  1
  H  117  1  0.76181800  0.55620100  0.98660500  1
  H  118  1  0.86663000  0.62260300  0.08500100  1
  H  119  1  0.73341200  0.62303400  0.13070900  1
  H  126  1  0.81194700  0.56190200  0.93652000  1
  H  127  1  0.94216600  0.50557600  0.89346800  1
  H  128  1  0.90494200  0.56007900  0.03342900  1
  H  140  1  0.20674700  0.47275200  0.56236900  1
  H  141  1  0.16269200  0.47111200  0.52479700  1
  H  142  1  0.17626500  0.52336600  0.57816000  1
  H  144  1  0.26856300  0.40367500  0.44719800  1
  H  145  1  0.22807200  0.41234300  0.48951800  1
  H  146  1  0.28630700  0.41792200  0.50441500  1
  H  148  1  0.23490200  0.61547200  0.49110700  1
  H  149  1  0.29082900  0.62834700  0.51001400  1
  H  150  1  0.24752400  0.64319300  0.55212200  1
  H  152  1  0.37358600  0.55147800  0.51945400  1
  H  153  1  0.34325700  0.60361900  0.54786600  1
  H  154  1  0.35523900  0.57789300  0.48683900  1
  H  156  1  0.34452900  0.43604100  0.46046300  1
  H  158  1  0.17575300  0.60196500  0.52723500  1
  H  166  1  0.87396300  0.09239900  0.53696400  1
  H  167  1  0.82965900  0.05440700  0.53496700  1
  H  168  1  0.84527700  0.05876600  0.48478600  1
  H  170  1  0.93711800  0.04466700  0.60249700  1
  H  171  1  0.89606200  0.07807300  0.59503100  1
  H  172  1  0.95411800  0.08886500  0.58941400  1
  H  174  1  0.90150300  0.87871200  0.39085300  1
  H  175  1  0.95750600  0.88499300  0.37790100  1
  H  176  1  0.91452200  0.91216700  0.36320400  1
  H  178  1  0.04082100  0.97212700  0.45400700  1
  H  179  1  0.01005600  0.94838600  0.40213100  1
  H  180  1  0.02244600  0.91288000  0.42737500  1
  H  182  1  0.01288400  0.02711100  0.56964300  1
  H  184  1  0.84302100  0.92830200  0.40460800  1
  H  192  1  0.54441300  0.44681900  0.91320800  1
  H  193  1  0.49984300  0.48254600  0.95053900  1
  H  194  1  0.51455100  0.42808100  0.94636700  1
  H  196  1  0.60602500  0.56227200  0.96303600  1
  H  197  1  0.56570100  0.52043500  0.92861300  1
  H  198  1  0.62399000  0.50572200  0.91853000  1
  H  200  1  0.57072400  0.51102500  0.12595100  1
  H  201  1  0.62666900  0.49218300  0.11913200  1
  H  202  1  0.58357400  0.45018100  0.09093700  1
  H  204  1  0.71022700  0.48639100  0.03405600  1
  H  205  1  0.67968400  0.45635700  0.05625400  1
  H  206  1  0.69135300  0.51722600  0.09321700  1
  H  208  1  0.68185100  0.54818800  0.98092200  1
  H  210  1  0.51200500  0.47626600  0.07622200  1
  H  218  1  0.70542500  0.53602200  0.44722600  1
  H  219  1  0.66141300  0.53454900  0.48379800  1
  H  220  1  0.67597800  0.48412600  0.42918200  1
  H  222  1  0.76932600  0.60166900  0.56043900  1
  H  223  1  0.72824700  0.59423900  0.51953500  1
  H  224  1  0.78626600  0.58861300  0.50317900  1
  H  226  1  0.73314400  0.38908200  0.51351000  1
  H  227  1  0.78875500  0.37612200  0.49327600  1
  H  228  1  0.74497900  0.36220000  0.45226300  1
  H  230  1  0.87221900  0.45351900  0.48396100  1
  H  231  1  0.84119200  0.40160800  0.45510700  1
  H  232  1  0.85372400  0.42602900  0.51577900  1
  H  234  1  0.84483700  0.56882900  0.54521900  1
  H  236  1  0.67391300  0.40391200  0.47948500  1
  H  244  1  0.37411800  0.91292100  0.46957200  1
  H  245  1  0.33016800  0.95031700  0.47066100  1
  H  246  1  0.34475700  0.94694400  0.52142100  1
  H  248  1  0.43731400  0.96030400  0.40253400  1
  H  249  1  0.39626800  0.92673200  0.41063000  1
  H  250  1  0.45431900  0.91642900  0.41574800  1
  H  252  1  0.40303600  0.12645700  0.61512600  1
  H  253  1  0.45880700  0.11977900  0.62759800  1
  H  254  1  0.41522900  0.09248200  0.64218300  1
  H  256  1  0.54159800  0.03346500  0.54973800  1
  H  257  1  0.51105100  0.05669100  0.60196400  1
  H  258  1  0.52335300  0.09262800  0.57696200  1
  H  260  1  0.51316700  0.97835000  0.43462500  1
  H  262  1  0.34370700  0.07716700  0.60123400  1
  H  270  1  0.04253100  0.55847800  0.09134500  1
  H  271  1  0.99831400  0.52217200  0.05399600  1
  H  272  1  0.01376700  0.57627100  0.05728200  1
  H  274  1  0.10646700  0.44566100  0.04496300  1
  H  275  1  0.06507400  0.48656500  0.07807100  1
  H  276  1  0.12299500  0.50332900  0.08838700  1
  H  278  1  0.06977300  0.48714300  0.87664000  1
  H  279  1  0.12571100  0.50623500  0.88201100  1
  H  280  1  0.08261300  0.54829300  0.90889900  1
  H  282  1  0.20921400  0.51990700  0.96952600  1
  H  283  1  0.17807400  0.54689700  0.94495000  1
  H  284  1  0.19106100  0.48612300  0.91045000  1
  H  286  1  0.18196600  0.46078900  0.02655600  1
  H  288  1  0.01127900  0.52391900  0.92654400  1
  H  296  1  0.04492000  0.66413400  0.40165500  1
  H  297  1  0.00780000  0.66486600  0.44380200  1
  H  298  1  0.06446400  0.64408100  0.43848100  1
  H  300  1  0.09093500  0.77139700  0.41025800  1
  H  301  1  0.04459000  0.73390200  0.39915100  1
  H  302  1  0.10114800  0.71194200  0.39234700  1
  H  304  1  0.02233700  0.77116300  0.60941300  1
  H  305  1  0.03526600  0.82884800  0.62387100  1
  H  306  1  0.07781900  0.79321200  0.62891600  1
  H  308  1  0.15170500  0.84949900  0.57900000  1
  H  309  1  0.11307500  0.85288000  0.62065000  1
  H  310  1  0.09967600  0.88057800  0.58871200  1
  H  312  1  0.16187700  0.78469300  0.46755700  1
  H  314  1  0.08720700  0.69850900  0.55202700  1
  H  322  1  0.71329000  0.74042300  0.34130000  1
  H  323  1  0.67608600  0.78080700  0.33956600  1
  H  324  1  0.73232900  0.79771300  0.36148100  1
  H  326  1  0.76075200  0.64234300  0.23498700  1
  H  327  1  0.71383900  0.66804400  0.27160900  1
  H  328  1  0.77005000  0.68417100  0.29456900  1
  H  330  1  0.69281300  0.83983600  0.23288600  1
  H  331  1  0.70755500  0.79708300  0.17562300  1
  H  332  1  0.74897500  0.83889800  0.21272500  1
  H  334  1  0.82403500  0.73380400  0.15810400  1
  H  335  1  0.78623600  0.77201500  0.15435000  1
  H  336  1  0.77259200  0.71220500  0.12580400  1
  H  338  1  0.83223700  0.68690900  0.22219400  1
  H  340  1  0.75614300  0.85678200  0.30706900  1
  H  348  1  0.38212900  0.60253200  0.26462300  1
  H  349  1  0.34454200  0.56092700  0.22375900  1
  H  350  1  0.40141000  0.56537100  0.20748600  1
  H  352  1  0.42653200  0.59330100  0.36295300  1
  H  353  1  0.38076000  0.60496900  0.33691000  1
  H  354  1  0.43765500  0.61117700  0.32140400  1
  H  356  1  0.35740000  0.39481200  0.16383500  1
  H  357  1  0.36968400  0.38004300  0.20680800  1
  H  358  1  0.41266600  0.37501400  0.16599900  1
  H  360  1  0.48589800  0.42401900  0.27153200  1
  H  361  1  0.44698200  0.38272800  0.23375400  1
  H  362  1  0.43362000  0.41486400  0.29355100  1
  H  364  1  0.49725000  0.53514000  0.31808500  1
  H  366  1  0.42302600  0.45215000  0.14852700  1
  H  374  1  0.54424900  0.33882000  0.60304000  1
  H  375  1  0.50656000  0.33769000  0.56155900  1
  H  376  1  0.56281500  0.35991900  0.56646700  1
  H  378  1  0.59380100  0.23265600  0.59274900  1
  H  379  1  0.54656000  0.26884500  0.60500500  1
  H  380  1  0.60254200  0.29245500  0.61082600  1
  H  382  1  0.52060300  0.23322800  0.39563900  1
  H  383  1  0.53433300  0.17559900  0.38033300  1
  H  384  1  0.57615900  0.21233100  0.37516000  1
  H  386  1  0.65218600  0.15697100  0.42279300  1
  H  387  1  0.61256100  0.15280500  0.38202000  1
  H  388  1  0.60087200  0.12454100  0.41398100  1
  H  390  1  0.66352800  0.22072900  0.53343600  1
  H  392  1  0.58589900  0.30655900  0.45311100  1
  H  400  1  0.21457400  0.26545400  0.66485700  1
  H  401  1  0.17685800  0.22463100  0.66592100  1
  H  402  1  0.23338200  0.20822000  0.64448100  1
  H  404  1  0.26183600  0.36313800  0.77160600  1
  H  405  1  0.21521200  0.33772300  0.73468800  1
  H  406  1  0.27160300  0.32147000  0.71200700  1
  H  408  1  0.19019200  0.16467400  0.77174800  1
  H  409  1  0.20341700  0.20759500  0.82933800  1
  H  410  1  0.24562600  0.16636300  0.79317900  1
  H  412  1  0.32067100  0.27113800  0.84878000  1
  H  413  1  0.28128800  0.23376300  0.85276100  1
  H  414  1  0.26892400  0.29368500  0.88052100  1
  H  416  1  0.33209000  0.31747200  0.78407100  1
  H  418  1  0.25527300  0.14881600  0.69867100  1
  H  426  1  0.87820100  0.40041500  0.74002900  1
  H  427  1  0.84189200  0.44277200  0.78196400  1
  H  428  1  0.89873500  0.43711700  0.79663400  1
  H  430  1  0.92159700  0.40899600  0.64040200  1
  H  431  1  0.87583500  0.39828800  0.66785300  1
  H  432  1  0.93272900  0.39062000  0.68140000  1
  H  434  1  0.85951200  0.60861600  0.84194700  1
  H  435  1  0.87162500  0.62313100  0.79859900  1
  H  436  1  0.91517200  0.62722000  0.83801200  1
  H  438  1  0.98614100  0.57683400  0.73042100  1
  H  439  1  0.94836200  0.61890400  0.76912800  1
  H  440  1  0.93396800  0.58689400  0.70969600  1
  H  442  1  0.99434400  0.46530000  0.68339800  1
  H  444  1  0.92362100  0.54968500  0.85521900  1
  C  1  1  0.98263700  0.55835500  0.58332000  1
  C  2  1  0.93545800  0.55951100  0.57538500  1
  C  3  1  0.90361100  0.53574000  0.58846200  1
  C  4  1  0.91789900  0.51370400  0.61346000  1
  C  5  1  0.96406600  0.51525700  0.62524400  1
  C  6  1  0.99568000  0.53692000  0.60971600  1
  C  10  1  0.01543300  0.57436500  0.56231300  1
  C  11  1  0.00596600  0.60996600  0.55098700  1
  C  12  1  0.03960100  0.62644800  0.53186600  1
  C  13  1  0.08314800  0.60569000  0.52234100  1
  C  14  1  0.09392700  0.57073900  0.53330900  1
  C  15  1  0.05961100  0.55423200  0.55122800  1
  C  23  1  0.65115300  0.02747000  0.44256300  1
  C  24  1  0.60395600  0.01808500  0.44211800  1
  C  25  1  0.57247200  0.05482900  0.46629600  1
  C  26  1  0.58707800  0.10191400  0.48779900  1
  C  27  1  0.63313700  0.11234500  0.48507000  1
  C  28  1  0.66444400  0.07530100  0.46306400  1
  C  32  1  0.68383000  0.99085500  0.42743400  1
  C  33  1  0.67425000  0.94354600  0.39260300  1
  C  34  1  0.70744900  0.90807900  0.37779900  1
  C  35  1  0.75055800  0.91985200  0.39952700  1
  C  36  1  0.76160900  0.96623200  0.43346200  1
  C  37  1  0.72777300  0.00062300  0.44812600  1
  C  45  1  0.31954600  0.41878400  0.97729200  1
  C  46  1  0.27243800  0.42792000  0.98668100  1
  C  47  1  0.24112400  0.41572900  0.94992200  1
  C  48  1  0.25570200  0.39021400  0.90283700  1
  C  49  1  0.30161800  0.37700200  0.89240000  1
  C  50  1  0.33280900  0.39169000  0.92944200  1
  C  54  1  0.35226700  0.43964100  0.01398700  1
  C  55  1  0.34234400  0.45180300  0.06118400  1
  C  56  1  0.37568500  0.47156900  0.09664500  1
  C  57  1  0.41936600  0.48090400  0.08497700  1
  C  58  1  0.43068000  0.46888700  0.03874200  1
  C  59  1  0.39670800  0.45013200  0.00439500  1
  C  67  1  0.48251800  0.44315000  0.41915700  1
  C  68  1  0.43526600  0.44269500  0.42782200  1
  C  69  1  0.40419100  0.46716500  0.41535000  1
  C  70  1  0.41925000  0.48873100  0.38990600  1
  C  71  1  0.46539800  0.48614200  0.37717100  1
  C  72  1  0.49627800  0.46383500  0.39208800  1
  C  76  1  0.51483400  0.42781800  0.44067800  1
  C  77  1  0.50480500  0.39281600  0.45287800  1
  C  78  1  0.53786000  0.37757300  0.47319700  1
  C  79  1  0.58123000  0.39912000  0.48320800  1
  C  80  1  0.59262200  0.43330100  0.47113700  1
  C  81  1  0.55894700  0.44843200  0.45181200  1
  C  89  1  0.15048200  0.97786300  0.56088400  1
  C  90  1  0.10340400  0.98723200  0.56146700  1
  C  91  1  0.07168100  0.95055600  0.53717500  1
  C  92  1  0.08591200  0.90344500  0.51516000  1
  C  93  1  0.13184800  0.89295900  0.51741000  1
  C  94  1  0.16337000  0.92997100  0.53972300  1
  C  98  1  0.18346900  0.01458200  0.57665800  1
  C  99  1  0.17393700  0.06177100  0.61173500  1
  C  100  1  0.20752400  0.09725400  0.62734300  1
  C  101  1  0.25103700  0.08565100  0.60614900  1
  C  102  1  0.26196600  0.03944000  0.57184900  1
  C  103  1  0.22776600  0.00506100  0.55640300  1
  C  111  1  0.81980700  0.58665300  0.02889500  1
  C  112  1  0.77253200  0.57852000  0.02001900  1
  C  113  1  0.74101800  0.59114100  0.05698400  1
  C  114  1  0.75575200  0.61593100  0.10393100  1
  C  115  1  0.80195000  0.62822600  0.11397700  1
  C  116  1  0.83322200  0.61320200  0.07665400  1
  C  120  1  0.85230300  0.56516000  0.99177600  1
  C  121  1  0.84243300  0.55290500  0.94463900  1
  C  122  1  0.87533500  0.53206100  0.90859400  1
  C  123  1  0.91860000  0.52188600  0.91965000  1
  C  124  1  0.92996800  0.53411500  0.96582500  1
  C  125  1  0.89636300  0.55392200  0.00075500  1
  C  133  1  0.30031700  0.49529200  0.48786300  1
  C  134  1  0.26192800  0.47606700  0.49922100  1
  C  135  1  0.22351600  0.50538200  0.52139200  1
  C  136  1  0.21960400  0.54869000  0.52127900  1
  C  137  1  0.25967600  0.56932300  0.51398100  1
  C  138  1  0.30132500  0.54426300  0.50332800  1
  C  139  1  0.19034500  0.49231700  0.54782000  1
  C  143  1  0.26093000  0.42491400  0.48460700  1
  C  147  1  0.25853400  0.61653700  0.51708300  1
  C  151  1  0.34578600  0.57058000  0.51469100  1
  C  155  1  0.33764100  0.46711200  0.46190400  1
  C  157  1  0.17693300  0.57084200  0.52666300  1
  C  159  1  0.96806500  0.99554000  0.51079100  1
  C  160  1  0.92981200  0.02574400  0.53055100  1
  C  161  1  0.89130000  0.01883400  0.50153300  1
  C  162  1  0.88698100  0.97565200  0.45795800  1
  C  163  1  0.92680500  0.94779500  0.43707800  1
  C  164  1  0.96867600  0.96236800  0.46174600  1
  C  165  1  0.85810700  0.05806900  0.51547800  1
  C  169  1  0.92900600  0.06141000  0.58197900  1
  C  173  1  0.92538300  0.90374200  0.38979700  1
  C  177  1  0.01292800  0.94803200  0.43502700  1
  C  181  1  0.00566000  0.99767100  0.53844300  1
  C  183  1  0.84429200  0.95909900  0.43548600  1
  C  185  1  0.63716800  0.51914000  0.01133200  1
  C  186  1  0.59914800  0.50834700  0.98086600  1
  C  187  1  0.56077700  0.48504100  0.98692200  1
  C  188  1  0.55635700  0.48355400  0.02954400  1
  C  189  1  0.59609800  0.49045000  0.05732700  1
  C  190  1  0.63788700  0.50213800  0.04359500  1
  C  191  1  0.52795700  0.45954100  0.94728000  1
  C  195  1  0.59844900  0.52476400  0.94571500  1
  C  199  1  0.59456100  0.48560100  0.10046300  1
  C  203  1  0.68221600  0.49018000  0.05768500  1
  C  207  1  0.67454600  0.54580800  0.01005300  1
  C  209  1  0.51352800  0.47701900  0.04575600  1
  C  211  1  0.79965300  0.50991500  0.51763100  1
  C  212  1  0.76148600  0.52973500  0.50738500  1
  C  213  1  0.72273000  0.50072200  0.48539000  1
  C  214  1  0.71826400  0.45707700  0.48488900  1
  C  215  1  0.75811200  0.43598800  0.49121800  1
  C  216  1  0.80009500  0.46078800  0.50133800  1
  C  217  1  0.68943500  0.51477100  0.46036000  1
  C  221  1  0.76107700  0.58117000  0.52317300  1
  C  225  1  0.75654600  0.38837600  0.48724600  1
  C  229  1  0.84423400  0.43420700  0.48865800  1
  C  233  1  0.83736100  0.53756800  0.54332500  1
  C  235  1  0.67540400  0.43478100  0.47953700  1
  C  237  1  0.46855700  0.00985400  0.49397600  1
  C  238  1  0.43014400  0.97955100  0.47464800  1
  C  239  1  0.39161700  0.98650100  0.50406100  1
  C  240  1  0.38758900  0.02968600  0.54766800  1
  C  241  1  0.42765000  0.05739800  0.56825700  1
  C  242  1  0.46940500  0.04294900  0.54303700  1
  C  243  1  0.35820400  0.94720500  0.49055300  1
  C  247  1  0.42922800  0.94367600  0.42329100  1
  C  251  1  0.42649500  0.10119000  0.61575400  1
  C  255  1  0.51378700  0.05734400  0.56917400  1
  C  259  1  0.50609600  0.00781200  0.46587100  1
  C  261  1  0.34490700  0.04639700  0.57031000  1
  C  263  1  0.13692900  0.48697900  0.99433900  1
  C  264  1  0.09864300  0.49773900  0.02484400  1
  C  265  1  0.05991800  0.51933300  0.01766300  1
  C  266  1  0.05544000  0.51878500  0.97404700  1
  C  267  1  0.09522900  0.51136400  0.94574600  1
  C  268  1  0.13725600  0.50190700  0.96042900  1
  C  269  1  0.02669200  0.54513900  0.05705500  1
  C  273  1  0.09803300  0.48283700  0.06116900  1
  C  277  1  0.09362000  0.51349300  0.90111200  1
  C  281  1  0.18132200  0.51407600  0.94539700  1
  C  285  1  0.17476500  0.46194900  0.99683500  1
  C  287  1  0.01267300  0.52435800  0.95758800  1
  C  289  1  0.10020400  0.79236200  0.49953700  1
  C  290  1  0.07794500  0.75165700  0.46336800  1
  C  291  1  0.05812900  0.71871000  0.47460600  1
  C  292  1  0.05387200  0.73121800  0.52268200  1
  C  293  1  0.06459000  0.77763100  0.55872400  1
  C  294  1  0.09264900  0.80637600  0.54773100  1
  C  295  1  0.04316900  0.67059600  0.43745200  1
  C  299  1  0.07895700  0.74173400  0.41362900  1
  C  303  1  0.04928200  0.79347000  0.60795700  1
  C  307  1  0.11534500  0.84943200  0.58607600  1
  C  311  1  0.13840800  0.80857200  0.48619300  1
  C  313  1  0.05841500  0.69680300  0.53519600  1
  C  315  1  0.77091000  0.71072900  0.21397900  1
  C  316  1  0.74782700  0.71494100  0.25429100  1
  C  317  1  0.72743800  0.75874600  0.28673200  1
  C  318  1  0.72341500  0.79407400  0.27393700  1
  C  319  1  0.73516800  0.78383100  0.22774300  1
  C  320  1  0.76388800  0.74477100  0.19980700  1
  C  321  1  0.71158100  0.76957500  0.33460900  1
  C  325  1  0.74840400  0.67521600  0.26435600  1
  C  329  1  0.72043700  0.81685900  0.21145800  1
  C  333  1  0.78781700  0.74066200  0.15744300  1
  C  337  1  0.80894800  0.68141500  0.19817100  1
  C  339  1  0.72725800  0.84113800  0.30827900  1
  C  341  1  0.43525600  0.50395500  0.29450300  1
  C  342  1  0.41365400  0.54040000  0.29016800  1
  C  343  1  0.39414900  0.52942100  0.24617200  1
  C  344  1  0.38941900  0.48136200  0.21073800  1
  C  345  1  0.39948800  0.44515700  0.22089600  1
  C  346  1  0.42733000  0.45585900  0.26035000  1
  C  347  1  0.37993800  0.56676600  0.23536100  1
  C  351  1  0.41497300  0.59010800  0.33002700  1
  C  355  1  0.38408200  0.39603600  0.18741400  1
  C  359  1  0.44950000  0.41730500  0.26482900  1
  C  363  1  0.47335100  0.51693200  0.32368200  1
  C  365  1  0.39417900  0.46898600  0.16382500  1
  C  367  1  0.60104900  0.21238900  0.50339200  1
  C  368  1  0.57867800  0.25245400  0.54024900  1
  C  369  1  0.55764500  0.28513200  0.52976500  1
  C  370  1  0.55255000  0.27279200  0.48188200  1
  C  371  1  0.56372400  0.22686000  0.44528100  1
  C  372  1  0.59273400  0.19854100  0.45542900  1
  C  373  1  0.54214300  0.33271800  0.56742500  1
  C  377  1  0.58076300  0.26206700  0.58983800  1
  C  381  1  0.54795000  0.21125700  0.39639300  1
  C  385  1  0.61566200  0.15615300  0.41647500  1
  C  389  1  0.63985300  0.19664600  0.51566200  1
  C  391  1  0.55697400  0.30762400  0.46983000  1
  C  393  1  0.26981700  0.29456100  0.79233100  1
  C  394  1  0.24768700  0.29052700  0.75192500  1
  C  395  1  0.22728900  0.24675000  0.71918800  1
  C  396  1  0.22240500  0.21121800  0.73168500  1
  C  397  1  0.23306800  0.22130900  0.77795000  1
  C  398  1  0.26162800  0.26050400  0.80640100  1
  C  399  1  0.21237600  0.23612200  0.67126900  1
  C  403  1  0.24942900  0.33037900  0.74207500  1
  C  407  1  0.21732800  0.18802600  0.79381600  1
  C  411  1  0.28418800  0.26479600  0.84919900  1
  C  415  1  0.30843400  0.32334800  0.80813100  1
  C  417  1  0.22662100  0.16426600  0.69719700  1
  C  419  1  0.93336300  0.49794300  0.70870500  1
  C  420  1  0.91086400  0.46196900  0.71362600  1
  C  421  1  0.89208400  0.47326400  0.75819400  1
  C  422  1  0.88894000  0.52133200  0.79392500  1
  C  423  1  0.89983400  0.55738700  0.78354200  1
  C  424  1  0.92695700  0.54616000  0.74320400  1
  C  425  1  0.87705600  0.43619900  0.76936900  1
  C  429  1  0.91049100  0.41231600  0.67363100  1
  C  433  1  0.88589300  0.60682000  0.81752100  1
  C  437  1  0.94994100  0.58424100  0.73804800  1
  C  441  1  0.97097600  0.48412400  0.67848300  1
  C  443  1  0.89422900  0.53362300  0.84070000  1
  N  19  1  0.13635300  0.55411700  0.53122500  1
  N  20  1  0.03129300  0.66178700  0.52391600  1
  N  21  1  0.98105600  0.49303500  0.64576000  1
  N  22  1  0.86195000  0.52413100  0.56907900  1
  N  41  1  0.80390500  0.98090300  0.45088600  1
  N  42  1  0.69947600  0.86448700  0.34269200  1
  N  43  1  0.65045500  0.15516500  0.50646100  1
  N  44  1  0.53097300  0.04701600  0.47869300  1
  N  63  1  0.47321800  0.47147200  0.02418800  1
  N  64  1  0.36709500  0.47996100  0.14014600  1
  N  65  1  0.31895000  0.35586200  0.84959000  1
  N  66  1  0.19976400  0.43569600  0.95777900  1
  N  85  1  0.63510300  0.45047200  0.47365100  1
  N  86  1  0.52950700  0.34213700  0.48116600  1
  N  87  1  0.48316200  0.50787500  0.35621700  1
  N  88  1  0.36278000  0.47974700  0.43548100  1
  N  107  1  0.30436800  0.02483700  0.55464600  1
  N  108  1  0.19934500  0.14074300  0.66251000  1
  N  109  1  0.14885600  0.85016200  0.49527100  1
  N  110  1  0.03032800  0.95851200  0.52525700  1
  N  129  1  0.97237000  0.53117000  0.97989900  1
  N  130  1  0.86670000  0.52360200  0.86516800  1
  N  131  1  0.81929000  0.64880800  0.15664200  1
  N  132  1  0.69934400  0.57141700  0.04928200  1
