# generated using pymatgen
data_Ni3H19C36O13
_symmetry_space_group_name_H-M   'P 1'
_cell_length_a   10.25513000
_cell_length_b   11.48369146
_cell_length_c   67.61320000
_cell_angle_alpha   89.00685599
_cell_angle_beta   89.49079000
_cell_angle_gamma   68.45533271
_symmetry_Int_Tables_number   1
_chemical_formula_structural   Ni3H19C36O13
_chemical_formula_sum   'Ni18 H114 C216 O78'
_cell_volume   7405.11343273
_cell_formula_units_Z   6
loop_
 _symmetry_equiv_pos_site_id
 _symmetry_equiv_pos_as_xyz
  1  'x, y, z'
loop_
 _atom_site_type_symbol
 _atom_site_label
 _atom_site_symmetry_multiplicity
 _atom_site_fract_x
 _atom_site_fract_y
 _atom_site_fract_z
 _atom_site_occupancy
  Ni  Ni0  1  0.29693000  0.84887000  0.30246000  1
  Ni  Ni1  1  0.95487000  0.91946000  0.30031000  1
  Ni  Ni2  1  0.84670000  0.83629000  0.59366000  1
  Ni  Ni3  1  0.49343000  0.52183000  0.99720000  1
  Ni  Ni4  1  0.74535000  0.13046000  0.77998000  1
  Ni  Ni5  1  0.59668000  0.76179000  0.57186000  1
  Ni  Ni6  1  0.92377000  0.65904000  0.55548000  1
  Ni  Ni7  1  0.79447000  0.46483000  0.97654000  1
  Ni  Ni8  1  0.76288000  0.29872000  0.01429000  1
  Ni  Ni9  1  0.43315000  0.15623000  0.07070000  1
  Ni  Ni10  1  0.29521000  0.34085000  0.52157000  1
  Ni  Ni11  1  0.50480000  0.47082000  0.53992000  1
  Ni  Ni12  1  0.21581000  0.02656000  0.05417000  1
  Ni  Ni13  1  0.42882000  0.89795000  0.09032000  1
  Ni  Ni14  1  0.62524000  0.26869000  0.50572000  1
  Ni  Ni15  1  0.07543000  0.13880000  0.29467000  1
  Ni  Ni16  1  0.56192000  0.42640000  0.79036000  1
  Ni  Ni17  1  0.90379000  0.32552000  0.78009000  1
  H  H18  1  0.12202000  0.94767000  0.28158000  1
  H  H19  1  0.74764000  0.84321000  0.56384000  1
  H  H20  1  0.80522000  0.05856000  0.87997000  1
  H  H21  1  0.82279000  0.10359000  0.84453000  1
  H  H22  1  0.50538000  0.50511000  0.88587000  1
  H  H23  1  0.13954000  0.73295000  0.91818000  1
  H  H24  1  0.04096000  0.74412000  0.84139000  1
  H  H25  1  0.95149000  0.87772000  0.81191000  1
  H  H26  1  0.21032000  0.08878000  0.82569000  1
  H  H27  1  0.29529000  0.95761000  0.85561000  1
  H  H28  1  0.31416000  0.11221000  0.76788000  1
  H  H29  1  0.25816000  0.00614000  0.73960000  1
  H  H30  1  0.31998000  0.27776000  0.69982000  1
  H  H31  1  0.37899000  0.38183000  0.72796000  1
  H  H32  1  0.23723000  0.91387000  0.65758000  1
  H  H33  1  0.57593000  0.13113000  0.62366000  1
  H  H34  1  0.40298000  0.21051000  0.65051000  1
  H  H35  1  0.09388000  0.13258000  0.61616000  1
  H  H36  1  0.26611000  0.04970000  0.58959000  1
  H  H37  1  0.96528000  0.03787000  0.68040000  1
  H  H38  1  0.88632000  0.02529000  0.71473000  1
  H  H39  1  0.01366000  0.38562000  0.69325000  1
  H  H40  1  0.93016000  0.02377000  0.52994000  1
  H  H41  1  0.04588000  0.98849000  0.36050000  1
  H  H42  1  0.03669000  0.97319000  0.39692000  1
  H  H43  1  0.53670000  0.46007000  0.07076000  1
  H  H44  1  0.34064000  0.47741000  0.27090000  1
  H  H45  1  0.36165000  0.83940000  0.24093000  1
  H  H46  1  0.70831000  0.50871000  0.00751000  1
  H  H47  1  0.70450000  0.04307000  0.94981000  1
  H  H48  1  0.72676000  0.89356000  0.97755000  1
  H  H49  1  0.62277000  0.41390000  0.91728000  1
  H  H50  1  0.64214000  0.84984000  0.68276000  1
  H  H51  1  0.34971000  0.83368000  0.62555000  1
  H  H52  1  0.28801000  0.80693000  0.45771000  1
  H  H53  1  0.06293000  0.80193000  0.23928000  1
  H  H54  1  0.39247000  0.35874000  0.23976000  1
  H  H55  1  0.34910000  0.75150000  0.49263000  1
  H  H56  1  0.25465000  0.63896000  0.94954000  1
  H  H57  1  0.75534000  0.76262000  0.65149000  1
  H  H58  1  0.12390000  0.59446000  0.35651000  1
  H  H59  1  0.22721000  0.49542000  0.61169000  1
  H  H60  1  0.32185000  0.23946000  0.99424000  1
  H  H61  1  0.10709000  0.58054000  0.39294000  1
  H  H62  1  0.94804000  0.67327000  0.46302000  1
  H  H63  1  0.00928000  0.61626000  0.49801000  1
  H  H64  1  0.11887000  0.50276000  0.05132000  1
  H  H65  1  0.21808000  0.48803000  0.15262000  1
  H  H66  1  0.25091000  0.37804000  0.12086000  1
  H  H67  1  0.77486000  0.94144000  0.24848000  1
  H  H68  1  0.11292000  0.68265000  0.20832000  1
  H  H69  1  0.53577000  0.80774000  0.50507000  1
  H  H70  1  0.16556000  0.21878000  0.96941000  1
  H  H71  1  0.21835000  0.22696000  0.93390000  1
  H  H72  1  0.99393000  0.42853000  0.60531000  1
  H  H73  1  0.94529000  0.44185000  0.64106000  1
  H  H74  1  0.67856000  0.62252000  0.48216000  1
  H  H75  1  0.22345000  0.31771000  0.58816000  1
  H  H76  1  0.14926000  0.47416000  0.01270000  1
  H  H77  1  0.16433000  0.23997000  0.85725000  1
  H  H78  1  0.81454000  0.63065000  0.69604000  1
  H  H79  1  0.46816000  0.99161000  0.00009000  1
  H  H80  1  0.06176000  0.34885000  0.82612000  1
  H  H81  1  0.20573000  0.32834000  0.45205000  1
  H  H82  1  0.02159000  0.22658000  0.10833000  1
  H  H83  1  0.39507000  0.79746000  0.95245000  1
  H  H84  1  0.38857000  0.93172000  0.92347000  1
  H  H85  1  0.53095000  0.92804000  0.34454000  1
  H  H86  1  0.27471000  0.09290000  0.08281000  1
  H  H87  1  0.50444000  0.27698000  0.53414000  1
  H  H88  1  0.70174000  0.32167000  0.76692000  1
  H  H89  1  0.37527000  0.30349000  0.84228000  1
  H  H90  1  0.35902000  0.26139000  0.87801000  1
  H  H91  1  0.75393000  0.36205000  0.88376000  1
  H  H92  1  0.64922000  0.46530000  0.85243000  1
  H  H93  1  0.99906000  0.98004000  0.92212000  1
  H  H94  1  0.94947000  0.97159000  0.95785000  1
  H  H95  1  0.81340000  0.65224000  0.73226000  1
  H  H96  1  0.47349000  0.49781000  0.70076000  1
  H  H97  1  0.46877000  0.52543000  0.73706000  1
  H  H98  1  0.52304000  0.46681000  0.62985000  1
  H  H99  1  0.56947000  0.46114000  0.59390000  1
  H  H100  1  0.94392000  0.36927000  0.72771000  1
  H  H101  1  0.82825000  0.14049000  0.57223000  1
  H  H102  1  0.22585000  0.35708000  0.41605000  1
  H  H103  1  0.49999000  0.55744000  0.42639000  1
  H  H104  1  0.48470000  0.52439000  0.46227000  1
  H  H105  1  0.69071000  0.46230000  0.36921000  1
  H  H106  1  0.85564000  0.34696000  0.34319000  1
  H  H107  1  0.58321000  0.14970000  0.32938000  1
  H  H108  1  0.41664000  0.26806000  0.35502000  1
  H  H109  1  0.70406000  0.95897000  0.48308000  1
  H  H110  1  0.67960000  0.93378000  0.44732000  1
  H  H111  1  0.23138000  0.05907000  0.45415000  1
  H  H112  1  0.25490000  0.08202000  0.48987000  1
  H  H113  1  0.18053000  0.18192000  0.39318000  1
  H  H114  1  0.12057000  0.20045000  0.35784000  1
  H  H115  1  0.58950000  0.91006000  0.38001000  1
  H  H116  1  0.26553000  0.61323000  0.05842000  1
  H  H117  1  0.70650000  0.94233000  0.21359000  1
  H  H118  1  0.79618000  0.27574000  0.20241000  1
  H  H119  1  0.86087000  0.27752000  0.23739000  1
  H  H120  1  0.76517000  0.85187000  0.15291000  1
  H  H121  1  0.76997000  0.79608000  0.11792000  1
  H  H122  1  0.69850000  0.17810000  0.10071000  1
  H  H123  1  0.69327000  0.23355000  0.13595000  1
  H  H124  1  0.43165000  0.02365000  0.15188000  1
  H  H125  1  0.40553000  0.13471000  0.18344000  1
  H  H126  1  0.06288000  0.84875000  0.12344000  1
  H  H127  1  0.06724000  0.89462000  0.15867000  1
  H  H128  1  0.01489000  0.27523000  0.14390000  1
  H  H129  1  0.12025000  0.27489000  0.21600000  1
  H  H130  1  0.21831000  0.23860000  0.24973000  1
  H  H131  1  0.26480000  0.87686000  0.20733000  1
  C  C132  1  0.15775000  0.71739000  0.27600000  1
  C  C133  1  0.12507000  0.79642000  0.33498000  1
  C  C134  1  0.54469000  0.00661000  0.59097000  1
  C  C135  1  0.93966000  0.91169000  0.55480000  1
  C  C136  1  0.59561000  0.72563000  0.98070000  1
  C  C137  1  0.54626000  0.49057000  0.04021000  1
  C  C138  1  0.60915000  0.21314000  0.81897000  1
  C  C139  1  0.45822000  0.26949000  0.76406000  1
  C  C140  1  0.00918000  0.08105000  0.80036000  1
  C  C141  1  0.89192000  0.17727000  0.74490000  1
  C  C142  1  0.56550000  0.83178000  0.96662000  1
  C  C143  1  0.46377000  0.84989000  0.95192000  1
  C  C144  1  0.45809000  0.92793000  0.93564000  1
  C  C145  1  0.54706000  0.99557000  0.93458000  1
  C  C146  1  0.63850000  0.98802000  0.95026000  1
  C  C147  1  0.65027000  0.90407000  0.96604000  1
  C  C148  1  0.55993000  0.05588000  0.91622000  1
  C  C149  1  0.56745000  0.10502000  0.90057000  1
  C  C150  1  0.58060000  0.15457000  0.88127000  1
  C  C151  1  0.71135000  0.11287000  0.87182000  1
  C  C152  1  0.72100000  0.13666000  0.85165000  1
  C  C153  1  0.59961000  0.20213000  0.84069000  1
  C  C154  1  0.45016000  0.53361000  0.89975000  1
  C  C155  1  0.31700000  0.62848000  0.90002000  1
  C  C156  1  0.24377000  0.66126000  0.91791000  1
  C  C157  1  0.26513000  0.70385000  0.88260000  1
  C  C158  1  0.22243000  0.76655000  0.86794000  1
  C  C159  1  0.17323000  0.84252000  0.85050000  1
  C  C160  1  0.07777000  0.81945000  0.83800000  1
  C  C161  1  0.02803000  0.89456000  0.82121000  1
  C  C162  1  0.07314000  0.99393000  0.81684000  1
  C  C163  1  0.17203000  0.01450000  0.82913000  1
  C  C164  1  0.22088000  0.93970000  0.84600000  1
  C  C165  1  0.36307000  0.24769000  0.74965000  1
  C  C166  1  0.31420000  0.14954000  0.75306000  1
  C  C167  1  0.28127000  0.09000000  0.73705000  1
  C  C168  1  0.29567000  0.12952000  0.71774000  1
  C  C169  1  0.31595000  0.24274000  0.71472000  1
  C  C170  1  0.35002000  0.30173000  0.73068000  1
  C  C171  1  0.33398000  0.03956000  0.70221000  1
  C  C172  1  0.36958000  0.97023000  0.68841000  1
  C  C173  1  0.43226000  0.89036000  0.67213000  1
  C  C174  1  0.35036000  0.88024000  0.65624000  1
  C  C175  1  0.43496000  0.08158000  0.60485000  1
  C  C176  1  0.47057000  0.13260000  0.62179000  1
  C  C177  1  0.37216000  0.17850000  0.63697000  1
  C  C178  1  0.23759000  0.17472000  0.63523000  1
  C  C179  1  0.19841000  0.13395000  0.61771000  1
  C  C180  1  0.29669000  0.08608000  0.60270000  1
  C  C181  1  0.15026000  0.18980000  0.65244000  1
  C  C182  1  0.07691000  0.20241000  0.66684000  1
  C  C183  1  0.99621000  0.21212000  0.68461000  1
  C  C184  1  0.95548000  0.11274000  0.69054000  1
  C  C185  1  0.91149000  0.10524000  0.71001000  1
  C  C186  1  0.90995000  0.19636000  0.72366000  1
  C  C187  1  0.94208000  0.29968000  0.71727000  1
  C  C188  1  0.98272000  0.30842000  0.69774000  1
  C  C189  1  0.91694000  0.02170000  0.54590000  1
  C  C190  1  0.08697000  0.79237000  0.35598000  1
  C  C191  1  0.05867000  0.89945000  0.36751000  1
  C  C192  1  0.05288000  0.89087000  0.38816000  1
  C  C193  1  0.49600000  0.52440000  0.05837000  1
  C  C194  1  0.19639000  0.64757000  0.25734000  1
  C  C195  1  0.29148000  0.52284000  0.25728000  1
  C  C196  1  0.52993000  0.49832000  0.95386000  1
  C  C197  1  0.44844000  0.52353000  0.93557000  1
  C  C198  1  0.51631000  0.48173000  0.91751000  1
  C  C199  1  0.30881000  0.60774000  0.93566000  1
  C  C200  1  0.57822000  0.84310000  0.67047000  1
  C  C201  1  0.64211000  0.79632000  0.65258000  1
  C  C202  1  0.56027000  0.79823000  0.63594000  1
  C  C203  1  0.41420000  0.83460000  0.63810000  1
  C  C204  1  0.07327000  0.77547000  0.39746000  1
  C  C205  1  0.10130000  0.67792000  0.36523000  1
  C  C206  1  0.13391000  0.70499000  0.23951000  1
  C  C207  1  0.32042000  0.45535000  0.23963000  1
  C  C208  1  0.62616000  0.77672000  0.61617000  1
  C  C209  1  0.09340000  0.66974000  0.38592000  1
  C  C210  1  0.08600000  0.76339000  0.41880000  1
  C  C211  1  0.09646000  0.75435000  0.43663000  1
  C  C212  1  0.22479000  0.76843000  0.46660000  1
  C  C213  1  0.26070000  0.73526000  0.48641000  1
  C  C214  1  0.10561000  0.61369000  0.58947000  1
  C  C215  1  0.16286000  0.63756000  0.22193000  1
  C  C216  1  0.25457000  0.51213000  0.22197000  1
  C  C217  1  0.11542000  0.74211000  0.45788000  1
  C  C218  1  0.18844000  0.67386000  0.49765000  1
  C  C219  1  0.50595000  0.26263000  0.00231000  1
  C  C220  1  0.67309000  0.73051000  0.52850000  1
  C  C221  1  0.27728000  0.44092000  0.20398000  1
  C  C222  1  0.98343000  0.40850000  0.01361000  1
  C  C223  1  0.20731000  0.50856000  0.59590000  1
  C  C224  1  0.03471000  0.69157000  0.46952000  1
  C  C225  1  0.06995000  0.65882000  0.48939000  1
  C  C226  1  0.42900000  0.19294000  0.99928000  1
  C  C227  1  0.24845000  0.60933000  0.51665000  1
  C  C228  1  0.62780000  0.73034000  0.50993000  1
  C  C229  1  0.25363000  0.39468000  0.58345000  1
  C  C230  1  0.11321000  0.42296000  0.04354000  1
  C  C231  1  0.08575000  0.43716000  0.02191000  1
  C  C232  1  0.29389000  0.38413000  0.18868000  1
  C  C233  1  0.26589000  0.38676000  0.15247000  1
  C  C234  1  0.28417000  0.32428000  0.13446000  1
  C  C235  1  0.43711000  0.06420000  0.02855000  1
  C  C236  1  0.16658000  0.30924000  0.05218000  1
  C  C237  1  0.30497000  0.39412000  0.56512000  1
  C  C238  1  0.79181000  0.50192000  0.57646000  1
  C  C239  1  0.91567000  0.19098000  0.97716000  1
  C  C240  1  0.89075000  0.43869000  0.61049000  1
  C  C241  1  0.67056000  0.61395000  0.49811000  1
  C  C242  1  0.46365000  0.06978000  0.00920000  1
  C  C243  1  0.31074000  0.31892000  0.17016000  1
  C  C244  1  0.13292000  0.16314000  0.95923000  1
  C  C245  1  0.16155000  0.16905000  0.93903000  1
  C  C246  1  0.78183000  0.45590000  0.59695000  1
  C  C247  1  0.86380000  0.44356000  0.63084000  1
  C  C248  1  0.34679000  0.19299000  0.13398000  1
  C  C249  1  0.37037000  0.18791000  0.16983000  1
  C  C250  1  0.36160000  0.63004000  0.06077000  1
  C  C251  1  0.38452000  0.12889000  0.11472000  1
  C  C252  1  0.65894000  0.50988000  0.50582000  1
  C  C253  1  0.03427000  0.11144000  0.96531000  1
  C  C254  1  0.72975000  0.45869000  0.63790000  1
  C  C255  1  0.38541000  0.12492000  0.15188000  1
  C  C256  1  0.46032000  0.22735000  0.87072000  1
  C  C257  1  0.46959000  0.25109000  0.85045000  1
  C  C258  1  0.11806000  0.98772000  0.09464000  1
  C  C259  1  0.35631000  0.74773000  0.06131000  1
  C  C260  1  0.67645000  0.96083000  0.08723000  1
  C  C261  1  0.48965000  0.08612000  0.50808000  1
  C  C262  1  0.37960000  0.36334000  0.47933000  1
  C  C263  1  0.75309000  0.23936000  0.54581000  1
  C  C264  1  0.27821000  0.06306000  0.32785000  1
  C  C265  1  0.32181000  0.01375000  0.26936000  1
  C  C266  1  0.83896000  0.15766000  0.32147000  1
  C  C267  1  0.88850000  0.09562000  0.26517000  1
  C  C268  1  0.69253000  0.53455000  0.75762000  1
  C  C269  1  0.78254000  0.44888000  0.81691000  1
  C  C270  1  0.84712000  0.41010000  0.83669000  1
  C  C271  1  0.99361000  0.35114000  0.83855000  1
  C  C272  1  0.05218000  0.29012000  0.85627000  1
  C  C273  1  0.96557000  0.29134000  0.87244000  1
  C  C274  1  0.82110000  0.35895000  0.87118000  1
  C  C275  1  0.76184000  0.41779000  0.85339000  1
  C  C276  1  0.02390000  0.22365000  0.89044000  1
  C  C277  1  0.06433000  0.16979000  0.90600000  1
  C  C278  1  0.10094000  0.11341000  0.92539000  1
  C  C279  1  0.03868000  0.03031000  0.93242000  1
  C  C280  1  0.01001000  0.02599000  0.95267000  1
  C  C281  1  0.64827000  0.58032000  0.73730000  1
  C  C282  1  0.73659000  0.62149000  0.72544000  1
  C  C283  1  0.73805000  0.60826000  0.70489000  1
  C  C284  1  0.64878000  0.55688000  0.69603000  1
  C  C285  1  0.54694000  0.53271000  0.70756000  1
  C  C286  1  0.54461000  0.54763000  0.72814000  1
  C  C287  1  0.67068000  0.51911000  0.67557000  1
  C  C288  1  0.69475000  0.48980000  0.65842000  1
  C  C289  1  0.62612000  0.45824000  0.62453000  1
  C  C290  1  0.65269000  0.45487000  0.60411000  1
  C  C291  1  0.83631000  0.14028000  0.55618000  1
  C  C292  1  0.34831000  0.42015000  0.45957000  1
  C  C293  1  0.26741000  0.38099000  0.44653000  1
  C  C294  1  0.27845000  0.39763000  0.42614000  1
  C  C295  1  0.36943000  0.45426000  0.41881000  1
  C  C296  1  0.43342000  0.50952000  0.43195000  1
  C  C297  1  0.42506000  0.49055000  0.45227000  1
  C  C298  1  0.42516000  0.42683000  0.39919000  1
  C  C299  1  0.47447000  0.40542000  0.38285000  1
  C  C300  1  0.54432000  0.37034000  0.36420000  1
  C  C301  1  0.66534000  0.39635000  0.36021000  1
  C  C302  1  0.75937000  0.33019000  0.34562000  1
  C  C303  1  0.73288000  0.23748000  0.33501000  1
  C  C304  1  0.60649000  0.21857000  0.33794000  1
  C  C305  1  0.51171000  0.28611000  0.35234000  1
  C  C306  1  0.48025000  0.03146000  0.48877000  1
  C  C307  1  0.60064000  0.98051000  0.47688000  1
  C  C308  1  0.58694000  0.96573000  0.45663000  1
  C  C309  1  0.45340000  0.99975000  0.44828000  1
  C  C310  1  0.33474000  0.03604000  0.46048000  1
  C  C311  1  0.34818000  0.04956000  0.48072000  1
  C  C312  1  0.43641000  0.01267000  0.42724000  1
  C  C313  1  0.41707000  0.02502000  0.40970000  1
  C  C314  1  0.38796000  0.04323000  0.38894000  1
  C  C315  1  0.25725000  0.12695000  0.38256000  1
  C  C316  1  0.22344000  0.13747000  0.36251000  1
  C  C317  1  0.32033000  0.06360000  0.34864000  1
  C  C318  1  0.45385000  0.98360000  0.35505000  1
  C  C319  1  0.48731000  0.97357000  0.37515000  1
  C  C320  1  0.82620000  0.10751000  0.24530000  1
  C  C321  1  0.77711000  0.01602000  0.23861000  1
  C  C322  1  0.73858000  0.01639000  0.21882000  1
  C  C323  1  0.74905000  0.10792000  0.20560000  1
  C  C324  1  0.78880000  0.20415000  0.21253000  1
  C  C325  1  0.82685000  0.20433000  0.23232000  1
  C  C326  1  0.73839000  0.09275000  0.18469000  1
  C  C327  1  0.72871000  0.07638000  0.16730000  1
  C  C328  1  0.72352000  0.04727000  0.14680000  1
  C  C329  1  0.74800000  0.92376000  0.14156000  1
  C  C330  1  0.75232000  0.89197000  0.12171000  1
  C  C331  1  0.72438000  0.98492000  0.10681000  1
  C  C332  1  0.71229000  0.10666000  0.11202000  1
  C  C333  1  0.70790000  0.13852000  0.13201000  1
  C  C334  1  0.04763000  0.03276000  0.11340000  1
  C  C335  1  0.04969000  0.94281000  0.12780000  1
  C  C336  1  0.05316000  0.96846000  0.14775000  1
  C  C337  1  0.04563000  0.08675000  0.15361000  1
  C  C338  1  0.02320000  0.18262000  0.13943000  1
  C  C339  1  0.02483000  0.15555000  0.11927000  1
  C  C340  1  0.08793000  0.10044000  0.17327000  1
  C  C341  1  0.12721000  0.09757000  0.19002000  1
  C  C342  1  0.18410000  0.07823000  0.20960000  1
  C  C343  1  0.17407000  0.17999000  0.22140000  1
  C  C344  1  0.22997000  0.15924000  0.24050000  1
  C  C345  1  0.29380000  0.03618000  0.24799000  1
  C  C346  1  0.31051000  0.93478000  0.23559000  1
  C  C347  1  0.25474000  0.95591000  0.21657000  1
  O  O348  1  0.25440000  0.70076000  0.28987000  1
  O  O349  1  0.02331000  0.78493000  0.27941000  1
  O  O350  1  0.24839000  0.79960000  0.33048000  1
  O  O351  1  0.04337000  0.78293000  0.32101000  1
  O  O352  1  0.50808000  0.95307000  0.57607000  1
  O  O353  1  0.67592000  0.00057000  0.59275000  1
  O  O354  1  0.95948000  0.90087000  0.57439000  1
  O  O355  1  0.94645000  0.81380000  0.54376000  1
  O  O356  1  0.72781000  0.65201000  0.98372000  1
  O  O357  1  0.48906000  0.69307000  0.98680000  1
  O  O358  1  0.49509000  0.57183000  0.02534000  1
  O  O359  1  0.95007000  0.04471000  0.78587000  1
  O  O360  1  0.70814000  0.12408000  0.80941000  1
  O  O361  1  0.79853000  0.12855000  0.75104000  1
  O  O362  1  0.53757000  0.17395000  0.77501000  1
  O  O363  1  0.11484000  0.96241000  0.29589000  1
  O  O364  1  0.77826000  0.76768000  0.57230000  1
  O  O365  1  0.64178000  0.52791000  0.95468000  1
  O  O366  1  0.48207000  0.45946000  0.96966000  1
  O  O367  1  0.62813000  0.37090000  0.03728000  1
  O  O368  1  0.44151000  0.37960000  0.00744000  1
  O  O369  1  0.69111000  0.44913000  0.99855000  1
  O  O370  1  0.09481000  0.64171000  0.57073000  1
  O  O371  1  0.75912000  0.76186000  0.61489000  1
  O  O372  1  0.02114000  0.69101000  0.60207000  1
  O  O373  1  0.56633000  0.73729000  0.60195000  1
  O  O374  1  0.58335000  0.79954000  0.54160000  1
  O  O375  1  0.79275000  0.64316000  0.53412000  1
  O  O376  1  0.64330000  0.20902000  0.00368000  1
  O  O377  1  0.90328000  0.36667000  0.02505000  1
  O  O378  1  0.97799000  0.40588000  0.99389000  1
  O  O379  1  0.44684000  0.15226000  0.04037000  1
  O  O380  1  0.24286000  0.29443000  0.06820000  1
  O  O381  1  0.36827000  0.61243000  0.52317000  1
  O  O382  1  0.67584000  0.57076000  0.56736000  1
  O  O383  1  0.91266000  0.50489000  0.56997000  1
  O  O384  1  0.82261000  0.28574000  0.96823000  1
  O  O385  1  0.42457000  0.18937000  0.10020000  1
  O  O386  1  0.14706000  0.21319000  0.04394000  1
  O  O387  1  0.19540000  0.53238000  0.52503000  1
  O  O388  1  0.28660000  0.31671000  0.55211000  1
  O  O389  1  0.92413000  0.18978000  0.99656000  1
  O  O390  1  0.63732000  0.04975000  0.07364000  1
  O  O391  1  0.66282000  0.49271000  0.52496000  1
  O  O392  1  0.34805000  0.48514000  0.55953000  1
  O  O393  1  0.51150000  0.30365000  0.80922000  1
  O  O394  1  0.97564000  0.20280000  0.75764000  1
  O  O395  1  0.87550000  0.03543000  0.32293000  1
  O  O396  1  0.36109000  0.98052000  0.31565000  1
  O  O397  1  0.83653000  0.04717000  0.27996000  1
  O  O398  1  0.07487000  0.05340000  0.07787000  1
  O  O399  1  0.23639000  0.88840000  0.09520000  1
  O  O400  1  0.38481000  0.98102000  0.03485000  1
  O  O401  1  0.41515000  0.00497000  0.11448000  1
  O  O402  1  0.23772000  0.83929000  0.05744000  1
  O  O403  1  0.46109000  0.77184000  0.06856000  1
  O  O404  1  0.63160000  0.86879000  0.08593000  1
  O  O405  1  0.34302000  0.03914000  0.07346000  1
  O  O406  1  0.37232000  0.14639000  0.51788000  1
  O  O407  1  0.60642000  0.10337000  0.51262000  1
  O  O408  1  0.77470000  0.24565000  0.52646000  1
  O  O409  1  0.27462000  0.36879000  0.49107000  1
  O  O410  1  0.50338000  0.27566000  0.48208000  1
  O  O411  1  0.65394000  0.33242000  0.55512000  1
  O  O412  1  0.64869000  0.42316000  0.49427000  1
  O  O413  1  0.47646000  0.34492000  0.52415000  1
  O  O414  1  0.88196000  0.20989000  0.30661000  1
  O  O415  1  0.15577000  0.14315000  0.32183000  1
  O  O416  1  0.98065000  0.14987000  0.26844000  1
  O  O417  1  0.37357000  0.89707000  0.27625000  1
  O  O418  1  0.26522000  0.10708000  0.28173000  1
  O  O419  1  0.59927000  0.56259000  0.77235000  1
  O  O420  1  0.82789000  0.47252000  0.76096000  1
  O  O421  1  0.64672000  0.48115000  0.81472000  1
  O  O422  1  0.86010000  0.45402000  0.80166000  1
  O  O423  1  0.44384000  0.38563000  0.76839000  1
  O  O424  1  0.00508000  0.19658000  0.80073000  1
  O  O425  1  0.72779000  0.30243000  0.78086000  1
