# generated using pymatgen
data_H9C14N2O5
_symmetry_space_group_name_H-M   'P 1'
_cell_length_a   20.44932500
_cell_length_b   20.44930000
_cell_length_c   34.56930000
_cell_angle_alpha   90.00000000
_cell_angle_beta   90.00000000
_cell_angle_gamma   119.99987868
_symmetry_Int_Tables_number   1
_chemical_formula_structural   H9C14N2O5
_chemical_formula_sum   'H54 C84 N12 O30'
_cell_volume   12519.27477865
_cell_formula_units_Z   6
loop_
 _symmetry_equiv_pos_site_id
 _symmetry_equiv_pos_as_xyz
  1  'x, y, z'
loop_
 _atom_site_type_symbol
 _atom_site_label
 _atom_site_symmetry_multiplicity
 _atom_site_fract_x
 _atom_site_fract_y
 _atom_site_fract_z
 _atom_site_occupancy
  C  1  1  0.43174000  0.46742400  0.01301400  1
  C  2  1  0.38640400  0.48962300  0.03422100  1
  C  3  1  0.38622900  0.49223200  0.07500500  1
  C  4  1  0.42400900  0.46098100  0.09566500  1
  C  5  1  0.46809650  0.43586050  0.07587000  1
  C  6  1  0.47620050  0.44570250  0.03541800  1
  C  9  1  0.42965450  0.46334550  0.97098100  1
  C  10  1  0.40529200  0.50461400  0.94771400  1
  C  11  1  0.39554500  0.49511000  0.90720400  1
  C  12  1  0.41689800  0.44706000  0.88847300  1
  C  13  1  0.44389150  0.40715550  0.91017800  1
  C  14  1  0.44809700  0.41413900  0.95080600  1
  C  25  1  0.91324150  0.42721550  0.34631600  1
  C  26  1  0.98074700  0.47261400  0.36752800  1
  C  27  1  0.98349050  0.47285450  0.40831300  1
  C  28  1  0.91443950  0.43507450  0.42895800  1
  C  29  1  0.84525850  0.39090250  0.40915200  1
  C  30  1  0.84704900  0.38274300  0.36870800  1
  C  33  1  0.91128000  0.42925500  0.30428100  1
  C  34  1  0.97693050  0.45362450  0.28102600  1
  C  35  1  0.97719100  0.46333700  0.24051400  1
  C  36  1  0.90779300  0.44194100  0.22176600  1
  C  37  1  0.84087750  0.41495150  0.24345800  1
  C  38  1  0.84363450  0.41077750  0.28409000  1
  C  49  1  0.39163400  0.94571400  0.67969800  1
  C  50  1  0.36946400  0.87818400  0.70090200  1
  C  51  1  0.36688600  0.87540400  0.74168600  1
  C  52  1  0.39813950  0.94443750  0.76234700  1
  C  53  1  0.42324050  0.01364450  0.74255000  1
  C  54  1  0.41337400  0.01189800  0.70210000  1
  C  57  1  0.39567050  0.94769150  0.63766400  1
  C  58  1  0.35436750  0.88204950  0.61440600  1
  C  59  1  0.36383700  0.88178500  0.57389300  1
  C  60  1  0.41188050  0.95117750  0.55515100  1
  C  61  1  0.45180900  0.01808500  0.57684700  1
  C  62  1  0.44485900  0.01533300  0.61747500  1
  C  73  1  0.50237800  0.27431300  0.86984500  1
  C  74  1  0.47784750  0.26969250  0.83088200  1
  C  75  1  0.47788100  0.21631400  0.80491400  1
  C  76  1  0.50378150  0.16689150  0.81688500  1
  C  77  1  0.53603300  0.17730700  0.85437900  1
  C  78  1  0.53357500  0.22874400  0.88073300  1
  C  87  1  0.49420900  0.31973100  0.89814800  1
  C  89  1  0.49217950  0.10395250  0.79471500  1
  C  91  1  0.64956950  0.35653150  0.20312500  1
  C  92  1  0.66948650  0.38110050  0.16416500  1
  C  93  1  0.61608400  0.38112200  0.13820900  1
  C  94  1  0.54077250  0.35526150  0.15019100  1
  C  95  1  0.51894300  0.32300800  0.18768600  1
  C  96  1  0.57280900  0.32535400  0.21401900  1
  C  105  1  0.70314650  0.36464250  0.23141900  1
  C  107  1  0.48945500  0.36691100  0.12803200  1
  C  109  1  0.58460200  0.20937800  0.53645800  1
  C  110  1  0.58928450  0.18940050  0.49751300  1
  C  111  1  0.64262800  0.24280600  0.47152800  1
  C  112  1  0.69199450  0.31815550  0.48347800  1
  C  113  1  0.68147100  0.34004700  0.52093300  1
  C  114  1  0.63006700  0.28617800  0.54730600  1
  C  123  1  0.53920900  0.15582200  0.56477800  1
  C  125  1  0.75488900  0.36950300  0.46128800  1
  C  127  1  0.32476950  0.58950450  0.83904600  1
  C  128  1  0.31587600  0.59586400  0.79867900  1
  C  129  1  0.31014000  0.65697600  0.78364000  1
  C  130  1  0.31017750  0.71188250  0.80870500  1
  C  131  1  0.30838100  0.69948800  0.84924700  1
  C  132  1  0.31713750  0.64008450  0.86422400  1
  C  141  1  0.34460000  0.53640800  0.85239900  1
  C  143  1  0.31855400  0.78073000  0.79502900  1
  C  145  1  0.14241150  0.53424050  0.17237500  1
  C  146  1  0.15769200  0.54321500  0.13201300  1
  C  147  1  0.22453800  0.54896200  0.11696700  1
  C  148  1  0.27944400  0.54897500  0.14202400  1
  C  149  1  0.26881950  0.55072050  0.18256900  1
  C  150  1  0.20064350  0.54191950  0.19754800  1
  C  159  1  0.06945750  0.51432050  0.18571900  1
  C  161  1  0.33990900  0.54059000  0.12834500  1
  C  163  1  0.26939000  0.71660300  0.50574300  1
  C  164  1  0.26305850  0.70136050  0.46537500  1
  C  165  1  0.20190000  0.63455500  0.45032400  1
  C  166  1  0.14695600  0.57967900  0.47537500  1
  C  167  1  0.15929250  0.59032050  0.51592000  1
  C  168  1  0.21875850  0.65841450  0.53091300  1
  C  177  1  0.32249050  0.78952850  0.51909600  1
  C  179  1  0.07810100  0.51924300  0.46168400  1
  H  7  1  0.35259600  0.50526700  0.02000000  1
  H  16  1  0.46233900  0.38005100  0.96565800  1
  H  17  1  0.37122950  0.41810950  0.14223000  1
  H  18  1  0.46264850  0.47937050  0.83937300  1
  H  19  1  0.51166150  0.43109550  0.02210450  1
  H  20  1  0.39307100  0.54242100  0.96034300  1
  H  31  1  0.03020750  0.50642150  0.35331300  1
  H  40  1  0.79529900  0.39654800  0.29893200  1
  H  41  1  0.92425750  0.48793250  0.47548200  1
  H  42  1  0.89440600  0.39614600  0.17268200  1
  H  43  1  0.79700550  0.34722250  0.35538700  1
  H  44  1  0.02695700  0.46588600  0.29367100  1
  H  55  1  0.35381550  0.82873150  0.68668100  1
  H  64  1  0.47896300  0.06367200  0.63231800  1
  H  65  1  0.44104750  0.93454050  0.80890100  1
  H  66  1  0.37950250  0.96458650  0.50606400  1
  H  67  1  0.42796400  0.06196300  0.68878400  1
  H  68  1  0.31656750  0.83203150  0.62704200  1
  H  80  1  0.49058350  0.24268750  0.75196100  1
  H  84  1  0.61657350  0.15752150  0.85936700  1
  H  85  1  0.49082200  0.35839200  0.80688000  1
  H  86  1  0.51998850  0.19356550  0.93244900  1
  H  88  1  0.50997750  0.31888650  0.92611600  1
  H  90  1  0.50980650  0.06953450  0.80630700  1
  H  98  1  0.62974100  0.36845200  0.08525100  1
  H  102  1  0.41863950  0.24239750  0.19264200  1
  H  103  1  0.74517250  0.36808150  0.14015300  1
  H  104  1  0.55121400  0.33886400  0.26574700  1
  H  106  1  0.68653150  0.34886250  0.25938600  1
  H  108  1  0.43742350  0.34931650  0.13963500  1
  H  116  1  0.61634300  0.22892700  0.41856800  1
  H  120  1  0.70111350  0.44033750  0.52583900  1
  H  121  1  0.50068850  0.11353850  0.47350100  1
  H  122  1  0.66518500  0.30795600  0.59902800  1
  H  124  1  0.54002550  0.17247650  0.59273700  1
  H  126  1  0.78924750  0.42159250  0.47285300  1
  H  134  1  0.25465200  0.64143900  0.73749600  1
  H  138  1  0.25406850  0.73297650  0.87968600  1
  H  139  1  0.26896550  0.50537150  0.76974100  1
  H  140  1  0.27055250  0.59997050  0.91238900  1
  H  142  1  0.34712550  0.50100550  0.83260100  1
  H  144  1  0.31639150  0.81645050  0.81479900  1
  H  152  1  0.26445550  0.60445350  0.07082000  1
  H  156  1  0.35661100  0.60503700  0.21301500  1
  H  157  1  0.11391400  0.58991200  0.10305600  1
  H  158  1  0.20703200  0.58834200  0.24575200  1
  H  160  1  0.03152950  0.51180850  0.16592700  1
  H  162  1  0.37779400  0.54275800  0.14811400  1
  H  170  1  0.21746350  0.59463950  0.40417600  1
  H  174  1  0.12585950  0.50252750  0.54636600  1
  H  175  1  0.35354250  0.74502750  0.43643000  1
  H  176  1  0.25875800  0.65194200  0.57911200  1
  H  178  1  0.35794200  0.82744000  0.49930700  1
  H  180  1  0.04235350  0.48137150  0.48145000  1
  N  21  1  0.46336300  0.36287100  0.88995500  1
  N  22  1  0.36660200  0.53405000  0.88909200  1
  N  23  1  0.50432350  0.40343850  0.09360900  1
  N  24  1  0.34520150  0.52043250  0.09163300  1
  N  45  1  0.77713300  0.39548500  0.22322700  1
  N  46  1  0.04509050  0.49231350  0.22241400  1
  N  47  1  0.77660150  0.35461750  0.42688400  1
  N  48  1  0.05270150  0.51391250  0.42495800  1
  N  69  1  0.49608100  0.08182700  0.55660900  1
  N  70  1  0.32486400  0.81389600  0.55578800  1
  N  71  1  0.45564700  0.08229100  0.76029300  1
  N  72  1  0.33869400  0.80617700  0.75831500  1
  O  8  1  0.42209900  0.45865900  0.13495700  1
  O  15  1  0.41396400  0.43899200  0.84930000  1
  O  32  1  0.91398550  0.43706150  0.46824800  1
  O  39  1  0.90266850  0.44482850  0.18259200  1
  O  56  1  0.40048650  0.94485050  0.80163600  1
  O  63  1  0.41990100  0.95629700  0.51597500  1
  O  79  1  0.44783500  0.21095900  0.76906700  1
  O  81  1  0.44819100  0.31209800  0.81758800  1
  O  82  1  0.56358750  0.13303950  0.86781200  1
  O  83  1  0.56166900  0.23265100  0.91702500  1
  O  97  1  0.64077700  0.41119100  0.10236800  1
  O  99  1  0.74154150  0.41072450  0.15086700  1
  O  100  1  0.44709200  0.29538400  0.20109100  1
  O  101  1  0.54860900  0.29720300  0.25030000  1
  O  115  1  0.64809700  0.21803400  0.43572400  1
  O  117  1  0.54698450  0.11729250  0.48426500  1
  O  118  1  0.72565450  0.41191650  0.53432600  1
  O  119  1  0.62607050  0.31042850  0.58357000  1
  O  133  1  0.30816400  0.66276600  0.74442250  1
  O  135  1  0.32060450  0.54819050  0.77268300  1
  O  136  1  0.30758600  0.74937000  0.87520200  1
  O  137  1  0.32187300  0.63599400  0.90339700  1
  O  151  1  0.23229950  0.55093650  0.07774800  1
  O  153  1  0.10523950  0.53832450  0.10600100  1
  O  154  1  0.31950350  0.55151750  0.20852000  1
  O  155  1  0.19178050  0.53705950  0.23672100  1
  O  169  1  0.19611900  0.62680700  0.41110700  1
  O  171  1  0.31067950  0.75378050  0.43937200  1
  O  172  1  0.10939350  0.53958750  0.54185300  1
  O  173  1  0.22276150  0.66724650  0.57008400  1
