# generated using pymatgen
data_Mn2H3CS(NO)5
_symmetry_space_group_name_H-M   'P 1'
_cell_length_a   6.73156000
_cell_length_b   10.03193000
_cell_length_c   15.53858000
_cell_angle_alpha   88.78923000
_cell_angle_beta   89.97882000
_cell_angle_gamma   89.99320000
_symmetry_Int_Tables_number   1
_chemical_formula_structural   Mn2H3CS(NO)5
_chemical_formula_sum   'Mn8 H12 C4 S4 N20 O20'
_cell_volume   1049.09431564
_cell_formula_units_Z   4
loop_
 _symmetry_equiv_pos_site_id
 _symmetry_equiv_pos_as_xyz
  1  'x, y, z'
loop_
 _atom_site_type_symbol
 _atom_site_label
 _atom_site_symmetry_multiplicity
 _atom_site_fract_x
 _atom_site_fract_y
 _atom_site_fract_z
 _atom_site_occupancy
  Mn  Mn1  1  0.24828000  0.87968000  0.18775000  1.0
  Mn  Mn2  1  0.75050000  0.63428000  0.68718000  1.0
  Mn  Mn3  1  0.75135000  0.12448000  0.81409000  1.0
  Mn  Mn4  1  0.24900000  0.36869000  0.31319000  1.0
  Mn  Mn5  1  0.49970000  0.49936000  0.50048000  1.0
  Mn  Mn6  1  0.49970000  0.00273000  0.00106000  1.0
  Mn  Mn7  1  0.99935000  0.50119000  0.50018000  1.0
  Mn  Mn8  1  0.99967000  0.00295000  0.00115000  1.0
  H  H1  1  0.87502000  0.72506000  0.31623000  1.0
  H  H2  1  0.12169000  0.79317000  0.82030000  1.0
  H  H3  1  0.37955000  0.27278000  0.68410000  1.0
  H  H4  1  0.62270000  0.20795000  0.18058000  1.0
  H  H5  1  0.12476000  0.27522000  0.68362000  1.0
  H  H6  1  0.87641000  0.20833000  0.18023000  1.0
  H  H7  1  0.62025000  0.72687000  0.31578000  1.0
  H  H8  1  0.37559000  0.79379000  0.82032000  1.0
  H  H9  1  0.25031000  0.81843000  0.02013000  1.0
  H  H10  1  0.74708000  0.69990000  0.51965000  1.0
  H  H11  1  0.74857000  0.18772000  0.98234000  1.0
  H  H12  1  0.24871000  0.30026000  0.47943000  1.0
  C  C1  1  0.74906000  0.81038000  0.20797000  1.0
  C  C2  1  0.24881000  0.70999000  0.71480000  1.0
  C  C3  1  0.25037000  0.19223000  0.79275000  1.0
  C  C4  1  0.75044000  0.29120000  0.28590000  1.0
  S  S1  1  0.24999000  0.67935000  0.35593000  1.0
  S  S2  1  0.75016000  0.81645000  0.85801000  1.0
  S  S3  1  0.75054000  0.32118000  0.64416000  1.0
  S  S4  1  0.24980000  0.18891000  0.14229000  1.0
  N  N1  1  0.65111000  0.91528000  0.09324000  1.0
  N  N2  1  0.58196000  0.85036000  0.16486000  1.0
  N  N3  1  0.34640000  0.59952000  0.60548000  1.0
  N  N4  1  0.41559000  0.66785000  0.67311000  1.0
  N  N5  1  0.15052000  0.08948000  0.90814000  1.0
  N  N6  1  0.08253000  0.15364000  0.83595000  1.0
  N  N7  1  0.84764000  0.40117000  0.39545000  1.0
  N  N8  1  0.91716000  0.33278000  0.32780000  1.0
  N  N9  1  0.34814000  0.08950000  0.90835000  1.0
  N  N10  1  0.41738000  0.15315000  0.83631000  1.0
  N  N11  1  0.65322000  0.40156000  0.39522000  1.0
  N  N12  1  0.58384000  0.33341000  0.32761000  1.0
  N  N13  1  0.84884000  0.91546000  0.09349000  1.0
  N  N14  1  0.91685000  0.84994000  0.16518000  1.0
  N  N15  1  0.15199000  0.59983000  0.60523000  1.0
  N  N16  1  0.08229000  0.66832000  0.67279000  1.0
  N  N17  1  0.74802000  0.73595000  0.28107000  1.0
  N  N18  1  0.24863000  0.78747000  0.78456000  1.0
  N  N19  1  0.25172000  0.26473000  0.71889000  1.0
  N  N20  1  0.74992000  0.21341000  0.21626000  1.0
  O  O1  1  0.43173000  0.66737000  0.41141000  1.0
  O  O2  1  0.56375000  0.83008000  0.90964000  1.0
  O  O3  1  0.93706000  0.33296000  0.59151000  1.0
  O  O4  1  0.06880000  0.18038000  0.08680000  1.0
  O  O5  1  0.56884000  0.33254000  0.58849000  1.0
  O  O6  1  0.43617000  0.17441000  0.09068000  1.0
  O  O7  1  0.06357000  0.66738000  0.40862000  1.0
  O  O8  1  0.93108000  0.82601000  0.91348000  1.0
  O  O9  1  0.25243000  0.57410000  0.28806000  1.0
  O  O10  1  0.25234000  0.81412000  0.31195000  1.0
  O  O11  1  0.25091000  0.90591000  0.04679000  1.0
  O  O12  1  0.75725000  0.92477000  0.78816000  1.0
  O  O13  1  0.74816000  0.68443000  0.81439000  1.0
  O  O14  1  0.74844000  0.61338000  0.54933000  1.0
  O  O15  1  0.74758000  0.42728000  0.71141000  1.0
  O  O16  1  0.74772000  0.18668000  0.68853000  1.0
  O  O17  1  0.74857000  0.09997000  0.95612000  1.0
  O  O18  1  0.24254000  0.08053000  0.21205000  1.0
  O  O19  1  0.25244000  0.32092000  0.18572000  1.0
  O  O20  1  0.25100000  0.38750000  0.45073000  1.0
