# generated using pymatgen
data_H4C5N3O2
_symmetry_space_group_name_H-M   'P 1'
_cell_length_a   10.04360000
_cell_length_b   21.60962500
_cell_length_c   21.60960000
_cell_angle_alpha   119.99988519
_cell_angle_beta   90.00000000
_cell_angle_gamma   90.00000000
_symmetry_Int_Tables_number   1
_chemical_formula_structural   H4C5N3O2
_chemical_formula_sum   'H24 C30 N18 O12'
_cell_volume   4061.76226600
_cell_formula_units_Z   6
loop_
 _symmetry_equiv_pos_site_id
 _symmetry_equiv_pos_as_xyz
  1  'x, y, z'
loop_
 _atom_site_type_symbol
 _atom_site_label
 _atom_site_symmetry_multiplicity
 _atom_site_fract_x
 _atom_site_fract_y
 _atom_site_fract_z
 _atom_site_occupancy
  C  1  1  0.87845200  0.74512950  0.38344250  1
  C  3  1  0.87841700  0.62530200  0.35958900  1
  C  5  1  0.87774900  0.64913600  0.26359600  1
  C  7  1  0.89398400  0.57551500  0.38286800  1
  C  8  1  0.89264400  0.62579650  0.19047650  1
  C  9  1  0.89401000  0.81819800  0.43319800  1
  C  13  1  0.13503600  0.26794350  0.62101250  1
  C  15  1  0.13497100  0.38778300  0.64486400  1
  C  17  1  0.13455900  0.36392950  0.74083550  1
  C  19  1  0.11988700  0.43753900  0.62150900  1
  C  20  1  0.11893950  0.38722800  0.81390300  1
  C  21  1  0.11986300  0.19484650  0.57122750  1
  C  25  1  0.04601400  0.48131200  0.93117800  1
  C  27  1  0.02080500  0.46264150  0.03139350  1
  C  28  1  0.96515900  0.53165000  0.07316600  1
  C  30  1  0.99033000  0.55031250  0.97294150  1
  C  33  1  0.83778400  0.59254500  0.92091700  1
  C  37  1  0.17338000  0.42039100  0.08339100  1
  C  45  1  0.04751050  0.46065800  0.52732300  1
  C  47  1  0.02257650  0.57953800  0.54593900  1
  C  48  1  0.96684100  0.55230800  0.47695000  1
  C  50  1  0.99186250  0.43342400  0.45831500  1
  C  53  1  0.83915700  0.33923600  0.41612300  1
  C  57  1  0.17532100  0.67369900  0.58809300  1
  C  65  1  0.04704900  0.07754750  0.54799650  1
  C  67  1  0.02198000  0.97731300  0.42910700  1
  C  68  1  0.96635900  0.93552900  0.45633800  1
  C  70  1  0.99138300  0.03577150  0.57522550  1
  C  73  1  0.83872900  0.08775550  0.66943350  1
  C  77  1  0.17465400  0.92534300  0.33490400  1
  H  34  1  0.83099400  0.63000650  0.90112950  1
  H  35  1  0.76373100  0.60783700  0.96312000  1
  H  36  1  0.81486950  0.53912050  0.87664450  1
  H  38  1  0.18017600  0.38293200  0.10318200  1
  H  39  1  0.19633400  0.47381200  0.12765800  1
  H  40  1  0.24740700  0.40508500  0.04117000  1
  H  42  1  0.93501950  0.52385200  0.16018200  1
  H  44  1  0.07637750  0.48913200  0.84417900  1
  H  54  1  0.83228200  0.28198800  0.37867800  1
  H  55  1  0.76516600  0.36617100  0.40081800  1
  H  56  1  0.81621700  0.34842200  0.46955400  1
  H  58  1  0.18224000  0.73094500  0.62553500  1
  H  59  1  0.19821200  0.66451350  0.53465250  1
  H  60  1  0.24931950  0.64675300  0.60337500  1
  H  62  1  0.93674200  0.64713300  0.48474600  1
  H  64  1  0.07757300  0.36584750  0.51956350  1
  H  74  1  0.83187500  0.10754400  0.72668000  1
  H  75  1  0.76472100  0.04553400  0.64250000  1
  H  76  1  0.81579500  0.13202350  0.66027150  1
  H  78  1  0.18149900  0.90554300  0.27765700  1
  H  79  1  0.19763500  0.88109400  0.34408200  1
  H  80  1  0.24863100  0.96758800  0.36183300  1
  H  82  1  0.93621500  0.84849000  0.36153100  1
  H  84  1  0.07721900  0.16455450  0.64283050  1
  N  2  1  0.87933700  0.69677400  0.40602200  1
  N  4  1  0.87866500  0.60270950  0.28865350  1
  N  6  1  0.87874000  0.72007550  0.31195950  1
  N  14  1  0.13443400  0.31629800  0.59842700  1
  N  16  1  0.13400500  0.41036650  0.71579850  1
  N  18  1  0.13404100  0.29299300  0.69249000  1
  N  26  1  0.05724600  0.44107300  0.96319800  1
  N  29  1  0.95391300  0.57189100  0.04114400  1
  N  41  1  0.92783600  0.55714300  0.14234700  1
  N  43  1  0.08349000  0.45584450  0.86202250  1
  N  46  1  0.05890000  0.53291150  0.56753050  1
  N  49  1  0.95550100  0.48004950  0.43673150  1
  N  61  1  0.92945900  0.59600850  0.45148450  1
  N  63  1  0.08481100  0.41697250  0.55282550  1
  N  66  1  0.05835000  0.04552550  0.47573850  1
  N  69  1  0.95505300  0.96756000  0.52859600  1
  N  81  1  0.92905600  0.86633900  0.41265900  1
  N  83  1  0.08441700  0.14671350  0.59170550  1
  O  10  1  0.89036400  0.67712750  0.17181450  1
  O  11  1  0.89163100  0.83694950  0.50321350  1
  O  12  1  0.89111200  0.50549650  0.33162150  1
  O  22  1  0.12131600  0.33593600  0.83262100  1
  O  23  1  0.12226350  0.17617150  0.50122950  1
  O  24  1  0.12223200  0.50754450  0.67280550  1
  O  31  1  0.97067500  0.59614000  0.94740200  1
  O  32  1  0.04047400  0.41681100  0.05693000  1
  O  51  1  0.97209800  0.36206100  0.41250900  1
  O  52  1  0.04238200  0.65089850  0.59174250  1
  O  71  1  0.97165100  0.06130900  0.64658900  1
  O  72  1  0.04171200  0.95176450  0.35774350  1
