# generated using pymatgen
data_ZnH8C17(O2F3)2
_symmetry_space_group_name_H-M   'P 1'
_cell_length_a   7.73306000
_cell_length_b   21.33918000
_cell_length_c   21.34585228
_cell_angle_alpha   60.02660839
_cell_angle_beta   89.98433890
_cell_angle_gamma   89.99508000
_symmetry_Int_Tables_number   1
_chemical_formula_structural   ZnH8C17(O2F3)2
_chemical_formula_sum   'Zn6 H48 C102 O24 F36'
_cell_volume   3051.33298129
_cell_formula_units_Z   6
loop_
 _symmetry_equiv_pos_site_id
 _symmetry_equiv_pos_as_xyz
  1  'x, y, z'
loop_
 _atom_site_type_symbol
 _atom_site_label
 _atom_site_symmetry_multiplicity
 _atom_site_fract_x
 _atom_site_fract_y
 _atom_site_fract_z
 _atom_site_occupancy
  Zn  Zn0  1  0.14661000  0.63417000  0.63434000  1
  Zn  Zn1  1  0.47996000  0.93603000  0.03207000  1
  Zn  Zn2  1  0.47981000  0.73183000  0.63406000  1
  Zn  Zn3  1  0.81331000  0.03210000  0.93579000  1
  Zn  Zn4  1  0.81320000  0.63424000  0.73172000  1
  Zn  Zn5  1  0.14673000  0.03211000  0.03219000  1
  H  H6  1  0.93890000  0.67891000  0.39997000  1
  H  H7  1  0.49330000  0.49313000  0.69863000  1
  H  H8  1  0.82681000  0.85810000  0.17289000  1
  H  H9  1  0.01513000  0.17917000  0.73916000  1
  H  H10  1  0.46906000  0.17293000  0.85823000  1
  H  H11  1  0.94571000  0.48879000  0.58390000  1
  H  H12  1  0.28178000  0.73964000  0.17860000  1
  H  H13  1  0.80161000  0.69775000  0.49380000  1
  H  H14  1  0.69172000  0.74488000  0.26729000  1
  H  H15  1  0.35767000  0.39887000  0.67969000  1
  H  H16  1  0.81202000  0.39636000  0.56336000  1
  H  H17  1  0.60573000  0.26656000  0.74529000  1
  H  H18  1  0.34956000  0.58368000  0.48780000  1
  H  H19  1  0.48521000  0.56309000  0.39588000  1
  H  H20  1  0.14907000  0.27155000  0.62660000  1
  H  H21  1  0.14864000  0.62661000  0.27129000  1
  H  H22  1  0.27237000  0.92125000  0.67879000  1
  H  H23  1  0.82639000  0.80852000  0.49284000  1
  H  H24  1  0.16006000  0.96902000  0.85808000  1
  H  H25  1  0.34831000  0.08220000  0.17936000  1
  H  H26  1  0.80238000  0.96905000  0.17328000  1
  H  H27  1  0.27902000  0.92741000  0.48867000  1
  H  H28  1  0.61503000  0.08174000  0.73971000  1
  H  H29  1  0.13498000  0.80851000  0.69774000  1
  H  H30  1  0.02501000  0.98789000  0.74491000  1
  H  H31  1  0.69075000  0.92179000  0.39893000  1
  H  H32  1  0.14532000  0.04041000  0.39654000  1
  H  H33  1  0.93850000  0.98840000  0.26699000  1
  H  H34  1  0.68290000  0.92853000  0.58377000  1
  H  H35  1  0.81854000  0.04104000  0.56327000  1
  H  H36  1  0.48235000  0.10250000  0.27173000  1
  H  H37  1  0.48196000  0.10217000  0.62669000  1
  H  H38  1  0.60550000  0.39997000  0.92116000  1
  H  H39  1  0.15970000  0.69864000  0.80844000  1
  H  H40  1  0.49362000  0.17280000  0.96901000  1
  H  H41  1  0.68180000  0.73910000  0.08171000  1
  H  H42  1  0.13585000  0.85825000  0.96885000  1
  H  H43  1  0.61229000  0.58392000  0.92724000  1
  H  H44  1  0.94834000  0.17858000  0.08170000  1
  H  H45  1  0.46825000  0.49373000  0.80851000  1
  H  H46  1  0.35842000  0.26726000  0.98779000  1
  H  H47  1  0.02426000  0.67958000  0.92164000  1
  H  H48  1  0.47873000  0.56328000  0.04022000  1
  H  H49  1  0.27256000  0.74519000  0.98827000  1
  H  H50  1  0.01607000  0.48778000  0.92849000  1
  H  H51  1  0.15166000  0.39590000  0.04096000  1
  H  H52  1  0.81587000  0.62649000  0.10196000  1
  H  H53  1  0.81517000  0.27131000  0.10206000  1
  C  C54  1  0.81442000  0.55190000  0.65548000  1
  C  C55  1  0.14530000  0.11513000  0.87392000  1
  C  C56  1  0.47861000  0.65534000  0.55162000  1
  C  C57  1  0.14849000  0.87406000  0.11467000  1
  C  C58  1  0.56487000  0.64313000  0.49604000  1
  C  C59  1  0.23149000  0.17078000  0.80629000  1
  C  C60  1  0.72954000  0.49614000  0.64345000  1
  C  C61  1  0.06428000  0.80624000  0.17057000  1
  C  C62  1  0.80967000  0.65791000  0.41881000  1
  C  C63  1  0.56290000  0.47084000  0.66994000  1
  C  C64  1  0.89715000  0.80728000  0.19556000  1
  C  C65  1  0.14415000  0.19878000  0.74025000  1
  C  C66  1  0.39913000  0.19541000  0.80735000  1
  C  C67  1  0.81720000  0.46862000  0.60496000  1
  C  C68  1  0.15291000  0.74043000  0.19854000  1
  C  C69  1  0.73214000  0.66926000  0.47125000  1
  C  C70  1  0.38794000  0.27670000  0.67713000  1
  C  C71  1  0.82116000  0.74336000  0.24826000  1
  C  C72  1  0.48654000  0.41825000  0.65862000  1
  C  C73  1  0.91036000  0.67727000  0.27699000  1
  C  C74  1  0.74054000  0.41611000  0.59362000  1
  C  C75  1  0.48131000  0.33353000  0.60790000  1
  C  C76  1  0.47629000  0.24771000  0.74346000  1
  C  C77  1  0.81660000  0.60803000  0.33304000  1
  C  C78  1  0.47841000  0.60469000  0.46816000  1
  C  C79  1  0.55628000  0.59329000  0.41582000  1
  C  C80  1  0.22124000  0.25122000  0.67646000  1
  C  C81  1  0.35439000  0.37628000  0.54345000  1
  C  C82  1  0.07664000  0.67656000  0.25118000  1
  C  C83  1  0.60914000  0.29127000  0.58554000  1
  C  C84  1  0.72233000  0.62021000  0.38993000  1
  C  C85  1  0.57478000  0.38995000  0.62064000  1
  C  C86  1  0.69014000  0.58708000  0.28955000  1
  C  C87  1  0.94337000  0.54340000  0.37538000  1
  C  C88  1  0.14763000  0.79273000  0.55177000  1
  C  C89  1  0.47845000  0.01105000  0.11544000  1
  C  C90  1  0.81206000  0.79310000  0.65534000  1
  C  C91  1  0.48177000  0.01126000  0.87405000  1
  C  C92  1  0.89831000  0.86088000  0.64314000  1
  C  C93  1  0.56447000  0.02315000  0.17110000  1
  C  C94  1  0.06276000  0.86055000  0.49600000  1
  C  C95  1  0.39756000  0.02314000  0.80627000  1
  C  C96  1  0.14312000  0.92335000  0.65786000  1
  C  C97  1  0.89606000  0.85948000  0.47068000  1
  C  C98  1  0.23044000  0.99716000  0.80729000  1
  C  C99  1  0.47719000  0.06136000  0.19903000  1
  C  C100  1  0.73214000  0.99746000  0.19574000  1
  C  C101  1  0.15042000  0.92654000  0.46855000  1
  C  C102  1  0.48617000  0.06102000  0.74048000  1
  C  C103  1  0.06558000  0.85955000  0.66924000  1
  C  C104  1  0.72082000  0.04657000  0.27695000  1
  C  C105  1  0.15445000  0.00843000  0.74338000  1
  C  C106  1  0.81971000  0.92346000  0.41823000  1
  C  C107  1  0.24364000  0.04581000  0.67729000  1
  C  C108  1  0.07374000  0.99045000  0.41616000  1
  C  C109  1  0.81429000  0.05908000  0.33363000  1
  C  C110  1  0.80914000  0.00910000  0.24805000  1
  C  C111  1  0.14996000  0.05898000  0.60805000  1
  C  C112  1  0.81178000  0.92717000  0.60475000  1
  C  C113  1  0.88962000  0.99091000  0.59337000  1
  C  C114  1  0.55428000  0.07281000  0.25144000  1
  C  C115  1  0.68773000  0.08061000  0.37683000  1
  C  C116  1  0.40990000  0.07232000  0.67660000  1
  C  C117  1  0.94232000  0.12342000  0.29127000  1
  C  C118  1  0.05572000  0.98991000  0.62021000  1
  C  C119  1  0.90781000  0.98977000  0.39003000  1
  C  C120  1  0.02348000  0.12340000  0.58711000  1
  C  C121  1  0.27670000  0.08123000  0.54341000  1
  C  C122  1  0.48096000  0.65552000  0.79265000  1
  C  C123  1  0.81188000  0.87393000  0.01093000  1
  C  C124  1  0.14533000  0.55160000  0.79309000  1
  C  C125  1  0.81499000  0.11461000  0.01131000  1
  C  C126  1  0.23153000  0.49604000  0.86085000  1
  C  C127  1  0.89814000  0.80627000  0.02295000  1
  C  C128  1  0.39607000  0.64348000  0.86044000  1
  C  C129  1  0.73084000  0.17054000  0.02319000  1
  C  C130  1  0.47627000  0.41882000  0.92330000  1
  C  C131  1  0.22943000  0.66993000  0.85933000  1
  C  C132  1  0.56381000  0.19550000  0.99716000  1
  C  C133  1  0.81084000  0.74020000  0.06102000  1
  C  C134  1  0.06587000  0.80735000  0.99728000  1
  C  C135  1  0.48378000  0.60497000  0.92638000  1
  C  C136  1  0.81948000  0.19852000  0.06102000  1
  C  C137  1  0.39880000  0.47123000  0.85953000  1
  C  C138  1  0.05468000  0.67708000  0.04623000  1
  C  C139  1  0.48779000  0.24823000  0.00835000  1
  C  C140  1  0.15317000  0.65856000  0.92326000  1
  C  C141  1  0.57693000  0.27698000  0.04571000  1
  C  C142  1  0.40723000  0.59359000  0.99026000  1
  C  C143  1  0.14804000  0.60784000  0.05862000  1
  C  C144  1  0.14306000  0.74342000  0.00889000  1
  C  C145  1  0.48315000  0.33306000  0.05889000  1
  C  C146  1  0.14499000  0.46816000  0.92714000  1
  C  C147  1  0.22281000  0.41584000  0.99086000  1
  C  C148  1  0.88798000  0.67637000  0.07240000  1
  C  C149  1  0.02106000  0.54343000  0.08028000  1
  C  C150  1  0.74318000  0.25118000  0.07224000  1
  C  C151  1  0.27583000  0.58550000  0.12320000  1
  C  C152  1  0.38890000  0.38996000  0.98986000  1
  C  C153  1  0.24149000  0.62060000  0.98946000  1
  C  C154  1  0.35673000  0.28955000  0.12335000  1
  C  C155  1  0.60994000  0.37541000  0.08117000  1
  O  O156  1  0.29443000  0.86776000  0.09085000  1
  O  O157  1  0.96017000  0.57565000  0.62510000  1
  O  O158  1  0.22589000  0.09532000  0.93347000  1
  O  O159  1  0.33267000  0.62501000  0.57520000  1
  O  O160  1  0.55875000  0.69530000  0.57132000  1
  O  O161  1  0.06665000  0.93336000  0.09498000  1
  O  O162  1  0.73350000  0.57160000  0.69527000  1
  O  O163  1  0.99936000  0.09154000  0.86722000  1
  O  O164  1  0.62768000  0.04142000  0.86765000  1
  O  O165  1  0.29336000  0.79942000  0.57549000  1
  O  O166  1  0.55932000  0.97140000  0.09551000  1
  O  O167  1  0.66613000  0.79986000  0.62502000  1
  O  O168  1  0.89215000  0.73345000  0.69528000  1
  O  O169  1  0.40003000  0.97170000  0.93337000  1
  O  O170  1  0.06679000  0.73321000  0.57154000  1
  O  O171  1  0.33240000  0.04120000  0.09183000  1
  O  O172  1  0.96073000  0.09075000  0.04153000  1
  O  O173  1  0.62672000  0.62513000  0.79932000  1
  O  O174  1  0.89269000  0.93345000  0.97124000  1
  O  O175  1  0.99939000  0.57519000  0.79983000  1
  O  O176  1  0.22552000  0.57128000  0.73346000  1
  O  O177  1  0.73333000  0.09497000  0.97163000  1
  O  O178  1  0.40014000  0.69528000  0.73318000  1
  O  O179  1  0.66584000  0.86735000  0.04112000  1
  F  F180  1  0.01124000  0.51787000  0.33345000  1
  F  F181  1  0.55635000  0.63513000  0.26315000  1
  F  F182  1  0.62241000  0.51985000  0.33059000  1
  F  F183  1  0.74213000  0.26366000  0.63432000  1
  F  F184  1  0.07617000  0.56449000  0.40309000  1
  F  F185  1  0.28226000  0.33343000  0.52013000  1
  F  F186  1  0.67737000  0.33314000  0.51818000  1
  F  F187  1  0.22323000  0.40632000  0.56229000  1
  F  F188  1  0.86617000  0.48582000  0.43197000  1
  F  F189  1  0.43379000  0.43179000  0.48560000  1
  F  F190  1  0.76704000  0.58762000  0.23196000  1
  F  F191  1  0.53268000  0.23457000  0.58455000  1
  F  F192  1  0.34448000  0.14870000  0.51783000  1
  F  F193  1  0.88966000  0.10176000  0.63515000  1
  F  F194  1  0.95575000  0.14950000  0.51991000  1
  F  F195  1  0.07529000  0.10211000  0.26368000  1
  F  F196  1  0.40952000  0.03242000  0.56451000  1
  F  F197  1  0.61529000  0.14691000  0.33571000  1
  F  F198  1  0.01054000  0.14892000  0.33313000  1
  F  F199  1  0.55669000  0.03153000  0.40633000  1
  F  F200  1  0.19949000  0.08215000  0.48586000  1
  F  F201  1  0.76780000  0.08228000  0.43244000  1
  F  F202  1  0.10036000  0.18047000  0.58762000  1
  F  F203  1  0.86585000  0.18099000  0.23457000  1
  F  F204  1  0.67762000  0.33348000  0.14860000  1
  F  F205  1  0.22294000  0.26312000  0.10174000  1
  F  F206  1  0.28896000  0.33062000  0.14953000  1
  F  F207  1  0.40884000  0.63431000  0.10200000  1
  F  F208  1  0.74282000  0.40310000  0.03240000  1
  F  F209  1  0.94892000  0.52013000  0.14643000  1
  F  F210  1  0.34402000  0.51811000  0.14874000  1
  F  F211  1  0.88996000  0.56227000  0.03141000  1
  F  F212  1  0.53280000  0.43202000  0.08217000  1
  F  F213  1  0.10046000  0.48557000  0.08261000  1
  F  F214  1  0.43368000  0.23199000  0.18036000  1
  F  F215  1  0.19935000  0.58456000  0.18086000  1
