# generated using pymatgen
data_H7C18(N2O)2
_symmetry_space_group_name_H-M   'P 1'
_cell_length_a   31.18010000
_cell_length_b   31.18010000
_cell_length_c   37.67160000
_cell_angle_alpha   90.00000000
_cell_angle_beta   90.00000000
_cell_angle_gamma   90.00000000
_symmetry_Int_Tables_number   1
_chemical_formula_structural   H7C18(N2O)2
_chemical_formula_sum   'H112 C288 N64 O32'
_cell_volume   36624.27813631
_cell_formula_units_Z   16
loop_
 _symmetry_equiv_pos_site_id
 _symmetry_equiv_pos_as_xyz
  1  'x, y, z'
loop_
 _atom_site_type_symbol
 _atom_site_label
 _atom_site_symmetry_multiplicity
 _atom_site_fract_x
 _atom_site_fract_y
 _atom_site_fract_z
 _atom_site_occupancy
  H  9  1  0.04097700  0.06425400  0.12044800  1
  H  17  1  0.33302000  0.05797500  0.12381100  1
  H  19  1  0.22262300  0.05455900  0.21124200  1
  H  20  1  0.14775600  0.06458000  0.21032000  1
  H  21  1  0.22608800  0.06569800  0.03379400  1
  H  22  1  0.15045600  0.05961700  0.03281000  1
  H  35  1  0.83382700  0.05320100  0.62437000  1
  H  43  1  0.54178500  0.05836600  0.62050500  1
  H  45  1  0.64887900  0.06259700  0.71050900  1
  H  46  1  0.72378200  0.05283300  0.71158400  1
  H  47  1  0.65192200  0.04855200  0.53321400  1
  H  48  1  0.72747400  0.05500300  0.53403400  1
  H  61  1  0.32843700  0.55815100  0.62421300  1
  H  69  1  0.03632500  0.56017800  0.62816800  1
  H  71  1  0.14257300  0.55981900  0.53773900  1
  H  72  1  0.21797600  0.56729500  0.53690100  1
  H  73  1  0.14634200  0.56115900  0.71524700  1
  H  74  1  0.22128000  0.55195200  0.71414800  1
  H  87  1  0.53777600  0.55675000  0.12546100  1
  H  95  1  0.83011600  0.55700600  0.12919500  1
  H  97  1  0.72313100  0.56048600  0.03906600  1
  H  98  1  0.64816400  0.55188400  0.03806600  1
  H  99  1  0.71984400  0.55158000  0.21650300  1
  H  100  1  0.64487600  0.56039900  0.21555100  1
  H  113  1  0.93682500  0.16211300  0.37588800  1
  H  121  1  0.93502600  0.45393100  0.37866500  1
  H  123  1  0.93141500  0.34730500  0.28882500  1
  H  124  1  0.93999700  0.27178500  0.28801300  1
  H  125  1  0.94009000  0.34466500  0.46617400  1
  H  126  1  0.93218500  0.26898500  0.46551500  1
  H  139  1  0.94012200  0.95532100  0.87310600  1
  H  147  1  0.93220700  0.66368300  0.87584800  1
  H  149  1  0.94057100  0.77026700  0.78629800  1
  H  150  1  0.93436600  0.84622000  0.78553400  1
  H  151  1  0.92968300  0.77361900  0.96367900  1
  H  152  1  0.94050100  0.84873100  0.96293000  1
  H  165  1  0.43198400  0.45384400  0.87542900  1
  H  173  1  0.43987000  0.16217600  0.87536500  1
  H  175  1  0.43340200  0.26999300  0.96403400  1
  H  176  1  0.44009500  0.34592900  0.96396500  1
  H  177  1  0.43982900  0.27083200  0.78649700  1
  H  178  1  0.42869700  0.34597400  0.78674900  1
  H  191  1  0.43223100  0.66262200  0.37453400  1
  H  199  1  0.43432800  0.95426000  0.37351500  1
  H  201  1  0.43756800  0.84674900  0.46258500  1
  H  202  1  0.42821200  0.77107200  0.46283200  1
  H  203  1  0.42947600  0.84591500  0.28518600  1
  H  204  1  0.43780200  0.77011000  0.28548000  1
  H  221  1  0.10283800  0.00454600  0.93137000  1
  H  222  1  0.88300600  0.01030600  0.06192900  1
  H  224  1  0.02103500  0.07880100  0.06069500  1
  H  226  1  0.92257300  0.97477300  0.93531000  1
  H  239  1  0.77345800  0.11285500  0.43582700  1
  H  240  1  0.99468900  0.10851500  0.56481300  1
  H  242  1  0.85718500  0.04035600  0.56563800  1
  H  244  1  0.95423700  0.14324700  0.43849000  1
  H  257  1  0.27114400  0.50644500  0.83861300  1
  H  258  1  0.45782100  0.50081000  0.67651800  1
  H  260  1  0.29705300  0.57890800  0.72248100  1
  H  262  1  0.44478100  0.47219900  0.81076800  1
  H  275  1  0.59224700  0.60833100  0.34051700  1
  H  276  1  0.40944700  0.61435400  0.17541200  1
  H  278  1  0.56904900  0.53553400  0.22430500  1
  H  280  1  0.42015600  0.64326000  0.31065600  1
  H  293  1  0.45614000  0.61217300  0.57249800  1
  H  294  1  0.26918300  0.61478700  0.41056700  1
  H  296  1  0.44362300  0.64354200  0.43850300  1
  H  298  1  0.29234400  0.54007200  0.52561600  1
  H  311  1  0.95806700  0.50559200  0.18033900  1
  H  312  1  0.77244500  0.50352300  0.34333000  1
  H  314  1  0.94643100  0.47473200  0.31494000  1
  H  316  1  0.79465100  0.57761500  0.22733300  1
  H  329  1  0.41770200  0.12365800  0.66401500  1
  H  330  1  0.59767600  0.12601700  0.83131900  1
  H  332  1  0.42653200  0.19409800  0.77394700  1
  H  334  1  0.57213800  0.04135300  0.72079800  1
  H  347  1  0.09681900  0.50220200  0.43922200  1
  H  348  1  0.87635700  0.50155400  0.56916900  1
  H  350  1  0.01255100  0.57224300  0.56969200  1
  H  352  1  0.91544300  0.46897600  0.44296500  1
  H  365  1  0.77437600  0.62683300  0.91833700  1
  H  366  1  0.95276200  0.62588300  0.08681200  1
  H  368  1  0.79948100  0.54192300  0.02803500  1
  H  370  1  0.94336800  0.69775600  0.97751400  1
  H  383  1  0.27282200  0.00506100  0.33758600  1
  H  384  1  0.46018500  0.00508500  0.17595800  1
  H  386  1  0.29774700  0.07963200  0.22209000  1
  H  388  1  0.44649000  0.97341000  0.31005100  1
  H  401  1  0.46385100  0.11158700  0.07360900  1
  H  402  1  0.27884800  0.10995200  0.91010200  1
  H  404  1  0.45184900  0.14260000  0.93877100  1
  H  406  1  0.30373800  0.03516100  0.02678200  1
  H  419  1  0.96141200  0.00392600  0.67455600  1
  H  420  1  0.77730100  0.00401500  0.83874600  1
  H  422  1  0.95075100  0.97465700  0.80955200  1
  H  424  1  0.79941100  0.07753400  0.72194700  1
  H  437  1  0.59618200  0.00347700  0.40629300  1
  H  438  1  0.41409800  0.00536300  0.57200900  1
  H  440  1  0.57632600  0.07759100  0.52269100  1
  H  442  1  0.42343000  0.97460300  0.43690800  1
  H  455  1  0.09393200  0.61093800  0.84165800  1
  H  456  1  0.90896200  0.61119800  0.67810800  1
  H  458  1  0.07002800  0.53583900  0.72528400  1
  H  460  1  0.92076100  0.64317300  0.81267600  1
  H  473  1  0.91637000  0.12680800  0.16408200  1
  H  474  1  0.09550400  0.12585900  0.33202200  1
  H  476  1  0.92364400  0.19357700  0.27563200  1
  H  478  1  0.07024000  0.04342800  0.21975800  1
  H  491  1  0.59681000  0.50298100  0.91120400  1
  H  492  1  0.41033600  0.50392400  0.07353000  1
  H  494  1  0.57386000  0.57679100  0.02675200  1
  H  496  1  0.42243000  0.47360000  0.93925400  1
  C  1  1  0.16399100  0.06086000  0.12176000  1
  C  2  1  0.14060200  0.06417800  0.15419700  1
  C  3  1  0.09531500  0.06850400  0.15306300  1
  C  4  1  0.07385200  0.06389500  0.12051700  1
  C  5  1  0.09613600  0.05754000  0.08836600  1
  C  6  1  0.14162800  0.05892100  0.08874200  1
  C  7  1  0.16341800  0.06300200  0.18655500  1
  C  8  1  0.16557700  0.05960600  0.05691900  1
  C  10  1  0.20980100  0.05992200  0.12233100  1
  C  11  1  0.23203500  0.05624000  0.15533100  1
  C  12  1  0.27746000  0.05263200  0.15533800  1
  C  13  1  0.30007800  0.05838900  0.12343300  1
  C  14  1  0.27875100  0.06504000  0.09104800  1
  C  15  1  0.23327700  0.06295300  0.08989900  1
  C  16  1  0.20793900  0.05650300  0.18708400  1
  C  18  1  0.21037900  0.06392900  0.05753900  1
  C  27  1  0.71080000  0.05505200  0.62262300  1
  C  28  1  0.73305400  0.05250500  0.65565900  1
  C  29  1  0.77841700  0.04858200  0.65567200  1
  C  30  1  0.80096600  0.05292700  0.62360000  1
  C  31  1  0.77978300  0.05854600  0.59084300  1
  C  32  1  0.73431500  0.05667100  0.59014800  1
  C  33  1  0.70903900  0.05404100  0.68741500  1
  C  34  1  0.71150900  0.05532700  0.55776500  1
  C  36  1  0.66498200  0.05581200  0.62202800  1
  C  37  1  0.64159200  0.06009800  0.65442200  1
  C  38  1  0.59622000  0.06379400  0.65328800  1
  C  39  1  0.57472600  0.05752700  0.62093500  1
  C  40  1  0.59713400  0.05031000  0.58913900  1
  C  41  1  0.64264700  0.05226700  0.58907000  1
  C  42  1  0.66448800  0.06030300  0.68676400  1
  C  44  1  0.66666667  0.05079600  0.55731900  1
  C  53  1  0.20520300  0.55910000  0.62567000  1
  C  54  1  0.22748900  0.56312900  0.59272300  1
  C  55  1  0.27300200  0.56575900  0.59282300  1
  C  56  1  0.29549700  0.55842700  0.62458700  1
  C  57  1  0.27404100  0.55158300  0.65689300  1
  C  58  1  0.22862700  0.55489900  0.65805000  1
  C  59  1  0.20330200  0.56463600  0.56101400  1
  C  60  1  0.20570600  0.55429300  0.69039300  1
  C  62  1  0.15937500  0.55941800  0.62627800  1
  C  63  1  0.13582200  0.55766000  0.59382900  1
  C  64  1  0.09036400  0.55524900  0.59456500  1
  C  65  1  0.06917500  0.56067800  0.62733800  1
  C  66  1  0.09176600  0.56536400  0.65934300  1
  C  67  1  0.13713300  0.56172700  0.65932400  1
  C  68  1  0.15858200  0.55946000  0.56145000  1
  C  70  1  0.16113200  0.56033500  0.69108100  1
  C  79  1  0.66103100  0.55604400  0.12699400  1
  C  80  1  0.63872200  0.55314800  0.09397300  1
  C  81  1  0.59323100  0.55031000  0.09395000  1
  C  82  1  0.57072000  0.55650300  0.12585800  1
  C  83  1  0.59214700  0.56251900  0.15828700  1
  C  84  1  0.63756700  0.55918100  0.15943100  1
  C  85  1  0.66284900  0.55333400  0.06224300  1
  C  86  1  0.66048600  0.55883700  0.19177300  1
  C  88  1  0.70688100  0.55595700  0.12759500  1
  C  89  1  0.73036000  0.55923800  0.09517800  1
  C  90  1  0.77577400  0.56249700  0.09630300  1
  C  91  1  0.79717500  0.55641000  0.12873100  1
  C  92  1  0.77466700  0.54995000  0.16059100  1
  C  93  1  0.72919000  0.55287800  0.16059900  1
  C  94  1  0.70748000  0.55902700  0.06283100  1
  C  96  1  0.70510400  0.55303200  0.19234300  1
  C  105  1  0.93528300  0.28514300  0.37686200  1
  C  106  1  0.93859900  0.26276300  0.34394100  1
  C  107  1  0.94222600  0.21738100  0.34422000  1
  C  108  1  0.93654600  0.19500000  0.37626500  1
  C  109  1  0.92982400  0.21650500  0.40869500  1
  C  110  1  0.93232600  0.26190100  0.40938000  1
  C  111  1  0.93831400  0.28670700  0.31209700  1
  C  112  1  0.93308900  0.28482100  0.44173600  1
  C  114  1  0.93543000  0.33091000  0.37732900  1
  C  115  1  0.93186700  0.35423900  0.34492600  1
  C  116  1  0.92892600  0.39961700  0.34572200  1
  C  117  1  0.93553900  0.42110200  0.37820800  1
  C  118  1  0.94202100  0.39864500  0.41024600  1
  C  119  1  0.93905100  0.35327400  0.41019500  1
  C  120  1  0.93237700  0.33136200  0.31255700  1
  C  122  1  0.93866600  0.32948900  0.44212100  1
  C  131  1  0.93788700  0.83236500  0.87439900  1
  C  132  1  0.93508700  0.85478300  0.84149600  1
  C  133  1  0.93301500  0.90020000  0.84134000  1
  C  134  1  0.93993000  0.92249600  0.87338800  1
  C  135  1  0.94555200  0.90093400  0.90596700  1
  C  136  1  0.94146600  0.85564200  0.90682100  1
  C  137  1  0.93517100  0.83098500  0.80958400  1
  C  138  1  0.93953600  0.83282600  0.93918500  1
  C  140  1  0.93652400  0.78661700  0.87490900  1
  C  141  1  0.93939400  0.76331100  0.84242000  1
  C  142  1  0.94064500  0.71788400  0.84309400  1
  C  143  1  0.93271700  0.69657300  0.87542100  1
  C  144  1  0.92705600  0.71905200  0.90742100  1
  C  145  1  0.93200800  0.76433400  0.90779300  1
  C  146  1  0.93975000  0.78619100  0.81004000  1
  C  148  1  0.93236700  0.78835200  0.93959700  1
  C  157  1  0.43434800  0.33085500  0.87533300  1
  C  158  1  0.43813500  0.35373200  0.90794700  1
  C  159  1  0.44045400  0.39915200  0.90754100  1
  C  160  1  0.43249100  0.42101500  0.87544200  1
  C  161  1  0.42551800  0.39892800  0.84329100  1
  C  162  1  0.42965200  0.35364200  0.84277600  1
  C  163  1  0.43872900  0.33036100  0.94008200  1
  C  164  1  0.43047300  0.33038100  0.81060600  1
  C  166  1  0.43556600  0.28510800  0.87524600  1
  C  167  1  0.43330500  0.26225500  0.90798700  1
  C  168  1  0.43182700  0.21681900  0.90771100  1
  C  169  1  0.43930600  0.19506600  0.87551400  1
  C  170  1  0.44452400  0.21715700  0.84328300  1
  C  171  1  0.43928700  0.26239200  0.84250500  1
  C  172  1  0.43373500  0.28559400  0.94013800  1
  C  174  1  0.43795600  0.28594500  0.81047600  1
  C  183  1  0.43303600  0.78558500  0.37409600  1
  C  184  1  0.42907500  0.76297400  0.40681900  1
  C  185  1  0.42557600  0.71764100  0.40654000  1
  C  186  1  0.43245500  0.69545300  0.37442300  1
  C  187  1  0.43964900  0.71721700  0.34215200  1
  C  188  1  0.43672400  0.76259200  0.34153900  1
  C  189  1  0.42969100  0.78649200  0.43888500  1
  C  190  1  0.43643900  0.78579600  0.30931000  1
  C  192  1  0.43332800  0.83132500  0.37393700  1
  C  193  1  0.43704500  0.85426600  0.40651600  1
  C  194  1  0.44056600  0.89959700  0.40596900  1
  C  195  1  0.43401700  0.92143100  0.37364000  1
  C  196  1  0.42709300  0.89936900  0.34147800  1
  C  197  1  0.42996000  0.85399100  0.34119600  1
  C  198  1  0.43618200  0.83108500  0.43874200  1
  C  200  1  0.43049600  0.83046900  0.30913500  1
  C  209  1  0.01659700  0.03205200  0.02265800  1
  C  210  1  0.03636000  0.01713900  0.99120600  1
  C  211  1  0.01362400  0.99230000  0.96666800  1
  C  212  1  0.97041100  0.98002600  0.97212300  1
  C  213  1  0.95067700  0.99489800  0.00350600  1
  C  214  1  0.97333300  0.01985200  0.02794800  1
  C  217  1  0.07684500  0.00470500  0.94784700  1
  C  220  1  0.90947100  0.00895900  0.04601500  1
  C  223  1  0.03759900  0.05638600  0.04784500  1
  C  225  1  0.94704700  0.95925300  0.94635200  1
  C  227  1  0.86082500  0.08582800  0.52651600  1
  C  228  1  0.84072600  0.10046500  0.49510500  1
  C  229  1  0.86314100  0.12517300  0.47027700  1
  C  230  1  0.90639300  0.13753500  0.47532900  1
  C  231  1  0.92646300  0.12301000  0.50667900  1
  C  232  1  0.90410900  0.09822700  0.53143200  1
  C  235  1  0.79968700  0.11269700  0.45204400  1
  C  238  1  0.96806700  0.10963600  0.54906900  1
  C  241  1  0.84008100  0.06167700  0.55202300  1
  C  243  1  0.92939400  0.15835100  0.44935700  1
  C  245  1  0.33570500  0.52722800  0.73474500  1
  C  246  1  0.32347900  0.51502400  0.76940200  1
  C  247  1  0.35074000  0.49052800  0.79077100  1
  C  248  1  0.39160900  0.47662500  0.77914200  1
  C  249  1  0.40406600  0.48922200  0.74464600  1
  C  250  1  0.37664400  0.51344000  0.72315500  1
  C  253  1  0.29306300  0.50536100  0.81850500  1
  C  256  1  0.43518800  0.50040900  0.69609500  1
  C  259  1  0.30876400  0.55125200  0.71362500  1
  C  261  1  0.41938300  0.45612800  0.80192300  1
  C  263  1  0.52988300  0.58714400  0.23578800  1
  C  264  1  0.54135500  0.59942700  0.27060200  1
  C  265  1  0.51375700  0.62421600  0.29143400  1
  C  266  1  0.47328600  0.63836600  0.27907800  1
  C  267  1  0.46154500  0.62566900  0.24444300  1
  C  268  1  0.48929600  0.60113400  0.22349700  1
  C  271  1  0.57073600  0.60929900  0.32010300  1
  C  274  1  0.43149700  0.61445600  0.19544100  1
  C  277  1  0.55726900  0.56300400  0.21513800  1
  C  279  1  0.44519400  0.65939500  0.30124600  1
  C  281  1  0.39051800  0.64006900  0.47027000  1
  C  282  1  0.40264500  0.62650900  0.50459000  1
  C  283  1  0.37455300  0.60272100  0.52581500  1
  C  284  1  0.33317400  0.59037700  0.51413500  1
  C  285  1  0.32130400  0.60350100  0.47962100  1
  C  286  1  0.34925500  0.62754200  0.45851300  1
  C  289  1  0.43354300  0.61347800  0.55291800  1
  C  292  1  0.29116700  0.61483100  0.43064800  1
  C  295  1  0.41888000  0.66024200  0.44777500  1
  C  297  1  0.30552400  0.56678800  0.53500300  1
  C  299  1  0.89341600  0.47835000  0.28311300  1
  C  300  1  0.90526700  0.49176900  0.24868900  1
  C  301  1  0.87691200  0.51529700  0.22750400  1
  C  302  1  0.83555900  0.52753500  0.23933100  1
  C  303  1  0.82403600  0.51469100  0.27399200  1
  C  304  1  0.85223300  0.49087100  0.29505300  1
  C  307  1  0.93569300  0.50449200  0.20010300  1
  C  310  1  0.79429200  0.50347500  0.32314800  1
  C  313  1  0.92180000  0.45801300  0.30546900  1
  C  315  1  0.80755700  0.55056300  0.21836500  1
  C  317  1  0.47962300  0.15428000  0.76752000  1
  C  318  1  0.46814500  0.13831600  0.73363000  1
  C  319  1  0.49452700  0.10966800  0.71520500  1
  C  320  1  0.53388900  0.09463700  0.72914600  1
  C  321  1  0.54535400  0.10993200  0.76308700  1
  C  322  1  0.51915800  0.13889100  0.78138200  1
  C  325  1  0.43889200  0.12405200  0.68467000  1
  C  328  1  0.57575500  0.12480700  0.81121900  1
  C  331  1  0.45303300  0.18302400  0.78537700  1
  C  333  1  0.56100900  0.06829600  0.71014000  1
  C  335  1  0.00950900  0.52700600  0.53036500  1
  C  336  1  0.02963400  0.51303900  0.49876300  1
  C  337  1  0.00743700  0.48832400  0.47380500  1
  C  338  1  0.96433300  0.47541200  0.47883800  1
  C  339  1  0.94430500  0.48910100  0.51047200  1
  C  340  1  0.96646300  0.51384700  0.53537200  1
  C  343  1  0.07070800  0.50170200  0.45556300  1
  C  346  1  0.90283300  0.50118200  0.55323100  1
  C  349  1  0.02997100  0.55136800  0.55589100  1
  C  351  1  0.94140200  0.45466500  0.45273900  1
  C  353  1  0.83769200  0.59548900  0.02073500  1
  C  354  1  0.82627100  0.61099600  0.98684200  1
  C  355  1  0.85209500  0.64064300  0.96894500  1
  C  356  1  0.89121900  0.65656600  0.98317300  1
  C  357  1  0.90265300  0.64045700  0.01702500  1
  C  358  1  0.87663600  0.61110800  0.03505100  1
  C  361  1  0.79603700  0.62592500  0.93864100  1
  C  364  1  0.93172600  0.62616900  0.06604900  1
  C  367  1  0.81084100  0.56839500  0.03930900  1
  C  369  1  0.91752800  0.68584800  0.96563800  1
  C  371  1  0.33742700  0.02860600  0.23414100  1
  C  372  1  0.32526500  0.01566500  0.26862700  1
  C  373  1  0.35277300  0.99111000  0.28972800  1
  C  374  1  0.39378700  0.97780000  0.27795500  1
  C  375  1  0.40627200  0.99134700  0.24372200  1
  C  376  1  0.37862300  0.01563200  0.22250000  1
  C  379  1  0.29485600  0.00473100  0.31754400  1
  C  382  1  0.43747800  0.00398000  0.19545700  1
  C  385  1  0.31013600  0.05234400  0.21310800  1
  C  387  1  0.42172100  0.95704300  0.30041700  1
  C  389  1  0.39903700  0.13763300  0.97068900  1
  C  390  1  0.41109900  0.12431900  0.00508800  1
  C  391  1  0.38324500  0.10001000  0.02610900  1
  C  392  1  0.34230800  0.08678600  0.01405800  1
  C  393  1  0.33056000  0.09950700  0.97943600  1
  C  394  1  0.35824500  0.12411000  0.95854700  1
  C  397  1  0.44151900  0.11229500  0.05380000  1
  C  400  1  0.30067400  0.11031500  0.93029500  1
  C  403  1  0.42702300  0.15876800  0.94851900  1
  C  405  1  0.31467700  0.06341100  0.03499700  1
  C  407  1  0.89763400  0.97785800  0.77790500  1
  C  408  1  0.90920500  0.99090200  0.74332400  1
  C  409  1  0.88077700  0.01442300  0.72221500  1
  C  410  1  0.83962900  0.02700300  0.73428300  1
  C  411  1  0.82834300  0.01446800  0.76906500  1
  C  412  1  0.85663000  0.99068700  0.79006800  1
  C  415  1  0.93917600  0.00297100  0.69443100  1
  C  418  1  0.79898700  0.00376000  0.81844700  1
  C  421  1  0.92622900  0.95771100  0.80018400  1
  C  423  1  0.81156600  0.04996600  0.71335500  1
  C  425  1  0.53529700  0.02741000  0.51119700  1
  C  426  1  0.54610200  0.01457300  0.47638300  1
  C  427  1  0.51750700  0.99066100  0.45578100  1
  C  428  1  0.47666300  0.97796700  0.46839300  1
  C  429  1  0.46549600  0.99145000  0.50294700  1
  C  430  1  0.49423900  0.01509500  0.52366500  1
  C  433  1  0.57477100  0.00342200  0.42679100  1
  C  436  1  0.43605700  0.00424600  0.55193100  1
  C  439  1  0.56370300  0.05044600  0.53175400  1
  C  441  1  0.44781500  0.95761800  0.44648200  1
  C  443  1  0.03053200  0.58689700  0.73780000  1
  C  444  1  0.04221900  0.59981200  0.77239400  1
  C  445  1  0.01446500  0.62447200  0.79317600  1
  C  446  1  0.97366000  0.63784600  0.78096000  1
  C  447  1  0.96161700  0.62428000  0.74663200  1
  C  448  1  0.98953200  0.59992100  0.72571900  1
  C  451  1  0.07208700  0.61106900  0.82147600  1
  C  454  1  0.93124800  0.61198700  0.69794800  1
  C  457  1  0.05830600  0.56366400  0.71685100  1
  C  459  1  0.94565800  0.65923500  0.80292900  1
  C  461  1  0.97762700  0.15518000  0.26829800  1
  C  462  1  0.96637600  0.13997700  0.23411600  1
  C  463  1  0.99298300  0.11190300  0.21531500  1
  C  464  1  0.03233900  0.09671300  0.22915500  1
  C  465  1  0.04359900  0.11126200  0.26335500  1
  C  466  1  0.01717800  0.13964700  0.28203500  1
  C  469  1  0.93745100  0.12679200  0.18481500  1
  C  472  1  0.07369700  0.12506800  0.31182100  1
  C  475  1  0.95073200  0.18322900  0.28659300  1
  C  477  1  0.05965600  0.07097600  0.20980900  1
  C  479  1  0.53303600  0.52657300  0.01500400  1
  C  480  1  0.54480600  0.51378000  0.98037800  1
  C  481  1  0.51682000  0.48988600  0.95917600  1
  C  482  1  0.47561800  0.47718900  0.97094100  1
  C  483  1  0.46358100  0.49042500  0.00537100  1
  C  484  1  0.49170500  0.51406200  0.02668300  1
  C  487  1  0.57486700  0.50277600  0.93131500  1
  C  490  1  0.43282800  0.50293600  0.05385600  1
  C  493  1  0.56073000  0.54997900  0.03598700  1
  C  495  1  0.44726600  0.45698400  0.94845500  1
  N  23  1  0.07432100  0.04435300  0.05984000  1
  N  24  1  0.07094700  0.08377800  0.17890400  1
  N  25  1  0.30355900  0.07913000  0.06501900  1
  N  26  1  0.30125100  0.03838100  0.18199100  1
  N  49  1  0.80228400  0.07200000  0.56275800  1
  N  50  1  0.80236500  0.03526900  0.68254600  1
  N  51  1  0.57280500  0.03630400  0.56276100  1
  N  52  1  0.57183600  0.07991000  0.67878700  1
  N  75  1  0.29857900  0.53681100  0.68292300  1
  N  76  1  0.29710200  0.58015600  0.56639000  1
  N  77  1  0.06789000  0.57867700  0.68623600  1
  N  78  1  0.06799500  0.54161800  0.56645900  1
  N  101  1  0.56751600  0.57703800  0.18433100  1
  N  102  1  0.56917700  0.53638100  0.06730300  1
  N  103  1  0.79882400  0.53638700  0.18728300  1
  N  104  1  0.80013600  0.57895300  0.07093900  1
  N  127  1  0.91602700  0.19418200  0.43663400  1
  N  128  1  0.95935900  0.19394000  0.31862500  1
  N  129  1  0.95599500  0.42017200  0.43851600  1
  N  130  1  0.91165200  0.42151900  0.31892200  1
  N  153  1  0.95978600  0.92306300  0.93387600  1
  N  154  1  0.91590200  0.92156900  0.81417900  1
  N  155  1  0.91037600  0.69535700  0.93309800  1
  N  156  1  0.95708200  0.69539900  0.81628400  1
  N  179  1  0.40830900  0.42037100  0.81620700  1
  N  180  1  0.45769300  0.42085500  0.93447900  1
  N  181  1  0.46104700  0.19337300  0.81760000  1
  N  182  1  0.41557600  0.19476600  0.93485300  1
  N  205  1  0.45645500  0.69532500  0.31513700  1
  N  206  1  0.40838200  0.69628700  0.43368000  1
  N  207  1  0.41055400  0.92104000  0.31423200  1
  N  208  1  0.45791400  0.92118400  0.43289400  1
  N  215  1  0.03988400  0.98510000  0.93942700  1
  N  218  1  0.94654300  0.02821800  0.05461500  1
  N  233  1  0.83653700  0.13226300  0.44324900  1
  N  236  1  0.93116500  0.09028100  0.55800400  1
  N  251  1  0.33087100  0.48514600  0.82175500  1
  N  254  1  0.39716100  0.52017200  0.69265700  1
  N  269  1  0.53298800  0.62976100  0.32267300  1
  N  272  1  0.46947900  0.59445000  0.19267600  1
  N  287  1  0.39493200  0.59483500  0.55618800  1
  N  290  1  0.32953100  0.63401400  0.42760900  1
  N  305  1  0.89698600  0.52296200  0.19695200  1
  N  308  1  0.83274900  0.48445000  0.32606500  1
  N  323  1  0.47537700  0.10124600  0.68438300  1
  N  326  1  0.53933100  0.14769700  0.81172000  1
  N  341  1  0.03403800  0.48187500  0.44666600  1
  N  344  1  0.93950300  0.52096700  0.56217200  1
  N  359  1  0.83206600  0.64943700  0.93854000  1
  N  362  1  0.89567400  0.60268000  0.06591900  1
  N  377  1  0.33287300  0.98486900  0.32058600  1
  N  380  1  0.39919700  0.02328400  0.19217500  1
  N  395  1  0.40329900  0.09278000  0.05674000  1
  N  398  1  0.33866800  0.13028500  0.92753700  1
  N  413  1  0.90057500  0.02170800  0.69147300  1
  N  416  1  0.83738100  0.98457400  0.82122400  1
  N  431  1  0.53632300  0.98425300  0.42448400  1
  N  434  1  0.47478100  0.02281700  0.55448200  1
  N  449  1  0.03403300  0.63094400  0.82414600  1
  N  452  1  0.96950700  0.59253500  0.69509400  1
  N  467  1  0.97403800  0.10415600  0.18428500  1
  N  470  1  0.03716100  0.14776400  0.31259100  1
  N  485  1  0.53650300  0.48360400  0.92822700  1
  N  488  1  0.47142300  0.52160500  0.05716100  1
  O  216  1  0.07697800  0.02549500  0.97985000  1
  O  219  1  0.90956400  0.98777100  0.01420400  1
  O  234  1  0.79996600  0.09207300  0.48411600  1
  O  237  1  0.96763000  0.13043500  0.51708700  1
  O  252  1  0.28617500  0.52475800  0.78641500  1
  O  255  1  0.44193600  0.48070100  0.72809200  1
  O  270  1  0.57824100  0.58965200  0.28821200  1
  O  273  1  0.42417500  0.63446300  0.22722000  1
  O  288  1  0.44077800  0.63362900  0.52118900  1
  O  291  1  0.28371600  0.59515900  0.46253400  1
  O  306  1  0.94324300  0.48455900  0.23187700  1
  O  309  1  0.78652800  0.52294300  0.29122500  1
  O  324  1  0.43224700  0.14801700  0.71459200  1
  O  327  1  0.58193200  0.10073000  0.78133700  1
  O  342  1  0.07024800  0.52206400  0.48774700  1
  O  345  1  0.90334900  0.48085200  0.52104300  1
  O  360  1  0.79005500  0.60132300  0.96826000  1
  O  363  1  0.93821400  0.65056900  0.03634700  1
  O  378  1  0.28778200  0.02458200  0.28567200  1
  O  381  1  0.44432200  0.98365300  0.22716900  1
  O  396  1  0.44878300  0.13243500  0.02206700  1
  O  399  1  0.29327800  0.09049600  0.96213100  1
  O  414  1  0.94697900  0.98335500  0.72629800  1
  O  417  1  0.79102400  0.02302900  0.78647600  1
  O  432  1  0.58319600  0.02293100  0.45858400  1
  O  435  1  0.42789200  0.98419500  0.52031300  1
  O  450  1  0.07954300  0.59106600  0.78972800  1
  O  453  1  0.92393900  0.63228500  0.72960000  1
  O  468  1  0.93053300  0.14997900  0.21511300  1
  O  471  1  0.08013500  0.10177100  0.28156000  1
  O  486  1  0.58235600  0.52225600  0.96327800  1
  O  489  1  0.42553800  0.48303300  0.02203000  1
