# generated using pymatgen
data_ZnH7C14NO4
_symmetry_space_group_name_H-M   'P 1'
_cell_length_a   8.10198000
_cell_length_b   8.92097000
_cell_length_c   12.85967000
_cell_angle_alpha   90.05695000
_cell_angle_beta   82.56818000
_cell_angle_gamma   90.01513000
_symmetry_Int_Tables_number   1
_chemical_formula_structural   ZnH7C14NO4
_chemical_formula_sum   'Zn2 H14 C28 N2 O8'
_cell_volume   921.65660955
_cell_formula_units_Z   2
loop_
 _symmetry_equiv_pos_site_id
 _symmetry_equiv_pos_as_xyz
  1  'x, y, z'
loop_
 _atom_site_type_symbol
 _atom_site_label
 _atom_site_symmetry_multiplicity
 _atom_site_fract_x
 _atom_site_fract_y
 _atom_site_fract_z
 _atom_site_occupancy
  Zn  Zn0  1  0.31722000  0.50000000  0.49999000  1
  Zn  Zn1  1  0.68278000  0.50000000  0.50001000  1
  H  H2  1  0.66469000  0.62216000  0.82049000  1
  H  H3  1  0.01973000  0.55693000  0.10330000  1
  H  H4  1  0.22807000  0.69954000  0.18782000  1
  H  H5  1  0.13870000  0.90438000  0.31245000  1
  H  H6  1  0.83977000  0.97036000  0.35080000  1
  H  H7  1  0.62983000  0.83064000  0.26609000  1
  H  H8  1  0.33528000  0.37785000  0.17952000  1
  H  H9  1  0.78616000  0.67432000  0.97584000  1
  H  H10  1  0.21379000  0.32572000  0.02417000  1
  H  H11  1  0.37020000  0.16955000  0.73375000  1
  H  H12  1  0.16020000  0.02974000  0.64915000  1
  H  H13  1  0.86119000  0.09546000  0.68774000  1
  H  H14  1  0.77181000  0.30016000  0.81249000  1
  H  H15  1  0.98020000  0.44284000  0.89690000  1
  C  C16  1  0.50009000  0.21798000  0.49957000  1
  C  C17  1  0.31585000  0.40221000  0.87112000  1
  C  C18  1  0.43355000  0.44297000  0.13515000  1
  C  C19  1  0.56642000  0.55705000  0.86485000  1
  C  C20  1  0.43584000  0.45817000  0.02872000  1
  C  C21  1  0.56412000  0.54186000  0.97128000  1
  C  C22  1  0.50006000  0.06521000  0.49982000  1
  C  C23  1  0.49994000  0.93479000  0.50018000  1
  C  C24  1  0.19058000  0.31805000  0.82006000  1
  C  C25  1  0.24002000  0.19979000  0.75073000  1
  C  C26  1  0.12144000  0.12019000  0.70296000  1
  C  C27  1  0.49991000  0.78202000  0.50043000  1
  C  C28  1  0.95288000  0.15709000  0.72479000  1
  C  C29  1  0.90251000  0.27294000  0.79500000  1
  C  C30  1  0.02069000  0.35312000  0.84278000  1
  C  C31  1  0.80939000  0.68194000  0.17996000  1
  C  C32  1  0.97924000  0.64672000  0.15736000  1
  C  C33  1  0.09741000  0.72686000  0.20520000  1
  C  C34  1  0.04704000  0.84279000  0.27535000  1
  C  C35  1  0.87852000  0.87984000  0.29705000  1
  C  C36  1  0.75997000  0.80029000  0.24921000  1
  C  C37  1  0.53293000  0.50406000  0.29767000  1
  C  C38  1  0.46707000  0.49594000  0.70233000  1
  C  C39  1  0.44585000  0.48602000  0.81444000  1
  C  C40  1  0.55415000  0.51397000  0.18556000  1
  C  C41  1  0.68861000  0.60928000  0.02079000  1
  C  C42  1  0.31135000  0.39075000  0.97922000  1
  C  C43  1  0.68413000  0.59779000  0.12888000  1
  N  N44  1  0.92636000  0.50000000  0.50002000  1
  N  N45  1  0.07364000  0.50000000  0.49998000  1
  O  O46  1  0.36315000  0.28534000  0.49999000  1
  O  O47  1  0.63685000  0.71466000  0.50001000  1
  O  O48  1  0.63685000  0.28534000  0.50001000  1
  O  O49  1  0.36315000  0.71466000  0.49999000  1
  O  O50  1  0.38575000  0.50000000  0.34635000  1
  O  O51  1  0.61425000  0.50000000  0.65365000  1
  O  O52  1  0.65950000  0.50000000  0.34636000  1
  O  O53  1  0.34050000  0.50000000  0.65364000  1
