# generated using pymatgen
data_K2H22C18S2N2O9
_symmetry_space_group_name_H-M   'P 1'
_cell_length_a   10.41549000
_cell_length_b   13.82182000
_cell_length_c   13.86832000
_cell_angle_alpha   113.42871000
_cell_angle_beta   103.20498000
_cell_angle_gamma   103.47416000
_symmetry_Int_Tables_number   1
_chemical_formula_structural   K2H22C18S2N2O9
_chemical_formula_sum   'K4 H44 C36 S4 N4 O18'
_cell_volume   1662.14416089
_cell_formula_units_Z   2
loop_
 _symmetry_equiv_pos_site_id
 _symmetry_equiv_pos_as_xyz
  1  'x, y, z'
loop_
 _atom_site_type_symbol
 _atom_site_label
 _atom_site_symmetry_multiplicity
 _atom_site_fract_x
 _atom_site_fract_y
 _atom_site_fract_z
 _atom_site_occupancy
  K  K0  1  0.44676000  0.67362000  0.60163000  1
  K  K1  1  0.05336000  0.39672000  0.32773000  1
  K  K2  1  0.55324000  0.32638000  0.39837000  1
  K  K3  1  0.94664000  0.60328000  0.67227000  1
  H  H4  1  0.64061000  0.20890000  0.79689000  1
  H  H5  1  0.70056000  0.35220000  0.72970000  1
  H  H6  1  0.38186000  0.47589000  0.82353000  1
  H  H7  1  0.24586000  0.25148000  0.89942000  1
  H  H8  1  0.36809000  0.37766000  0.01323000  1
  H  H9  1  0.19984000  0.45680000  0.06736000  1
  H  H10  1  0.05507000  0.33460000  0.96260000  1
  H  H11  1  0.98023000  0.45335000  0.87474000  1
  H  H12  1  0.12324000  0.57352000  0.98580000  1
  H  H13  1  0.15490000  0.37091000  0.82566000  1
  H  H14  1  0.32388000  0.44262000  0.55003000  1
  H  H15  1  0.85937000  0.20182000  0.79220000  1
  H  H16  1  0.79898000  0.26942000  0.64975000  1
  H  H17  1  0.11795000  0.17719000  0.52566000  1
  H  H18  1  0.25416000  0.10020000  0.74797000  1
  H  H19  1  0.13176000  0.98602000  0.62248000  1
  H  H20  1  0.29984000  0.93215000  0.54316000  1
  H  H21  1  0.44452000  0.03750000  0.66472000  1
  H  H22  1  0.52011000  0.12582000  0.54638000  1
  H  H23  1  0.37712000  0.01408000  0.42683000  1
  H  H24  1  0.34508000  0.17484000  0.62890000  1
  H  H25  1  0.17631000  0.45049000  0.55822000  1
  H  H26  1  0.35939000  0.79110000  0.20311000  1
  H  H27  1  0.29944000  0.64780000  0.27030000  1
  H  H28  1  0.61814000  0.52412000  0.17647000  1
  H  H29  1  0.75414000  0.74852000  0.10058000  1
  H  H30  1  0.63190000  0.62235000  0.98677000  1
  H  H31  1  0.80016000  0.54320000  0.93264000  1
  H  H32  1  0.94493000  0.66540000  0.03740000  1
  H  H33  1  0.01977000  0.54665000  0.12526000  1
  H  H34  1  0.87676000  0.42648000  0.01420000  1
  H  H35  1  0.84509000  0.62909000  0.17434000  1
  H  H36  1  0.67611000  0.55737000  0.44997000  1
  H  H37  1  0.14063000  0.79818000  0.20780000  1
  H  H38  1  0.20102000  0.73058000  0.35025000  1
  H  H39  1  0.88205000  0.82281000  0.47434000  1
  H  H40  1  0.74584000  0.89980000  0.25203000  1
  H  H41  1  0.86824000  0.01398000  0.37752000  1
  H  H42  1  0.70015000  0.06785000  0.45684000  1
  H  H43  1  0.55548000  0.96250000  0.33528000  1
  H  H44  1  0.47989000  0.87418000  0.45362000  1
  H  H45  1  0.62288000  0.98592000  0.57317000  1
  H  H46  1  0.65492000  0.82516000  0.37110000  1
  H  H47  1  0.82368000  0.54951000  0.44179000  1
  C  C48  1  0.40541000  0.34168000  0.86069000  1
  C  C49  1  0.47540000  0.25955000  0.84866000  1
  C  C50  1  0.58640000  0.26831000  0.80283000  1
  C  C51  1  0.61733000  0.34497000  0.76430000  1
  C  C52  1  0.54043000  0.41762000  0.76913000  1
  C  C53  1  0.43593000  0.41619000  0.81684000  1
  C  C54  1  0.30654000  0.34202000  0.92284000  1
  C  C55  1  0.12793000  0.41661000  0.97959000  1
  C  C56  1  0.04660000  0.49146000  0.96420000  1
  C  C57  1  0.09473000  0.13918000  0.65922000  1
  C  C58  1  0.02479000  0.15082000  0.74125000  1
  C  C59  1  0.91358000  0.19635000  0.73290000  1
  C  C60  1  0.88235000  0.23503000  0.65665000  1
  C  C61  1  0.95952000  0.23088000  0.58429000  1
  C  C62  1  0.06410000  0.18338000  0.58535000  1
  C  C63  1  0.19344000  0.07689000  0.65808000  1
  C  C64  1  0.37182000  0.02038000  0.58314000  1
  C  C65  1  0.45351000  0.03594000  0.50852000  1
  C  C66  1  0.59459000  0.65832000  0.13931000  1
  C  C67  1  0.52460000  0.74046000  0.15134000  1
  C  C68  1  0.41360000  0.73169000  0.19717000  1
  C  C69  1  0.38267000  0.65503000  0.23570000  1
  C  C70  1  0.45957000  0.58238000  0.23087000  1
  C  C71  1  0.56407000  0.58381000  0.18316000  1
  C  C72  1  0.69346000  0.65798000  0.07716000  1
  C  C73  1  0.87206000  0.58339000  0.02041000  1
  C  C74  1  0.95339000  0.50854000  0.03580000  1
  C  C75  1  0.90527000  0.86082000  0.34078000  1
  C  C76  1  0.97521000  0.84918000  0.25875000  1
  C  C77  1  0.08642000  0.80365000  0.26710000  1
  C  C78  1  0.11765000  0.76497000  0.34335000  1
  C  C79  1  0.04048000  0.76912000  0.41571000  1
  C  C80  1  0.93590000  0.81662000  0.41465000  1
  C  C81  1  0.80656000  0.92311000  0.34192000  1
  C  C82  1  0.62817000  0.97962000  0.41686000  1
  C  C83  1  0.54648000  0.96406000  0.49148000  1
  S  S84  1  0.58008000  0.50539000  0.70685000  1
  S  S85  1  0.92055000  0.29312000  0.49660000  1
  S  S86  1  0.41992000  0.49461000  0.29315000  1
  S  S87  1  0.07945000  0.70688000  0.50341000  1
  N  N88  1  0.21310000  0.40056000  0.90838000  1
  N  N89  1  0.28673000  0.09170000  0.59936000  1
  N  N90  1  0.78689000  0.59944000  0.09162000  1
  N  N91  1  0.71327000  0.90830000  0.40064000  1
  O  O92  1  0.43520000  0.18034000  0.87223000  1
  O  O93  1  0.73334000  0.53527000  0.72787000  1
  O  O94  1  0.49280000  0.42942000  0.58369000  1
  O  O95  1  0.53654000  0.60236000  0.75686000  1
  O  O96  1  0.06504000  0.12699000  0.81991000  1
  O  O97  1  0.76723000  0.27189000  0.46688000  1
  O  O98  1  0.00784000  0.41693000  0.57155000  1
  O  O99  1  0.96443000  0.24224000  0.40012000  1
  O  O100  1  0.56480000  0.81966000  0.12777000  1
  O  O101  1  0.26665000  0.46473000  0.27213000  1
  O  O102  1  0.50720000  0.57057000  0.41631000  1
  O  O103  1  0.46345000  0.39764000  0.24313000  1
  O  O104  1  0.93496000  0.87301000  0.18009000  1
  O  O105  1  0.23276000  0.72811000  0.53312000  1
  O  O106  1  0.99216000  0.58307000  0.42846000  1
  O  O107  1  0.03557000  0.75776000  0.59989000  1
  O  O108  1  0.25002000  0.47167000  0.52876000  1
  O  O109  1  0.74997000  0.52833000  0.47124000  1
