# generated using pymatgen
data_H15(C5N)4
_symmetry_space_group_name_H-M   'P 1'
_cell_length_a   30.97080000
_cell_length_b   30.97080000
_cell_length_c   52.43820000
_cell_angle_alpha   89.97350000
_cell_angle_beta   90.00000000
_cell_angle_gamma   60.00000000
_symmetry_Int_Tables_number   1
_chemical_formula_structural   H15(C5N)4
_chemical_formula_sum   'H180 C240 N48'
_cell_volume   43559.53076034
_cell_formula_units_Z   12
loop_
 _symmetry_equiv_pos_site_id
 _symmetry_equiv_pos_as_xyz
  1  'x, y, z'
loop_
 _atom_site_type_symbol
 _atom_site_label
 _atom_site_symmetry_multiplicity
 _atom_site_fract_x
 _atom_site_fract_y
 _atom_site_fract_z
 _atom_site_occupancy
  H  9  1  0.39238200  0.22926500  0.76307200  1
  H  18  1  0.39737000  0.33361500  0.74146100  1
  H  21  1  0.50522000  0.28742300  0.75557500  1
  H  22  1  0.52500000  0.28841000  0.78443400  1
  H  23  1  0.52100000  0.13915600  0.72114000  1
  H  24  1  0.50183200  0.16116600  0.74989400  1
  H  25  1  0.48237400  0.26126900  0.65012000  1
  H  26  1  0.43956000  0.31939600  0.65449200  1
  H  27  1  0.48653600  0.20123700  0.85243000  1
  H  28  1  0.44290100  0.18682700  0.84805200  1
  H  33  1  0.37587900  0.37783800  0.68227400  1
  H  34  1  0.53376400  0.25864900  0.82501000  1
  H  35  1  0.36955500  0.20609600  0.82278900  1
  H  36  1  0.54549400  0.16868300  0.68445500  1
  H  43  1  0.23042000  0.33578300  0.42973300  1
  H  52  1  0.33478800  0.22678600  0.40826900  1
  H  55  1  0.28864900  0.16478500  0.42227800  1
  H  56  1  0.28960700  0.14401100  0.45113900  1
  H  57  1  0.14053700  0.29687800  0.38767900  1
  H  58  1  0.16239700  0.29426600  0.41645800  1
  H  59  1  0.26293900  0.21385200  0.31678500  1
  H  60  1  0.32088400  0.19913300  0.32117800  1
  H  61  1  0.20229500  0.26962800  0.51904300  1
  H  62  1  0.18787100  0.32768100  0.51466300  1
  H  67  1  0.37892300  0.20387400  0.34883700  1
  H  68  1  0.25992900  0.16495900  0.49172400  1
  H  69  1  0.20751400  0.38145400  0.48947000  1
  H  70  1  0.17040100  0.24272300  0.35101100  1
  H  77  1  0.33697000  0.39111800  0.09647400  1
  H  86  1  0.22774000  0.39594000  0.07482500  1
  H  89  1  0.16598000  0.50391900  0.08883600  1
  H  90  1  0.14513100  0.52373800  0.11767400  1
  H  91  1  0.29863500  0.51951200  0.05445100  1
  H  92  1  0.29575700  0.50034600  0.08321400  1
  H  93  1  0.21516500  0.48093500  0.98343000  1
  H  94  1  0.19995600  0.43804100  0.98780300  1
  H  95  1  0.27061800  0.48524500  0.18579200  1
  H  96  1  0.32860700  0.44144300  0.18149000  1
  H  101  1  0.20473100  0.37460500  0.01555000  1
  H  102  1  0.16604200  0.53258000  0.15823800  1
  H  103  1  0.38288200  0.36796400  0.15585400  1
  H  104  1  0.24456600  0.54411200  0.01778100  1
  H  111  1  0.58072700  0.74164400  0.26328700  1
  H  120  1  0.57601500  0.63705800  0.24163300  1
  H  123  1  0.46819000  0.68314000  0.25565000  1
  H  124  1  0.44841200  0.68200500  0.28448700  1
  H  125  1  0.45239400  0.83155200  0.22130300  1
  H  126  1  0.47158000  0.80947900  0.25005800  1
  H  127  1  0.49091900  0.70957100  0.15028600  1
  H  128  1  0.53375300  0.65144800  0.15465300  1
  H  129  1  0.48666700  0.76906300  0.35261000  1
  H  130  1  0.53042800  0.78333600  0.34835100  1
  H  135  1  0.59742200  0.59296000  0.18243800  1
  H  136  1  0.43953700  0.71167000  0.32505300  1
  H  137  1  0.60426200  0.76430400  0.32240600  1
  H  138  1  0.42789100  0.80214100  0.18461400  1
  H  145  1  0.74271800  0.63505500  0.92986100  1
  H  154  1  0.63839200  0.74440400  0.90826400  1
  H  157  1  0.68459100  0.80604400  0.92236600  1
  H  158  1  0.68364800  0.82678400  0.95122100  1
  H  159  1  0.83285300  0.67353700  0.88790400  1
  H  160  1  0.81084200  0.67640600  0.91666600  1
  H  161  1  0.71074100  0.75701200  0.81689200  1
  H  162  1  0.65260900  0.77235200  0.82128000  1
  H  163  1  0.77087900  0.70108100  0.01919200  1
  H  164  1  0.78529100  0.64304100  0.01481200  1
  H  169  1  0.59417200  0.76707700  0.84908600  1
  H  170  1  0.71349100  0.80573100  0.99178200  1
  H  171  1  0.76600900  0.58900100  0.98959000  1
  H  172  1  0.80334600  0.72752000  0.85120200  1
  H  179  1  0.63637300  0.57960800  0.59647400  1
  H  188  1  0.74540000  0.57491300  0.57499500  1
  H  191  1  0.80736300  0.46677400  0.58908200  1
  H  192  1  0.82808000  0.44695200  0.61795000  1
  H  193  1  0.67524100  0.45079800  0.55450600  1
  H  194  1  0.67787000  0.47005100  0.58327500  1
  H  195  1  0.75832700  0.49003100  0.48356000  1
  H  196  1  0.77321900  0.53313600  0.48793600  1
  H  197  1  0.70233000  0.48538000  0.68582300  1
  H  198  1  0.64429000  0.52902000  0.68141600  1
  H  203  1  0.76833300  0.59604600  0.51550600  1
  H  204  1  0.80706100  0.43828900  0.65853900  1
  H  205  1  0.59054800  0.60238000  0.65617600  1
  H  206  1  0.72946900  0.42642200  0.51783600  1
  H  213  1  0.38458100  0.46354300  0.92450300  1
  H  214  1  0.33670400  0.51588000  0.95878000  1
  H  221  1  0.35362500  0.34448200  0.90499000  1
  H  222  1  0.39521800  0.29811500  0.86759400  1
  H  223  1  0.50370600  0.34135500  0.87546800  1
  H  224  1  0.31299200  0.40184900  0.98679700  1
  H  225  1  0.46266200  0.38756600  0.91304900  1
  H  226  1  0.36013000  0.34944900  0.95220900  1
  H  235  1  0.46477200  0.10927200  0.59122200  1
  H  236  1  0.51716200  0.10478300  0.62549300  1
  H  243  1  0.34573400  0.25932100  0.57166900  1
  H  244  1  0.29933000  0.26413400  0.53427100  1
  H  245  1  0.34254500  0.11240600  0.54216600  1
  H  246  1  0.40322600  0.24258300  0.65344400  1
  H  247  1  0.38878500  0.10720100  0.57976100  1
  H  248  1  0.35076900  0.24785500  0.61886800  1
  H  257  1  0.11052700  0.38334400  0.25793200  1
  H  258  1  0.10614900  0.33538100  0.29220900  1
  H  265  1  0.26050100  0.35238800  0.23828600  1
  H  266  1  0.26513100  0.39404300  0.20085400  1
  H  267  1  0.11344700  0.50254700  0.20887700  1
  H  268  1  0.24402000  0.31149400  0.32010100  1
  H  269  1  0.10842200  0.46144700  0.24648800  1
  H  270  1  0.24919900  0.35871600  0.28550800  1
  H  279  1  0.58868200  0.50716500  0.42483000  1
  H  280  1  0.63670400  0.45481000  0.45908900  1
  H  287  1  0.61958000  0.62622900  0.40515500  1
  H  288  1  0.57795900  0.67245800  0.36770200  1
  H  289  1  0.46952100  0.62917800  0.37573800  1
  H  290  1  0.66059600  0.56879700  0.48693100  1
  H  291  1  0.51058600  0.58311800  0.41337200  1
  H  292  1  0.61328900  0.62123000  0.45236300  1
  H  301  1  0.50852400  0.86149400  0.09129400  1
  H  302  1  0.45617700  0.86598200  0.12558400  1
  H  309  1  0.62756400  0.71144900  0.07177600  1
  H  310  1  0.67396400  0.70668000  0.03438400  1
  H  311  1  0.63075000  0.85839700  0.04225200  1
  H  312  1  0.57013700  0.72817800  0.15358900  1
  H  313  1  0.58450900  0.86356100  0.07983100  1
  H  314  1  0.62255100  0.72289500  0.11899000  1
  H  323  1  0.86274400  0.58737100  0.75800700  1
  H  324  1  0.86723300  0.63526600  0.79226600  1
  H  331  1  0.71268200  0.61843100  0.73846700  1
  H  332  1  0.70786600  0.57686200  0.70107300  1
  H  333  1  0.85958800  0.46832600  0.70895500  1
  H  334  1  0.72939500  0.65919600  0.82022200  1
  H  335  1  0.86479500  0.50934000  0.74654700  1
  H  336  1  0.72412500  0.61201100  0.78565800  1
  H  345  1  0.51961200  0.99289700  0.79784400  1
  H  346  1  0.48484700  0.07380900  0.78114200  1
  H  353  1  0.47108700  0.98141000  0.87674300  1
  H  354  1  0.52298800  0.90085500  0.89471300  1
  H  355  1  0.57186200  0.84238900  0.82104300  1
  H  356  1  0.37303400  0.12709600  0.83766900  1
  H  357  1  0.51857400  0.92065400  0.80289400  1
  H  358  1  0.40470300  0.04407400  0.85310700  1
  H  367  1  0.99415900  0.44477600  0.46434500  1
  H  368  1  0.07502400  0.39895900  0.44760100  1
  H  375  1  0.98251000  0.50522500  0.54336900  1
  H  376  1  0.90193200  0.53420300  0.56135400  1
  H  377  1  0.84358800  0.54239000  0.48779100  1
  H  378  1  0.12828700  0.45704000  0.50435400  1
  H  379  1  0.92176800  0.51722400  0.46960200  1
  H  380  1  0.04529100  0.50819700  0.51981400  1
  H  389  1  0.44685500  0.51810100  0.13080600  1
  H  390  1  0.40037600  0.48363000  0.11419400  1
  H  396  1  0.50628200  0.46973800  0.20995000  1
  H  397  1  0.53484600  0.52158400  0.22797700  1
  H  398  1  0.54449800  0.57075000  0.15437800  1
  H  399  1  0.45799800  0.37231300  0.17103200  1
  H  400  1  0.51969100  0.51744800  0.13615500  1
  H  401  1  0.50967300  0.40362100  0.18639100  1
  H  410  1  0.45415600  0.97842200  0.29715200  1
  H  411  1  0.48876900  0.89753900  0.28060500  1
  H  418  1  0.50259900  0.98975500  0.37643400  1
  H  419  1  0.45082900  0.07012200  0.39451600  1
  H  420  1  0.40026000  0.12879000  0.32104300  1
  H  421  1  0.59946000  0.84400200  0.33774300  1
  H  422  1  0.45353300  0.05086500  0.30273800  1
  H  423  1  0.56815000  0.92701800  0.35297400  1
  H  432  1  0.97904000  0.52597800  0.96439000  1
  H  433  1  0.89810300  0.57203600  0.94774400  1
  H  440  1  0.99078400  0.46567200  0.04330300  1
  H  441  1  0.07135100  0.43702200  0.06124600  1
  H  442  1  0.12964300  0.42803100  0.98757700  1
  H  443  1  0.84506600  0.51333200  0.00433300  1
  H  444  1  0.05140100  0.45295000  0.96944600  1
  H  445  1  0.92813600  0.46202700  0.01970300  1
  H  453  1  0.52710100  0.45243300  0.63105000  1
  H  454  1  0.57325300  0.48723800  0.61436700  1
  H  461  1  0.46706300  0.50098300  0.70995200  1
  H  462  1  0.43835300  0.44910500  0.72792400  1
  H  463  1  0.42889300  0.40011700  0.65425600  1
  H  464  1  0.51473900  0.59900300  0.67089300  1
  H  465  1  0.45390400  0.45338300  0.63611100  1
  H  466  1  0.46338600  0.56731300  0.68631700  1
  C  1  1  0.50967600  0.48789700  0.17104000  1
  C  2  1  0.48860900  0.50699700  0.66004000  1
  C  3  1  0.44652300  0.25127300  0.76593000  1
  C  4  1  0.41410200  0.23578200  0.77554900  1
  C  5  1  0.41546200  0.22314500  0.80142200  1
  C  6  1  0.44966700  0.22661100  0.81832200  1
  C  7  1  0.47582800  0.25099600  0.80957800  1
  C  8  1  0.47621000  0.26154600  0.78297300  1
  C  11  1  0.44696700  0.25624300  0.73891000  1
  C  12  1  0.47591300  0.21551900  0.72216100  1
  C  13  1  0.47724500  0.22536000  0.69551000  1
  C  14  1  0.45169400  0.27549600  0.68618100  1
  C  15  1  0.42002600  0.31468200  0.70318400  1
  C  16  1  0.41763100  0.30460200  0.72911200  1
  C  29  1  0.40023600  0.36405500  0.69656100  1
  C  30  1  0.50970700  0.18641900  0.67961500  1
  C  31  1  0.49889000  0.26630100  0.82742500  1
  C  32  1  0.39213700  0.19667000  0.80784100  1
  C  37  1  0.25242600  0.25964600  0.43261800  1
  C  38  1  0.23706300  0.30752500  0.44222900  1
  C  39  1  0.22430300  0.31884900  0.46808400  1
  C  40  1  0.22773400  0.28114800  0.48496700  1
  C  41  1  0.25213900  0.23059900  0.47625000  1
  C  42  1  0.26271400  0.21966800  0.44965900  1
  C  45  1  0.25749000  0.25421100  0.40560900  1
  C  46  1  0.21686800  0.26579100  0.38881000  1
  C  47  1  0.22685400  0.25456200  0.36218300  1
  C  48  1  0.27701000  0.23018700  0.35290500  1
  C  49  1  0.31608900  0.22275800  0.36998600  1
  C  50  1  0.30586000  0.23536200  0.39588100  1
  C  63  1  0.36559400  0.19358900  0.36342800  1
  C  64  1  0.18801100  0.26092900  0.34623100  1
  C  65  1  0.26751000  0.19223200  0.49411700  1
  C  66  1  0.19780100  0.36866700  0.47447700  1
  C  71  1  0.26079400  0.44516900  0.09927900  1
  C  72  1  0.30866000  0.41267100  0.10894400  1
  C  73  1  0.31986900  0.41410400  0.13482400  1
  C  74  1  0.28214700  0.44840600  0.15165700  1
  C  75  1  0.23163100  0.47455000  0.14288700  1
  C  76  1  0.22077900  0.47489600  0.11628000  1
  C  79  1  0.25544400  0.44559400  0.07225700  1
  C  80  1  0.26724000  0.47453900  0.05549200  1
  C  81  1  0.25610000  0.47585600  0.02883800  1
  C  82  1  0.23155900  0.45027900  0.01950500  1
  C  83  1  0.22403700  0.41863000  0.03653500  1
  C  84  1  0.23642100  0.41626400  0.06246800  1
  C  97  1  0.19457500  0.39871200  0.02991500  1
  C  98  1  0.26260200  0.50833000  0.01294100  1
  C  99  1  0.19323100  0.49770900  0.16070700  1
  C  100  1  0.36967600  0.39129800  0.14117600  1
  C  105  1  0.52683900  0.71930700  0.26610000  1
  C  106  1  0.55919900  0.73484000  0.27575900  1
  C  107  1  0.55772500  0.74743200  0.30163500  1
  C  108  1  0.52354500  0.74384800  0.31849700  1
  C  109  1  0.49749000  0.71939500  0.30971500  1
  C  110  1  0.49716300  0.70892400  0.28310100  1
  C  113  1  0.52641900  0.71442400  0.23907600  1
  C  114  1  0.49747000  0.75518800  0.22232500  1
  C  115  1  0.49612600  0.74538700  0.19567600  1
  C  116  1  0.52165200  0.69527700  0.18634100  1
  C  117  1  0.55331900  0.65605600  0.20335200  1
  C  118  1  0.55570700  0.66607900  0.22927800  1
  C  131  1  0.57309000  0.60670000  0.19673300  1
  C  132  1  0.46367300  0.78437000  0.17977200  1
  C  133  1  0.47438300  0.70406500  0.32752700  1
  C  134  1  0.58020600  0.77467200  0.30803300  1
  C  139  1  0.72074000  0.71119300  0.93271800  1
  C  140  1  0.73622600  0.66327600  0.94233700  1
  C  141  1  0.74890000  0.65197200  0.96820400  1
  C  142  1  0.74546600  0.68962200  0.98509900  1
  C  143  1  0.72108000  0.74017400  0.97635900  1
  C  144  1  0.71049900  0.75113300  0.94975900  1
  C  147  1  0.71576400  0.71662400  0.90569800  1
  C  148  1  0.75649000  0.70482800  0.88893800  1
  C  149  1  0.74665000  0.71598400  0.86228600  1
  C  150  1  0.69651400  0.74057500  0.85296400  1
  C  151  1  0.65732700  0.74810800  0.86997900  1
  C  152  1  0.66740400  0.73564900  0.89590800  1
  C  165  1  0.60795600  0.77767400  0.86335800  1
  C  166  1  0.78559400  0.70948200  0.84637800  1
  C  167  1  0.70581400  0.77852500  0.99420600  1
  C  168  1  0.77537400  0.60216000  0.97461300  1
  C  173  1  0.71249700  0.52546400  0.59938800  1
  C  174  1  0.66460500  0.55799800  0.60898200  1
  C  175  1  0.65322500  0.55656400  0.63483300  1
  C  176  1  0.69089000  0.52230400  0.65173300  1
  C  177  1  0.74145500  0.49614100  0.64303300  1
  C  178  1  0.75243500  0.49576000  0.61644400  1
  C  181  1  0.71796600  0.52504700  0.57237900  1
  C  182  1  0.70636400  0.49600900  0.55560100  1
  C  183  1  0.71759700  0.49473300  0.52896900  1
  C  184  1  0.74199400  0.52048700  0.51966300  1
  C  185  1  0.74942000  0.55215900  0.53672100  1
  C  186  1  0.73682400  0.55454900  0.56262200  1
  C  199  1  0.77857600  0.57250600  0.53013100  1
  C  200  1  0.71124000  0.46223200  0.51304600  1
  C  201  1  0.77978700  0.47314700  0.66091700  1
  C  202  1  0.60339200  0.57986500  0.64119500  1
  C  207  1  0.31998400  0.46413300  0.97611600  1
  C  208  1  0.32800300  0.41522100  0.97388500  1
  C  209  1  0.35575300  0.38439800  0.95334000  1
  C  210  1  0.37750600  0.40084300  0.93469200  1
  C  211  1  0.37077400  0.44929000  0.93772400  1
  C  212  1  0.34225500  0.48041400  0.95791400  1
  C  215  1  0.40386500  0.37079100  0.91304300  1
  C  216  1  0.38576500  0.34351000  0.89943000  1
  C  217  1  0.40981200  0.31661300  0.87722300  1
  C  218  1  0.45312300  0.31568800  0.86818700  1
  C  219  1  0.47225700  0.34165800  0.88173100  1
  C  220  1  0.44773200  0.36905800  0.90373100  1
  C  229  1  0.46545500  0.17326000  0.64280200  1
  C  230  1  0.41656000  0.21417800  0.64055400  1
  C  231  1  0.38570100  0.21726000  0.62001600  1
  C  232  1  0.40210300  0.17905100  0.60139200  1
  C  233  1  0.45054000  0.13731400  0.60444100  1
  C  234  1  0.48169000  0.13469100  0.62463100  1
  C  237  1  0.37204500  0.18276300  0.57973400  1
  C  238  1  0.34475000  0.22816100  0.56611600  1
  C  239  1  0.31782400  0.23103500  0.54390900  1
  C  240  1  0.31689000  0.18865900  0.53487900  1
  C  241  1  0.34285400  0.14354200  0.54843200  1
  C  242  1  0.37028000  0.14064400  0.57043200  1
  C  251  1  0.17462600  0.31867000  0.30952600  1
  C  252  1  0.21556900  0.32659800  0.30722900  1
  C  253  1  0.21859700  0.35439400  0.28667900  1
  C  254  1  0.18033100  0.37623400  0.26807000  1
  C  255  1  0.13861200  0.36951800  0.27114000  1
  C  256  1  0.13603900  0.34097300  0.29134100  1
  C  259  1  0.18397700  0.40261100  0.24640300  1
  C  260  1  0.22929900  0.38450700  0.23273100  1
  C  261  1  0.23208000  0.40862500  0.21051800  1
  C  262  1  0.18965800  0.45196200  0.20151700  1
  C  263  1  0.14461900  0.47109100  0.21512000  1
  C  264  1  0.14181900  0.44651600  0.23712900  1
  C  273  1  0.65342400  0.50657700  0.47637600  1
  C  274  1  0.64546000  0.55546500  0.47407800  1
  C  275  1  0.61761800  0.58630500  0.45354200  1
  C  276  1  0.59577900  0.56987100  0.43494600  1
  C  277  1  0.60251400  0.52142700  0.43802400  1
  C  278  1  0.63111900  0.49028900  0.45820600  1
  C  281  1  0.56938200  0.59989300  0.41328100  1
  C  282  1  0.58746900  0.62713300  0.39960200  1
  C  283  1  0.56339400  0.65396600  0.37736800  1
  C  284  1  0.52009200  0.65483100  0.36836300  1
  C  285  1  0.50097300  0.62890400  0.38197400  1
  C  286  1  0.52551300  0.60158700  0.40400300  1
  C  295  1  0.50789100  0.79749100  0.14291700  1
  C  296  1  0.55678300  0.75657000  0.14067600  1
  C  297  1  0.58761300  0.75348200  0.12012300  1
  C  298  1  0.57119500  0.79168900  0.10147800  1
  C  299  1  0.52276200  0.83342600  0.10451600  1
  C  300  1  0.49162900  0.83604900  0.12471100  1
  C  303  1  0.60126100  0.78799600  0.07982800  1
  C  304  1  0.62854600  0.74261600  0.06621700  1
  C  305  1  0.65546500  0.73976700  0.04401000  1
  C  306  1  0.65640800  0.78215200  0.03497500  1
  C  307  1  0.63043500  0.82725200  0.04851600  1
  C  308  1  0.60301900  0.83012700  0.07051400  1
  C  317  1  0.79873800  0.65206500  0.80957900  1
  C  318  1  0.75780700  0.64410900  0.80733500  1
  C  319  1  0.75472800  0.61633300  0.78680200  1
  C  320  1  0.79294800  0.59450900  0.76818100  1
  C  321  1  0.83469400  0.60119200  0.77122400  1
  C  322  1  0.83731700  0.62971500  0.79140800  1
  C  325  1  0.78923500  0.56816900  0.74652600  1
  C  326  1  0.74383900  0.58628300  0.73291400  1
  C  327  1  0.74096300  0.56224400  0.71070900  1
  C  328  1  0.78333600  0.51893400  0.70167700  1
  C  329  1  0.82845300  0.49976800  0.71522500  1
  C  330  1  0.83135300  0.52428600  0.73722200  1
  C  339  1  0.42417800  0.10736200  0.80701900  1
  C  340  1  0.40172200  0.09819800  0.82813500  1
  C  341  1  0.42145000  0.04933600  0.83755800  1
  C  342  1  0.46499500  0.00896800  0.82681200  1
  C  343  1  0.48648200  0.01942600  0.80546200  1
  C  344  1  0.46588100  0.06752100  0.79535200  1
  C  347  1  0.48915700  0.96000600  0.83782400  1
  C  348  1  0.48954700  0.95204800  0.86452800  1
  C  349  1  0.52002100  0.90452700  0.87529200  1
  C  350  1  0.55024200  0.86356900  0.85952700  1
  C  351  1  0.54852800  0.87061100  0.83291600  1
  C  352  1  0.51780900  0.91767600  0.82228400  1
  C  361  1  0.10854800  0.42585800  0.47360900  1
  C  362  1  0.09938000  0.45732000  0.49478600  1
  C  363  1  0.05053600  0.48624900  0.50425100  1
  C  364  1  0.01015600  0.48312400  0.49345900  1
  C  365  1  0.02062900  0.45139100  0.47202400  1
  C  366  1  0.06871900  0.42399000  0.46192700  1
  C  369  1  0.96118900  0.50780200  0.50448200  1
  C  370  1  0.95318300  0.51579800  0.53116100  1
  C  371  1  0.90567600  0.53285900  0.54192800  1
  C  372  1  0.86464900  0.54345300  0.52622900  1
  C  373  1  0.87184500  0.53745400  0.49964900  1
  C  374  1  0.91886300  0.52110900  0.48898300  1
  C  383  1  0.42677900  0.42347500  0.14034100  1
  C  384  1  0.45845500  0.40082600  0.16142800  1
  C  385  1  0.48776500  0.42037600  0.17080900  1
  C  386  1  0.48487700  0.46376300  0.15999000  1
  C  387  1  0.45320100  0.48513100  0.13853100  1
  C  388  1  0.42542700  0.46479200  0.12850400  1
  C  391  1  0.51728100  0.48815000  0.19774900  1
  C  392  1  0.53409100  0.51878000  0.20854900  1
  C  393  1  0.54487600  0.54908500  0.19284600  1
  C  394  1  0.53947100  0.54747200  0.16624000  1
  C  395  1  0.52327700  0.51669900  0.15555300  1
  C  404  1  0.54870900  0.86385400  0.30687800  1
  C  405  1  0.57117600  0.87294600  0.32801100  1
  C  406  1  0.55154300  0.92184300  0.33734400  1
  C  407  1  0.50821000  0.96231200  0.32645900  1
  C  408  1  0.48712600  0.95189900  0.30491300  1
  C  409  1  0.50766400  0.90378900  0.29486300  1
  C  412  1  0.48377700  0.01123500  0.33755200  1
  C  413  1  0.48386100  0.01912100  0.36424400  1
  C  414  1  0.45329800  0.06653400  0.37508600  1
  C  415  1  0.42259800  0.10757500  0.35944400  1
  C  416  1  0.42373300  0.10052200  0.33285700  1
  C  417  1  0.45456100  0.05362100  0.32212400  1
  C  426  1  0.86467000  0.54483300  0.97365900  1
  C  427  1  0.87392300  0.51316100  0.99476900  1
  C  428  1  0.92281800  0.48405800  0.00415400  1
  C  429  1  0.96312600  0.48733000  0.99338300  1
  C  430  1  0.95257500  0.51929600  0.97202700  1
  C  431  1  0.90445600  0.54674400  0.96194800  1
  C  434  1  0.01210000  0.46262200  0.00438100  1
  C  435  1  0.02011100  0.45492400  0.03107700  1
  C  436  1  0.06763500  0.43789600  0.04182500  1
  C  437  1  0.10854900  0.42731500  0.02605200  1
  C  438  1  0.10145100  0.43283900  0.99945300  1
  C  439  1  0.05439000  0.44914000  0.98883300  1
  C  448  1  0.54617600  0.54783900  0.64026400  1
  C  449  1  0.51451500  0.57032000  0.66135800  1
  C  450  1  0.48545700  0.55052300  0.67079700  1
  C  451  1  0.52052800  0.48553500  0.63868500  1
  C  452  1  0.54810500  0.50607700  0.62863200  1
  C  455  1  0.46381000  0.48282900  0.67104100  1
  C  456  1  0.45619600  0.48247900  0.69774300  1
  C  457  1  0.43927500  0.45190100  0.70850100  1
  C  458  1  0.42848100  0.42171400  0.69274100  1
  C  459  1  0.43392100  0.42335200  0.66613700  1
  C  460  1  0.45017100  0.45414100  0.65549900  1
  N  10  1  0.45897400  0.20492700  0.84200500  1
  N  17  1  0.45862300  0.28630200  0.66167600  1
  N  19  1  0.50436500  0.28074700  0.77360400  1
  N  20  1  0.50225500  0.16819600  0.73188300  1
  N  44  1  0.20599900  0.29351000  0.50863100  1
  N  51  1  0.28790700  0.21257400  0.32839400  1
  N  53  1  0.28193600  0.17231400  0.44030100  1
  N  54  1  0.16951900  0.28667100  0.39846700  1
  N  78  1  0.29450400  0.45781300  0.17531300  1
  N  85  1  0.21389600  0.45716800  0.99499200  1
  N  87  1  0.17345700  0.50308300  0.10686900  1
  N  88  1  0.28820900  0.50088100  0.06521000  1
  N  112  1  0.51418400  0.76548700  0.34218200  1
  N  119  1  0.51470100  0.68452600  0.16183600  1
  N  121  1  0.46903900  0.68973300  0.27368600  1
  N  122  1  0.47114200  0.80248900  0.23204700  1
  N  146  1  0.76718000  0.67722100  0.00877200  1
  N  153  1  0.68570900  0.75830100  0.82845600  1
  N  155  1  0.69129600  0.79849600  0.94039100  1
  N  156  1  0.80381300  0.68384200  0.89865200  1
  N  180  1  0.67847400  0.51295600  0.67539500  1
  N  187  1  0.75962400  0.51372600  0.49515300  1
  N  189  1  0.79980200  0.46759600  0.60710300  1
  N  190  1  0.68546300  0.46956500  0.56528100  1
  N  227  1  0.47549800  0.29060300  0.84739200  1
  N  228  1  0.28953200  0.49813700  0.99275200  1
  N  249  1  0.29180300  0.19142600  0.51407200  1
  N  250  1  0.49949200  0.16969400  0.65943000  1
  N  271  1  0.19223400  0.47443267  0.18071600  1
  N  272  1  0.17120000  0.28799400  0.32607500  1
  N  293  1  0.49764400  0.67983200  0.34754800  1
  N  294  1  0.68414300  0.47246500  0.49291000  1
  N  315  1  0.68150000  0.77945500  0.01417900  1
  N  316  1  0.47388600  0.80107400  0.15956900  1
  N  337  1  0.78055300  0.49665200  0.68086600  1
  N  338  1  0.80230600  0.68253300  0.82619700  1
  N  359  1  0.58897800  0.82385800  0.86928500  1
  N  360  1  0.41858200  0.15098400  0.80132000  1
  N  381  1  0.82473700  0.54504300  0.53608600  1
  N  382  1  0.15216300  0.38788300  0.46788200  1
  N  402  1  0.54586900  0.58773400  0.20266900  1
  N  403  1  0.38873200  0.41790900  0.13469600  1
  N  424  1  0.38426500  0.14740800  0.36934400  1
  N  425  1  0.55385100  0.82032600  0.30148800  1
  N  446  1  0.14836900  0.42609000  0.03581800  1
  N  447  1  0.82103000  0.58288500  0.96802100  1
  N  467  1  0.42746000  0.38300900  0.70250300  1
  N  468  1  0.58419100  0.55344600  0.63457600  1
