# generated using pymatgen
data_Ni5H22C16(N2O9)2
_symmetry_space_group_name_H-M   'P 1'
_cell_length_a   11.87626000
_cell_length_b   18.27242000
_cell_length_c   18.27242000
_cell_angle_alpha   89.94501000
_cell_angle_beta   89.86112000
_cell_angle_gamma   89.86112000
_symmetry_Int_Tables_number   1
_chemical_formula_structural   Ni5H22C16(N2O9)2
_chemical_formula_sum   'Ni20 H88 C64 N16 O72'
_cell_volume   3965.23641451
_cell_formula_units_Z   4
loop_
 _symmetry_equiv_pos_site_id
 _symmetry_equiv_pos_as_xyz
  1  'x, y, z'
loop_
 _atom_site_type_symbol
 _atom_site_label
 _atom_site_symmetry_multiplicity
 _atom_site_fract_x
 _atom_site_fract_y
 _atom_site_fract_z
 _atom_site_occupancy
  Ni  Ni0  1  0.84051000  0.54278000  0.05795000  1
  Ni  Ni1  1  0.06249000  0.59266000  0.12391000  1
  Ni  Ni2  1  0.34218000  0.45765000  0.94207000  1
  Ni  Ni3  1  0.56470000  0.40729000  0.87587000  1
  Ni  Ni4  1  0.09139000  0.55788000  0.95730000  1
  Ni  Ni5  1  0.31399000  0.62416000  0.90720000  1
  Ni  Ni6  1  0.58995000  0.44237000  0.04262000  1
  Ni  Ni7  1  0.81163000  0.37630000  0.09272000  1
  Ni  Ni8  1  0.41004000  0.95738000  0.55763000  1
  Ni  Ni9  1  0.18837000  0.90728000  0.62370000  1
  Ni  Ni10  1  0.90862000  0.04270000  0.44212000  1
  Ni  Ni11  1  0.68601000  0.09279000  0.37584000  1
  Ni  Ni12  1  0.15949000  0.94205000  0.45722000  1
  Ni  Ni13  1  0.93751000  0.87609000  0.40735000  1
  Ni  Ni14  1  0.65782000  0.05793000  0.54234000  1
  Ni  Ni15  1  0.43530000  0.12413000  0.59271000  1
  Ni  Ni16  1  0.99999000  0.74076000  0.25929000  1
  Ni  Ni17  1  0.50000000  0.25791000  0.74209000  1
  Ni  Ni18  1  0.25108000  0.75799000  0.75657000  1
  Ni  Ni19  1  0.74892000  0.24342000  0.24201000  1
  H  H20  1  0.07790000  0.56362000  0.25823000  1
  H  H21  1  0.20644000  0.55322000  0.23395000  1
  H  H22  1  0.89042000  0.82881000  0.16660000  1
  H  H23  1  0.83305000  0.83351000  0.24943000  1
  H  H24  1  0.10405000  0.43340000  0.25734000  1
  H  H25  1  0.17801000  0.36871000  0.15193000  1
  H  H26  1  0.27763000  0.43474000  0.17927000  1
  H  H27  1  0.72904000  0.76066000  0.14603000  1
  H  H28  1  0.64941000  0.76225000  0.26593000  1
  H  H29  1  0.66474000  0.66965000  0.24186000  1
  H  H30  1  0.70018000  0.49314000  0.14733000  1
  H  H31  1  0.58035000  0.43616000  0.74176000  1
  H  H32  1  0.70919000  0.44597000  0.76544000  1
  H  H33  1  0.39048000  0.16944000  0.83481000  1
  H  H34  1  0.33311000  0.16626000  0.75210000  1
  H  H35  1  0.60698000  0.56655000  0.74236000  1
  H  H36  1  0.67944000  0.63104000  0.84766000  1
  H  H37  1  0.77982000  0.56476000  0.82113000  1
  H  H38  1  0.23143000  0.23989000  0.85733000  1
  H  H39  1  0.14939000  0.23795000  0.73800000  1
  H  H40  1  0.16607000  0.33064000  0.76142000  1
  H  H41  1  0.20329000  0.50704000  0.85265000  1
  H  H42  1  0.32910000  0.75834000  0.93595000  1
  H  H43  1  0.45804000  0.73430000  0.94579000  1
  H  H44  1  0.14262000  0.66446000  0.66997000  1
  H  H45  1  0.08436000  0.74714000  0.66521000  1
  H  H46  1  0.35508000  0.75764000  0.06623000  1
  H  H47  1  0.42828000  0.65226000  0.13114000  1
  H  H48  1  0.52868000  0.67915000  0.06510000  1
  H  H49  1  0.98244000  0.64262000  0.73900000  1
  H  H50  1  0.89978000  0.76210000  0.73581000  1
  H  H51  1  0.91417000  0.73847000  0.82853000  1
  H  H52  1  0.95156000  0.64734000  0.00650000  1
  H  H53  1  0.83007000  0.24194000  0.06478000  1
  H  H54  1  0.95812000  0.26728000  0.05464000  1
  H  H55  1  0.63810000  0.33586000  0.33055000  1
  H  H56  1  0.58229000  0.25268000  0.33431000  1
  H  H57  1  0.85610000  0.24281000  0.93451000  1
  H  H58  1  0.92915000  0.34796000  0.86933000  1
  H  H59  1  0.02903000  0.32066000  0.93538000  1
  H  H60  1  0.47863000  0.35747000  0.26119000  1
  H  H61  1  0.39846000  0.23744000  0.26486000  1
  H  H62  1  0.41203000  0.26112000  0.17202000  1
  H  H63  1  0.45241000  0.35257000  0.99290000  1
  H  H64  1  0.16993000  0.93522000  0.75805000  1
  H  H65  1  0.04188000  0.94536000  0.73271000  1
  H  H66  1  0.36190000  0.66945000  0.66414000  1
  H  H67  1  0.41771000  0.66569000  0.74732000  1
  H  H68  1  0.14390000  0.06548000  0.75719000  1
  H  H69  1  0.07086000  0.13066000  0.65204000  1
  H  H70  1  0.97098000  0.06462000  0.67934000  1
  H  H71  1  0.52137000  0.73881000  0.64253000  1
  H  H72  1  0.60154000  0.73514000  0.76256000  1
  H  H73  1  0.58797000  0.82798000  0.73888000  1
  H  H74  1  0.54759000  0.00710000  0.64743000  1
  H  H75  1  0.67090000  0.06405000  0.24166000  1
  H  H76  1  0.54196000  0.05421000  0.26570000  1
  H  H77  1  0.85739000  0.33003000  0.33554000  1
  H  H78  1  0.91564000  0.33479000  0.25286000  1
  H  H79  1  0.64491000  0.93377000  0.24236000  1
  H  H80  1  0.57172000  0.86886000  0.34774000  1
  H  H81  1  0.47132000  0.93490000  0.32084000  1
  H  H82  1  0.01756000  0.26100000  0.35738000  1
  H  H83  1  0.10022000  0.26418000  0.23790000  1
  H  H84  1  0.08583000  0.17147000  0.26152000  1
  H  H85  1  0.04844000  0.99349000  0.35266000  1
  H  H86  1  0.92210000  0.74176000  0.43638000  1
  H  H87  1  0.79356000  0.76604000  0.44677000  1
  H  H88  1  0.10957000  0.83339000  0.17119000  1
  H  H89  1  0.16696000  0.75056000  0.16648000  1
  H  H90  1  0.89594000  0.74266000  0.56660000  1
  H  H91  1  0.82199000  0.84807000  0.63129000  1
  H  H92  1  0.72237000  0.82072000  0.56526000  1
  H  H93  1  0.27095000  0.85397000  0.23934000  1
  H  H94  1  0.35059000  0.73407000  0.23775000  1
  H  H95  1  0.33525000  0.75813000  0.33035000  1
  H  H96  1  0.29982000  0.85267000  0.50686000  1
  H  H97  1  0.41965000  0.25824000  0.56384000  1
  H  H98  1  0.29081000  0.23456000  0.55403000  1
  H  H99  1  0.60953000  0.16519000  0.83056000  1
  H  H100  1  0.66689000  0.24790000  0.83374000  1
  H  H101  1  0.39302000  0.25764000  0.43345000  1
  H  H102  1  0.32056000  0.15234000  0.36896000  1
  H  H103  1  0.22018000  0.17887000  0.43524000  1
  H  H104  1  0.76857000  0.14267000  0.76011000  1
  H  H105  1  0.85061000  0.26200000  0.76205000  1
  H  H106  1  0.83393000  0.23858000  0.66936000  1
  H  H107  1  0.79671000  0.14735000  0.49296000  1
  C  C108  1  0.98689000  0.45546000  0.17095000  1
  C  C109  1  0.10391000  0.46368000  0.20514000  1
  C  C110  1  0.19328000  0.42799000  0.15523000  1
  C  C111  1  0.20046000  0.45608000  0.07669000  1
  C  C112  1  0.84783000  0.67535000  0.15678000  1
  C  C113  1  0.78553000  0.74130000  0.18960000  1
  C  C114  1  0.71243000  0.71932000  0.25551000  1
  C  C115  1  0.77343000  0.70569000  0.32848000  1
  C  C116  1  0.48936000  0.54456000  0.82870000  1
  C  C117  1  0.60653000  0.53612000  0.79446000  1
  C  C118  1  0.69494000  0.57173000  0.84463000  1
  C  C119  1  0.70066000  0.54410000  0.92333000  1
  C  C120  1  0.35011000  0.32457000  0.84413000  1
  C  C121  1  0.28703000  0.25842000  0.81285000  1
  C  C122  1  0.21290000  0.28048000  0.74766000  1
  C  C123  1  0.27328000  0.29339000  0.67433000  1
  C  C124  1  0.23820000  0.67125000  0.04446000  1
  C  C125  1  0.35519000  0.70553000  0.03598000  1
  C  C126  1  0.44400000  0.65548000  0.07184000  1
  C  C127  1  0.45053000  0.57687000  0.04413000  1
  C  C128  1  0.09962000  0.65605000  0.82432000  1
  C  C129  1  0.03735000  0.68715000  0.75771000  1
  C  C130  1  0.96239000  0.75234000  0.77895000  1
  C  C131  1  0.02248000  0.82548000  0.79253000  1
  C  C132  1  0.73814000  0.32893000  0.95575000  1
  C  C133  1  0.85549000  0.29502000  0.96458000  1
  C  C134  1  0.94454000  0.34477000  0.92860000  1
  C  C135  1  0.95124000  0.42339000  0.95616000  1
  C  C136  1  0.59658000  0.34424000  0.17568000  1
  C  C137  1  0.53438000  0.31312000  0.24243000  1
  C  C138  1  0.46065000  0.24756000  0.22140000  1
  C  C139  1  0.52196000  0.17460000  0.20779000  1
  C  C140  1  0.26187000  0.04425000  0.67107000  1
  C  C141  1  0.14451000  0.03542000  0.70498000  1
  C  C142  1  0.05547000  0.07139000  0.65523000  1
  C  C143  1  0.04876000  0.04384000  0.57661000  1
  C  C144  1  0.40342000  0.82432000  0.65576000  1
  C  C145  1  0.46562000  0.75757000  0.68688000  1
  C  C146  1  0.53935000  0.77860000  0.75244000  1
  C  C147  1  0.47804000  0.79221000  0.82540000  1
  C  C148  1  0.76180000  0.95554000  0.32874000  1
  C  C149  1  0.64480000  0.96402000  0.29447000  1
  C  C150  1  0.55600000  0.92816000  0.34452000  1
  C  C151  1  0.54947000  0.95587000  0.42313000  1
  C  C152  1  0.90038000  0.17568000  0.34395000  1
  C  C153  1  0.96266000  0.24229000  0.31284000  1
  C  C154  1  0.03762000  0.22104000  0.24766000  1
  C  C155  1  0.97752000  0.20747000  0.17452000  1
  C  C156  1  0.01311000  0.82905000  0.54453000  1
  C  C157  1  0.89609000  0.79486000  0.53632000  1
  C  C158  1  0.80672000  0.84476000  0.57200000  1
  C  C159  1  0.79954000  0.92331000  0.54392000  1
  C  C160  1  0.15217000  0.84321000  0.32465000  1
  C  C161  1  0.21446000  0.81040000  0.25869000  1
  C  C162  1  0.28756000  0.74449000  0.28067000  1
  C  C163  1  0.22657000  0.67151000  0.29431000  1
  C  C164  1  0.51064000  0.17129000  0.45544000  1
  C  C165  1  0.39347000  0.20554000  0.46388000  1
  C  C166  1  0.30506000  0.15537000  0.42827000  1
  C  C167  1  0.29935000  0.07667000  0.45590000  1
  C  C168  1  0.64989000  0.15587000  0.67543000  1
  C  C169  1  0.71297000  0.18715000  0.74158000  1
  C  C170  1  0.78710000  0.25234000  0.71952000  1
  C  C171  1  0.72672000  0.32567000  0.70661000  1
  N  N172  1  0.12535000  0.54229000  0.21612000  1
  N  N173  1  0.86708000  0.79845000  0.21105000  1
  N  N174  1  0.62816000  0.45747000  0.78346000  1
  N  N175  1  0.36743000  0.20052000  0.79083000  1
  N  N176  1  0.37696000  0.71650000  0.95731000  1
  N  N177  1  0.11864000  0.70883000  0.70017000  1
  N  N178  1  0.87664000  0.28427000  0.04329000  1
  N  N179  1  0.61581000  0.29163000  0.29977000  1
  N  N180  1  0.12336000  0.95671000  0.71573000  1
  N  N181  1  0.38419000  0.70023000  0.70837000  1
  N  N182  1  0.62304000  0.04269000  0.28350000  1
  N  N183  1  0.88136000  0.29983000  0.29116000  1
  N  N184  1  0.87465000  0.78387000  0.45771000  1
  N  N185  1  0.13292000  0.78894000  0.20154000  1
  N  N186  1  0.37184000  0.21654000  0.54253000  1
  N  N187  1  0.63257000  0.20917000  0.79948000  1
  O  O188  1  0.94205000  0.51481000  0.14788000  1
  O  O189  1  0.94267000  0.39257000  0.16663000  1
  O  O190  1  0.26206000  0.42003000  0.03353000  1
  O  O191  1  0.14441000  0.51400000  0.05899000  1
  O  O192  1  0.95436000  0.67014000  0.17063000  1
  O  O193  1  0.78880000  0.63302000  0.11837000  1
  O  O194  1  0.88164000  0.69713000  0.32895000  1
  O  O195  1  0.71246000  0.70388000  0.38457000  1
  O  O196  1  0.72555000  0.47412000  0.10046000  1
  O  O197  1  0.44481000  0.48536000  0.85209000  1
  O  O198  1  0.44504000  0.60757000  0.83307000  1
  O  O199  1  0.75999000  0.58100000  0.96678000  1
  O  O200  1  0.64610000  0.48570000  0.94095000  1
  O  O201  1  0.45649000  0.32961000  0.82955000  1
  O  O202  1  0.29117000  0.36759000  0.88211000  1
  O  O203  1  0.38177000  0.30019000  0.67338000  1
  O  O204  1  0.21160000  0.29624000  0.61878000  1
  O  O205  1  0.22797000  0.52619000  0.89951000  1
  O  O206  1  0.19381000  0.64787000  0.98532000  1
  O  O207  1  0.19379000  0.66666667  0.10746000  1
  O  O208  1  0.50924000  0.53315000  0.08135000  1
  O  O209  1  0.39743000  0.55929000  0.98530000  1
  O  O210  1  0.20581000  0.67053000  0.82956000  1
  O  O211  1  0.04032000  0.61818000  0.86725000  1
  O  O212  1  0.13096000  0.82609000  0.79985000  1
  O  O213  1  0.96067000  0.88114000  0.79563000  1
  O  O214  1  0.97659000  0.60055000  0.02592000  1
  O  O215  1  0.69183000  0.35193000  0.01468000  1
  O  O216  1  0.69501000  0.33317000  0.89250000  1
  O  O217  1  0.01128000  0.46665000  0.91921000  1
  O  O218  1  0.89668000  0.44107000  0.01464000  1
  O  O219  1  0.70297000  0.32970000  0.17024000  1
  O  O220  1  0.53742000  0.38203000  0.13271000  1
  O  O221  1  0.63025000  0.17408000  0.19994000  1
  O  O222  1  0.46122000  0.11865000  0.20527000  1
  O  O223  1  0.47711000  0.39949000  0.97378000  1
  O  O224  1  0.30816000  0.98532000  0.64807000  1
  O  O225  1  0.30499000  0.10750000  0.66683000  1
  O  O226  1  0.98872000  0.08079000  0.53335000  1
  O  O227  1  0.10332000  0.98536000  0.55893000  1
  O  O228  1  0.29703000  0.82976000  0.67030000  1
  O  O229  1  0.46258000  0.86729000  0.61796000  1
  O  O230  1  0.36976000  0.80006000  0.82592000  1
  O  O231  1  0.53879000  0.79472000  0.88134000  1
  O  O232  1  0.52289000  0.02621000  0.60051000  1
  O  O233  1  0.80619000  0.01468000  0.35213000  1
  O  O234  1  0.80621000  0.89253000  0.33333333  1
  O  O235  1  0.49076000  0.91864000  0.46685000  1
  O  O236  1  0.60256000  0.01470000  0.44071000  1
  O  O237  1  0.79419000  0.17044000  0.32947000  1
  O  O238  1  0.95968000  0.13275000  0.38182000  1
  O  O239  1  0.86904000  0.20015000  0.17391000  1
  O  O240  1  0.03933000  0.20437000  0.11886000  1
  O  O241  1  0.02341000  0.97408000  0.39944000  1
  O  O242  1  0.05794000  0.85211000  0.48519000  1
  O  O243  1  0.05733000  0.83336000  0.60743000  1
  O  O244  1  0.73794000  0.96647000  0.57997000  1
  O  O245  1  0.85559000  0.94101000  0.48599000  1
  O  O246  1  0.04564000  0.82937000  0.32986000  1
  O  O247  1  0.21120000  0.88163000  0.36697000  1
  O  O248  1  0.11836000  0.67104000  0.30286000  1
  O  O249  1  0.28754000  0.61543000  0.29612000  1
  O  O250  1  0.27445000  0.89954000  0.52588000  1
  O  O251  1  0.55519000  0.14791000  0.51464000  1
  O  O252  1  0.55496000  0.16693000  0.39243000  1
  O  O253  1  0.24001000  0.03321000  0.41900000  1
  O  O254  1  0.35390000  0.05905000  0.51430000  1
  O  O255  1  0.54351000  0.17045000  0.67039000  1
  O  O256  1  0.70883000  0.11789000  0.63241000  1
  O  O257  1  0.61823000  0.32662000  0.69981000  1
  O  O258  1  0.78840000  0.38122000  0.70375000  1
  O  O259  1  0.77203000  0.10049000  0.47381000  1
