# generated using pymatgen
data_H18C22N3O4
_symmetry_space_group_name_H-M   'P 1'
_cell_length_a   31.45655000
_cell_length_b   31.45660000
_cell_length_c   34.37640000
_cell_angle_alpha   90.00000000
_cell_angle_beta   90.00000000
_cell_angle_gamma   120.00015774
_symmetry_Int_Tables_number   1
_chemical_formula_structural   H18C22N3O4
_chemical_formula_sum   'H216 C264 N36 O48'
_cell_volume   29458.67472134
_cell_formula_units_Z   12
loop_
 _symmetry_equiv_pos_site_id
 _symmetry_equiv_pos_as_xyz
  1  'x, y, z'
loop_
 _atom_site_type_symbol
 _atom_site_label
 _atom_site_symmetry_multiplicity
 _atom_site_fract_x
 _atom_site_fract_y
 _atom_site_fract_z
 _atom_site_occupancy
  H  7  1  0.41140600  0.44577800  0.03474700  1
  H  8  1  0.38142000  0.55448700  0.99622600  1
  H  15  1  0.56967800  0.41075400  0.99625500  1
  H  16  1  0.47153000  0.44750300  0.94512300  1
  H  19  1  0.55225100  0.55945600  0.96663500  1
  H  20  1  0.54188500  0.60339800  0.95284400  1
  H  21  1  0.54122000  0.50323000  0.09067200  1
  H  22  1  0.50625100  0.52102100  0.06898600  1
  H  37  1  0.00695700  0.55268300  0.36818000  1
  H  38  1  0.14560200  0.58247500  0.32969100  1
  H  45  1  0.81358600  0.39446300  0.32960100  1
  H  46  1  0.94852700  0.49263800  0.27854000  1
  H  49  1  0.97960800  0.41179700  0.30004000  1
  H  50  1  0.03389200  0.42208300  0.28626600  1
  H  51  1  0.93443900  0.42291200  0.42408400  1
  H  52  1  0.98721700  0.45786100  0.40242100  1
  H  67  1  0.51834500  0.95725900  0.70141400  1
  H  68  1  0.40946300  0.81852300  0.66312600  1
  H  75  1  0.55328000  0.15051800  0.66277100  1
  H  76  1  0.51647100  0.01552300  0.61178900  1
  H  79  1  0.40462400  0.98438900  0.63332100  1
  H  80  1  0.36060100  0.93010600  0.61957900  1
  H  81  1  0.46122100  0.02982000  0.75743200  1
  H  82  1  0.44339600  0.97702300  0.73579300  1
  H  97  1  0.40990800  0.20309900  0.88591900  1
  H  98  1  0.41744700  0.26599300  0.92937000  1
  H  105  1  0.51553600  0.21803700  0.84567900  1
  H  106  1  0.52044300  0.15895200  0.80559900  1
  H  107  1  0.39680900  0.13731400  0.74259100  1
  H  108  1  0.50829100  0.37436500  0.84907900  1
  H  112  1  0.39093500  0.23855300  0.77832100  1
  H  113  1  0.35445200  0.18930300  0.80983100  1
  H  114  1  0.35821700  0.18641300  0.72734500  1
  H  116  1  0.50144800  0.28814200  0.77247700  1
  H  117  1  0.49835200  0.34218900  0.77770600  1
  H  118  1  0.57802900  0.35693300  0.77390700  1
  H  120  1  0.44149300  0.35589700  0.93361400  1
  H  122  1  0.43444300  0.08797200  0.73125800  1
  H  129  1  0.76580000  0.55428500  0.21922000  1
  H  130  1  0.82116600  0.54677500  0.26267400  1
  H  137  1  0.67505500  0.44864100  0.17907000  1
  H  138  1  0.61104900  0.44372300  0.13900200  1
  H  139  1  0.71304500  0.56724100  0.07588000  1
  H  140  1  0.83861500  0.45581800  0.18244800  1
  H  144  1  0.82015200  0.57308200  0.11158800  1
  H  145  1  0.80744900  0.60963700  0.14306900  1
  H  146  1  0.80071600  0.60574900  0.06058800  1
  H  148  1  0.75918200  0.46258200  0.10584800  1
  H  149  1  0.81632500  0.46567300  0.11106700  1
  H  150  1  0.75137800  0.38599500  0.10734400  1
  H  152  1  0.88698300  0.52268300  0.26695900  1
  H  154  1  0.62607000  0.52966000  0.06460200  1
  H  161  1  0.76084700  0.19821200  0.55253900  1
  H  162  1  0.69788600  0.14279400  0.59591700  1
  H  169  1  0.74612800  0.28904600  0.51244700  1
  H  170  1  0.80529100  0.35308400  0.47243400  1
  H  171  1  0.82672400  0.25109100  0.40922200  1
  H  172  1  0.58963000  0.12549600  0.51559500  1
  H  176  1  0.72537400  0.14398500  0.44483100  1
  H  177  1  0.77458700  0.15659700  0.47633500  1
  H  178  1  0.77752900  0.16344800  0.39386000  1
  H  180  1  0.67596800  0.20503200  0.43910900  1
  H  181  1  0.62190400  0.14788100  0.44424600  1
  H  182  1  0.60718700  0.21283800  0.44054600  1
  H  184  1  0.60800900  0.07697200  0.60001900  1
  H  186  1  0.87617100  0.33809300  0.39798800  1
  H  193  1  0.53225300  0.77321900  0.89111700  1
  H  194  1  0.52117500  0.70827500  0.93330800  1
  H  201  1  0.43157400  0.75604600  0.83798700  1
  H  202  1  0.43168300  0.81802800  0.79762800  1
  H  203  1  0.56946400  0.85327200  0.75253700  1
  H  204  1  0.44675100  0.60518300  0.84469500  1
  H  208  1  0.57240600  0.74956000  0.78738700  1
  H  209  1  0.60099700  0.79549100  0.82320300  1
  H  210  1  0.61297500  0.80749500  0.74126000  1
  H  212  1  0.46320800  0.69615100  0.76914000  1
  H  213  1  0.46758800  0.64289100  0.77505700  1
  H  214  1  0.38837300  0.62591700  0.76236000  1
  H  216  1  0.47190300  0.58350900  0.90477600  1
  H  218  1  0.48919000  0.89580900  0.75826500  1
  H  225  1  0.21337400  0.43164300  0.22450500  1
  H  226  1  0.15949800  0.44269200  0.26670900  1
  H  233  1  0.29688300  0.53237500  0.17149200  1
  H  234  1  0.35878700  0.53243000  0.13107200  1
  H  235  1  0.25632900  0.39476700  0.08575000  1
  H  236  1  0.13085400  0.51717700  0.17813100  1
  H  240  1  0.14963600  0.39163200  0.12069300  1
  H  241  1  0.16697600  0.36297400  0.15645300  1
  H  242  1  0.16705500  0.35119100  0.07449000  1
  H  244  1  0.20537700  0.50077100  0.10256100  1
  H  245  1  0.14773700  0.49638900  0.10848100  1
  H  246  1  0.20998400  0.57561400  0.09582400  1
  H  248  1  0.08404700  0.49204200  0.23821800  1
  H  250  1  0.37898900  0.47493200  0.09167300  1
  H  257  1  0.19069100  0.75053100  0.55804000  1
  H  258  1  0.25564200  0.80440400  0.60022300  1
  H  265  1  0.20786900  0.66704600  0.50493100  1
  H  266  1  0.14603000  0.60519600  0.46446700  1
  H  267  1  0.11083000  0.70770800  0.41926400  1
  H  268  1  0.35870800  0.83308900  0.51158600  1
  H  272  1  0.21437500  0.81435100  0.45427400  1
  H  273  1  0.16838000  0.79697700  0.49003900  1
  H  274  1  0.15651300  0.79699300  0.40808200  1
  H  276  1  0.26773300  0.75857700  0.43604000  1
  H  277  1  0.32098800  0.81621900  0.44195700  1
  H  278  1  0.33797400  0.75399000  0.42924800  1
  H  280  1  0.38041900  0.87989700  0.57165700  1
  H  282  1  0.06825100  0.58510600  0.42508800  1
  H  289  1  0.41140600  0.44577800  0.56931100  1
  H  290  1  0.38142000  0.55448700  0.53079000  1
  H  297  1  0.56967800  0.41075400  0.53081900  1
  H  298  1  0.47153000  0.44750300  0.47968700  1
  H  301  1  0.55225100  0.55945600  0.50119900  1
  H  302  1  0.54188500  0.60339800  0.48740800  1
  H  303  1  0.54122000  0.50323000  0.62523600  1
  H  304  1  0.50625100  0.52102100  0.60355000  1
  H  319  1  0.00695700  0.55268300  0.90274440  1
  H  320  1  0.14560200  0.58247500  0.86425500  1
  H  327  1  0.81358600  0.39446300  0.86416500  1
  H  328  1  0.94852700  0.49263800  0.81310400  1
  H  331  1  0.97960800  0.41179700  0.83460400  1
  H  332  1  0.03389200  0.42208300  0.82083000  1
  H  333  1  0.93443900  0.42291200  0.95864840  1
  H  334  1  0.98721700  0.45786100  0.93698540  1
  H  349  1  0.51834500  0.95725900  0.23597800  1
  H  350  1  0.40946300  0.81852300  0.19769000  1
  H  357  1  0.55328000  0.15051800  0.19733500  1
  H  358  1  0.51647100  0.01552300  0.14635300  1
  H  361  1  0.40462400  0.98438900  0.16788500  1
  H  362  1  0.36060100  0.93010600  0.15414300  1
  H  363  1  0.46122100  0.02982000  0.29199600  1
  H  364  1  0.44339600  0.97702300  0.27035700  1
  H  379  1  0.40990800  0.20309900  0.42048300  1
  H  380  1  0.41744700  0.26599300  0.46393400  1
  H  387  1  0.51553600  0.21803700  0.38024300  1
  H  388  1  0.52044300  0.15895200  0.34016300  1
  H  389  1  0.39680900  0.13731400  0.27715500  1
  H  390  1  0.50829100  0.37436500  0.38364300  1
  H  394  1  0.39093500  0.23855300  0.31288500  1
  H  395  1  0.35445200  0.18930300  0.34439500  1
  H  396  1  0.35821700  0.18641300  0.26190900  1
  H  398  1  0.50144800  0.28814200  0.30704100  1
  H  399  1  0.49835200  0.34218900  0.31227000  1
  H  400  1  0.57802900  0.35693300  0.30847100  1
  H  402  1  0.44149300  0.35589700  0.46817800  1
  H  404  1  0.43444300  0.08797200  0.26582200  1
  H  411  1  0.76580000  0.55428500  0.75378400  1
  H  412  1  0.82116600  0.54677500  0.79723800  1
  H  419  1  0.67505500  0.44864100  0.71363400  1
  H  420  1  0.61104900  0.44372300  0.67356600  1
  H  421  1  0.71304500  0.56724100  0.61044400  1
  H  422  1  0.83861500  0.45581800  0.71701200  1
  H  426  1  0.82015200  0.57308200  0.64615200  1
  H  427  1  0.80744900  0.60963700  0.67763300  1
  H  428  1  0.80071600  0.60574900  0.59515200  1
  H  430  1  0.75918200  0.46258200  0.64041200  1
  H  431  1  0.81632500  0.46567300  0.64563100  1
  H  432  1  0.75137800  0.38599500  0.64190800  1
  H  434  1  0.88698300  0.52268300  0.80152300  1
  H  436  1  0.62607000  0.52966000  0.59916600  1
  H  443  1  0.76084700  0.19821200  0.08710300  1
  H  444  1  0.69788600  0.14279400  0.13048100  1
  H  451  1  0.74612800  0.28904600  0.04701100  1
  H  452  1  0.80529100  0.35308400  0.00699800  1
  H  453  1  0.82672400  0.25109100  0.94378640  1
  H  454  1  0.58963000  0.12549600  0.05015900  1
  H  458  1  0.72537400  0.14398500  0.97939540  1
  H  459  1  0.77458700  0.15659700  0.01089900  1
  H  460  1  0.77752900  0.16344800  0.92842440  1
  H  462  1  0.67596800  0.20503200  0.97367340  1
  H  463  1  0.62190400  0.14788100  0.97881040  1
  H  464  1  0.60718700  0.21283800  0.97511040  1
  H  466  1  0.60800900  0.07697200  0.13458300  1
  H  468  1  0.87617100  0.33809300  0.93255240  1
  H  475  1  0.53225300  0.77321900  0.42568100  1
  H  476  1  0.52117500  0.70827500  0.46787200  1
  H  483  1  0.43157400  0.75604600  0.37255100  1
  H  484  1  0.43168300  0.81802800  0.33219200  1
  H  485  1  0.56946400  0.85327200  0.28710100  1
  H  486  1  0.44675100  0.60518300  0.37925900  1
  H  490  1  0.57240600  0.74956000  0.32195100  1
  H  491  1  0.60099700  0.79549100  0.35776700  1
  H  492  1  0.61297500  0.80749500  0.27582400  1
  H  494  1  0.46320800  0.69615100  0.30370400  1
  H  495  1  0.46758800  0.64289100  0.30962100  1
  H  496  1  0.38837300  0.62591700  0.29692400  1
  H  498  1  0.47190300  0.58350900  0.43934000  1
  H  500  1  0.48919000  0.89580900  0.29282900  1
  H  507  1  0.21337400  0.43164300  0.75906900  1
  H  508  1  0.15949800  0.44269200  0.80127300  1
  H  515  1  0.29688300  0.53237500  0.70605600  1
  H  516  1  0.35878700  0.53243000  0.66563600  1
  H  517  1  0.25632900  0.39476700  0.62031400  1
  H  518  1  0.13085400  0.51717700  0.71269500  1
  H  522  1  0.14963600  0.39163200  0.65525700  1
  H  523  1  0.16697600  0.36297400  0.69101700  1
  H  524  1  0.16705500  0.35119100  0.60905400  1
  H  526  1  0.20537700  0.50077100  0.63712500  1
  H  527  1  0.14773700  0.49638900  0.64304500  1
  H  528  1  0.20998400  0.57561400  0.63038800  1
  H  530  1  0.08404700  0.49204200  0.77278200  1
  H  532  1  0.37898900  0.47493200  0.62623700  1
  H  539  1  0.19069100  0.75053100  0.09260400  1
  H  540  1  0.25564200  0.80440400  0.13478700  1
  H  547  1  0.20786900  0.66704600  0.03949500  1
  H  548  1  0.14603000  0.60519600  0.99903141  1
  H  549  1  0.11083000  0.70770800  0.95382840  1
  H  550  1  0.35870800  0.83308900  0.04615000  1
  H  554  1  0.21437500  0.81435100  0.98883840  1
  H  555  1  0.16838000  0.79697700  0.02460300  1
  H  556  1  0.15651300  0.79699300  0.94264640  1
  H  558  1  0.26773300  0.75857700  0.97060440  1
  H  559  1  0.32098800  0.81621900  0.97652140  1
  H  560  1  0.33797400  0.75399000  0.96381240  1
  H  562  1  0.38041900  0.87989700  0.10622100  1
  H  564  1  0.06825100  0.58510600  0.95965240  1
  C  1  1  0.46736300  0.50103500  0.00011200  1
  C  2  1  0.42181700  0.47764700  0.01968500  1
  C  3  1  0.39035300  0.49738000  0.01903300  1
  C  4  1  0.40445100  0.54026200  0.99710200  1
  C  5  1  0.44993900  0.56469900  0.97728400  1
  C  6  1  0.48278600  0.54578400  0.97946900  1
  C  9  1  0.49585900  0.47743000  0.00131200  1
  C  10  1  0.52495400  0.47990900  0.03404900  1
  C  11  1  0.55281600  0.45542200  0.03172800  1
  C  12  1  0.54996900  0.42860500  0.99780100  1
  C  13  1  0.51969800  0.42458300  0.96619700  1
  C  14  1  0.49307300  0.44951100  0.96824800  1
  C  23  1  0.51535000  0.39514900  0.93348300  1
  C  24  1  0.58405600  0.45636300  0.06214100  1
  C  25  1  0.46057000  0.60753200  0.95563700  1
  C  26  1  0.34656300  0.47600600  0.04141800  1
  C  31  1  0.00617800  0.49669900  0.33353100  1
  C  32  1  0.02838600  0.54223500  0.35312000  1
  C  33  1  0.07960000  0.57363100  0.35250000  1
  C  34  1  0.10834100  0.55947500  0.33057500  1
  C  35  1  0.08723800  0.51400900  0.31072200  1
  C  36  1  0.03546000  0.48122700  0.31288300  1
  C  39  1  0.95407900  0.46826200  0.33472100  1
  C  40  1  0.92743800  0.43914000  0.36744100  1
  C  41  1  0.87509200  0.41127400  0.36508500  1
  C  42  1  0.85114400  0.41417400  0.33116600  1
  C  43  1  0.87741800  0.44447500  0.29958300  1
  C  44  1  0.92897200  0.47108200  0.30165100  1
  C  53  1  0.85235200  0.44882700  0.26685400  1
  C  54  1  0.84472600  0.37993500  0.39542500  1
  C  55  1  0.11940100  0.50333100  0.28906700  1
  C  56  1  0.10211200  0.61740000  0.37489900  1
  C  61  1  0.46301300  0.95793600  0.66685900  1
  C  62  1  0.48643400  0.93578800  0.68640100  1
  C  63  1  0.46664900  0.88458100  0.68582800  1
  C  64  1  0.42370700  0.85577900  0.66397000  1
  C  65  1  0.39926200  0.87682200  0.64414500  1
  C  66  1  0.41822200  0.92859500  0.64627800  1
  C  69  1  0.48665100  0.01003700  0.66800500  1
  C  70  1  0.48421800  0.03671300  0.70071300  1
  C  71  1  0.50866400  0.08905700  0.69831600  1
  C  72  1  0.53543300  0.11296600  0.66435400  1
  C  73  1  0.53942200  0.08665700  0.63277700  1
  C  74  1  0.51450000  0.03510700  0.63489500  1
  C  83  1  0.56880400  0.11166700  0.60002500  1
  C  84  1  0.50775800  0.11944100  0.72867800  1
  C  85  1  0.35640200  0.84461400  0.62253400  1
  C  86  1  0.48803300  0.86215400  0.70820700  1
  C  91  1  0.46420600  0.32578700  0.89312400  1
  C  92  1  0.48750000  0.33806500  0.85644300  1
  C  93  1  0.48325000  0.30163400  0.83001700  1
  C  94  1  0.45453800  0.25139600  0.84110500  1
  C  95  1  0.43015100  0.23900900  0.87737200  1
  C  96  1  0.43434400  0.27580900  0.90282600  1
  C  99  1  0.45256800  0.21293500  0.81823000  1
  C  100  1  0.48985300  0.20111300  0.82424400  1
  C  101  1  0.49322200  0.16689600  0.80023800  1
  C  102  1  0.46033600  0.14453500  0.76892800  1
  C  103  1  0.42136100  0.15442100  0.76462800  1
  C  104  1  0.41687100  0.18866900  0.78856500  1
  C  109  1  0.50974600  0.31852300  0.79220000  1
  C  110  1  0.37584900  0.19917300  0.78299700  1
  C  123  1  0.83416700  0.49996400  0.22646300  1
  C  124  1  0.82312000  0.47662700  0.18979600  1
  C  125  1  0.79092700  0.48085600  0.16337000  1
  C  126  1  0.76942200  0.50959200  0.17443900  1
  C  127  1  0.78145100  0.53402500  0.21068500  1
  C  128  1  0.81407100  0.52984900  0.23614400  1
  C  131  1  0.73292300  0.51155200  0.15156300  1
  C  132  1  0.68381200  0.47429800  0.15761400  1
  C  133  1  0.64621700  0.47092200  0.13361500  1
  C  134  1  0.65673200  0.50377300  0.10227900  1
  C  135  1  0.70560000  0.54271600  0.09793900  1
  C  136  1  0.74435000  0.54721000  0.12186500  1
  C  141  1  0.78127800  0.45430600  0.12557700  1
  C  142  1  0.79588600  0.58820000  0.11625400  1
  C  155  1  0.63814400  0.12985800  0.55964500  1
  C  156  1  0.62592300  0.14096900  0.52297800  1
  C  157  1  0.66239200  0.17319400  0.49659900  1
  C  158  1  0.71261500  0.19466800  0.50771700  1
  C  159  1  0.72494900  0.18258400  0.54396900  1
  C  160  1  0.68810800  0.14993500  0.56937900  1
  C  163  1  0.75112000  0.23118000  0.48488500  1
  C  164  1  0.76302700  0.28029700  0.49098500  1
  C  165  1  0.79728800  0.31791000  0.46702100  1
  C  166  1  0.81960700  0.30740100  0.43567100  1
  C  167  1  0.80964500  0.25852500  0.43129000  1
  C  168  1  0.77535100  0.21976000  0.45518100  1
  C  173  1  0.64556000  0.18290600  0.45879400  1
  C  174  1  0.76476000  0.16821800  0.44952900  1
  C  187  1  0.48110300  0.65029300  0.89329200  1
  C  188  1  0.46506000  0.64081600  0.85420300  1
  C  189  1  0.47199000  0.67874100  0.82829000  1
  C  190  1  0.49672800  0.72801000  0.84214200  1
  C  191  1  0.51436600  0.73797900  0.88074400  1
  C  192  1  0.50712100  0.69968200  0.90578500  1
  C  195  1  0.50117500  0.76772000  0.81949500  1
  C  196  1  0.46144100  0.77669200  0.82066300  1
  C  197  1  0.46150200  0.81317200  0.79722200  1
  C  198  1  0.50080700  0.84069500  0.77159100  1
  C  199  1  0.54101400  0.83250700  0.77097100  1
  C  200  1  0.54212900  0.79626400  0.79477600  1
  C  205  1  0.45257900  0.66442900  0.78794500  1
  C  206  1  0.58504100  0.78808200  0.79408500  1
  C  219  1  0.14159900  0.48279200  0.22671000  1
  C  220  1  0.14816900  0.49885600  0.18762800  1
  C  221  1  0.17916600  0.49193800  0.16170900  1
  C  222  1  0.20369700  0.46719600  0.17554700  1
  C  223  1  0.19601600  0.44952800  0.21414100  1
  C  224  1  0.16496100  0.45675900  0.23918700  1
  C  227  1  0.23899500  0.46280500  0.15290400  1
  C  228  1  0.28769100  0.50255000  0.15412300  1
  C  229  1  0.32413000  0.50258600  0.13064700  1
  C  230  1  0.31238500  0.46336000  0.10493800  1
  C  231  1  0.26399500  0.42314400  0.10426000  1
  C  232  1  0.22661800  0.42192800  0.12810200  1
  C  237  1  0.18427900  0.51138500  0.12137400  1
  C  238  1  0.17553500  0.37900100  0.12735700  1
  C  251  1  0.31361800  0.82232400  0.56019500  1
  C  252  1  0.32308400  0.81576400  0.52110100  1
  C  253  1  0.28515100  0.78476900  0.49519100  1
  C  254  1  0.23588600  0.76023000  0.50905300  1
  C  255  1  0.22592900  0.76789300  0.54766000  1
  C  256  1  0.26423000  0.79894400  0.57269500  1
  C  259  1  0.19618100  0.72495500  0.48640900  1
  C  260  1  0.18723100  0.67625800  0.48758400  1
  C  261  1  0.15083600  0.63984900  0.46408300  1
  C  262  1  0.12335700  0.65162900  0.43840200  1
  C  263  1  0.13152600  0.70001500  0.43776800  1
  C  264  1  0.16768300  0.73736100  0.46163300  1
  C  269  1  0.29946000  0.77967400  0.45484400  1
  C  270  1  0.17584500  0.78844900  0.46093200  1
  C  283  1  0.46736300  0.50103500  0.53467600  1
  C  284  1  0.42181700  0.47764700  0.55424900  1
  C  285  1  0.39035300  0.49738000  0.55359700  1
  C  286  1  0.40445100  0.54026200  0.53166600  1
  C  287  1  0.44993900  0.56469900  0.51184800  1
  C  288  1  0.48278600  0.54578400  0.51403300  1
  C  291  1  0.49585900  0.47743000  0.53587600  1
  C  292  1  0.52495400  0.47990900  0.56861300  1
  C  293  1  0.55281600  0.45542200  0.56629200  1
  C  294  1  0.54996900  0.42860500  0.53236500  1
  C  295  1  0.51969800  0.42458300  0.50076100  1
  C  296  1  0.49307300  0.44951100  0.50281200  1
  C  305  1  0.51535000  0.39514900  0.46804700  1
  C  306  1  0.58405600  0.45636300  0.59670500  1
  C  307  1  0.46057000  0.60753200  0.49020100  1
  C  308  1  0.34656300  0.47600600  0.57598200  1
  C  313  1  0.00617800  0.49669900  0.86809500  1
  C  314  1  0.02838600  0.54223500  0.88768400  1
  C  315  1  0.07960000  0.57363100  0.88706400  1
  C  316  1  0.10834100  0.55947500  0.86513900  1
  C  317  1  0.08723800  0.51400900  0.84528600  1
  C  318  1  0.03546000  0.48122700  0.84744700  1
  C  321  1  0.95407900  0.46826200  0.86928500  1
  C  322  1  0.92743800  0.43914000  0.90200540  1
  C  323  1  0.87509200  0.41127400  0.89964900  1
  C  324  1  0.85114400  0.41417400  0.86573000  1
  C  325  1  0.87741800  0.44447500  0.83414700  1
  C  326  1  0.92897200  0.47108200  0.83621500  1
  C  335  1  0.85235200  0.44882700  0.80141800  1
  C  336  1  0.84472600  0.37993500  0.92998940  1
  C  337  1  0.11940100  0.50333100  0.82363100  1
  C  338  1  0.10211200  0.61740000  0.90946340  1
  C  343  1  0.46301300  0.95793600  0.20142300  1
  C  344  1  0.48643400  0.93578800  0.22096500  1
  C  345  1  0.46664900  0.88458100  0.22039200  1
  C  346  1  0.42370700  0.85577900  0.19853400  1
  C  347  1  0.39926200  0.87682200  0.17870900  1
  C  348  1  0.41822200  0.92859500  0.18084200  1
  C  351  1  0.48665100  0.01003700  0.20256900  1
  C  352  1  0.48421800  0.03671300  0.23527700  1
  C  353  1  0.50866400  0.08905700  0.23288000  1
  C  354  1  0.53543300  0.11296600  0.19891800  1
  C  355  1  0.53942200  0.08665700  0.16734100  1
  C  356  1  0.51450000  0.03510700  0.16945900  1
  C  365  1  0.56880400  0.11166700  0.13458900  1
  C  366  1  0.50775800  0.11944100  0.26324200  1
  C  367  1  0.35640200  0.84461400  0.15709800  1
  C  368  1  0.48803300  0.86215400  0.24277100  1
  C  373  1  0.46420600  0.32578700  0.42768800  1
  C  374  1  0.48750000  0.33806500  0.39100700  1
  C  375  1  0.48325000  0.30163400  0.36458100  1
  C  376  1  0.45453800  0.25139600  0.37566900  1
  C  377  1  0.43015100  0.23900900  0.41193600  1
  C  378  1  0.43434400  0.27580900  0.43739000  1
  C  381  1  0.45256800  0.21293500  0.35279400  1
  C  382  1  0.48985300  0.20111300  0.35880800  1
  C  383  1  0.49322200  0.16689600  0.33480200  1
  C  384  1  0.46033600  0.14453500  0.30349200  1
  C  385  1  0.42136100  0.15442100  0.29919200  1
  C  386  1  0.41687100  0.18866900  0.32312900  1
  C  391  1  0.50974600  0.31852300  0.32676400  1
  C  392  1  0.37584900  0.19917300  0.31756100  1
  C  405  1  0.83416700  0.49996400  0.76102700  1
  C  406  1  0.82312000  0.47662700  0.72436000  1
  C  407  1  0.79092700  0.48085600  0.69793400  1
  C  408  1  0.76942200  0.50959200  0.70900300  1
  C  409  1  0.78145100  0.53402500  0.74524900  1
  C  410  1  0.81407100  0.52984900  0.77070800  1
  C  413  1  0.73292300  0.51155200  0.68612700  1
  C  414  1  0.68381200  0.47429800  0.69217800  1
  C  415  1  0.64621700  0.47092200  0.66817900  1
  C  416  1  0.65673200  0.50377300  0.63684300  1
  C  417  1  0.70560000  0.54271600  0.63250300  1
  C  418  1  0.74435000  0.54721000  0.65642900  1
  C  423  1  0.78127800  0.45430600  0.66014100  1
  C  424  1  0.79588600  0.58820000  0.65081800  1
  C  437  1  0.63814400  0.12985800  0.09420900  1
  C  438  1  0.62592300  0.14096900  0.05754200  1
  C  439  1  0.66239200  0.17319400  0.03116300  1
  C  440  1  0.71261500  0.19466800  0.04228100  1
  C  441  1  0.72494900  0.18258400  0.07853300  1
  C  442  1  0.68810800  0.14993500  0.10394300  1
  C  445  1  0.75112000  0.23118000  0.01944900  1
  C  446  1  0.76302700  0.28029700  0.02554900  1
  C  447  1  0.79728800  0.31791000  0.00158500  1
  C  448  1  0.81960700  0.30740100  0.97023540  1
  C  449  1  0.80964500  0.25852500  0.96585440  1
  C  450  1  0.77535100  0.21976000  0.98974540  1
  C  455  1  0.64556000  0.18290600  0.99335841  1
  C  456  1  0.76476000  0.16821800  0.98409340  1
  C  469  1  0.48110300  0.65029300  0.42785600  1
  C  470  1  0.46506000  0.64081600  0.38876700  1
  C  471  1  0.47199000  0.67874100  0.36285400  1
  C  472  1  0.49672800  0.72801000  0.37670600  1
  C  473  1  0.51436600  0.73797900  0.41530800  1
  C  474  1  0.50712100  0.69968200  0.44034900  1
  C  477  1  0.50117500  0.76772000  0.35405900  1
  C  478  1  0.46144100  0.77669200  0.35522700  1
  C  479  1  0.46150200  0.81317200  0.33178600  1
  C  480  1  0.50080700  0.84069500  0.30615500  1
  C  481  1  0.54101400  0.83250700  0.30553500  1
  C  482  1  0.54212900  0.79626400  0.32934000  1
  C  487  1  0.45257900  0.66442900  0.32250900  1
  C  488  1  0.58504100  0.78808200  0.32864900  1
  C  501  1  0.14159900  0.48279200  0.76127400  1
  C  502  1  0.14816900  0.49885600  0.72219200  1
  C  503  1  0.17916600  0.49193800  0.69627300  1
  C  504  1  0.20369700  0.46719600  0.71011100  1
  C  505  1  0.19601600  0.44952800  0.74870500  1
  C  506  1  0.16496100  0.45675900  0.77375100  1
  C  509  1  0.23899500  0.46280500  0.68746800  1
  C  510  1  0.28769100  0.50255000  0.68868700  1
  C  511  1  0.32413000  0.50258600  0.66521100  1
  C  512  1  0.31238500  0.46336000  0.63950200  1
  C  513  1  0.26399500  0.42314400  0.63882400  1
  C  514  1  0.22661800  0.42192800  0.66266600  1
  C  519  1  0.18427900  0.51138500  0.65593800  1
  C  520  1  0.17553500  0.37900100  0.66192100  1
  C  533  1  0.31361800  0.82232400  0.09475900  1
  C  534  1  0.32308400  0.81576400  0.05566500  1
  C  535  1  0.28515100  0.78476900  0.02975500  1
  C  536  1  0.23588600  0.76023000  0.04361700  1
  C  537  1  0.22592900  0.76789300  0.08222400  1
  C  538  1  0.26423000  0.79894400  0.10725900  1
  C  541  1  0.19618100  0.72495500  0.02097300  1
  C  542  1  0.18723100  0.67625800  0.02214800  1
  C  543  1  0.15083600  0.63984900  0.99864741  1
  C  544  1  0.12335700  0.65162900  0.97296640  1
  C  545  1  0.13152600  0.70001500  0.97233240  1
  C  546  1  0.16768300  0.73736100  0.99619741  1
  C  551  1  0.29946000  0.77967400  0.98940840  1
  C  552  1  0.17584500  0.78844900  0.99549641  1
  N  17  1  0.52880700  0.57073100  0.96370200  1
  N  18  1  0.52492000  0.50415300  0.06701900  1
  N  47  1  0.01433600  0.43520500  0.29711600  1
  N  48  1  0.95168500  0.43917400  0.40042900  1
  N  77  1  0.39325800  0.94966200  0.63053700  1
  N  78  1  0.46004300  0.01249800  0.73372800  1
  N  119  1  0.47053100  0.36124000  0.91926600  1
  N  121  1  0.46470100  0.11340000  0.74320500  1
  N  151  1  0.86328900  0.49364500  0.25261500  1
  N  153  1  0.62122600  0.49939500  0.07655500  1
  N  183  1  0.60263800  0.10069500  0.58575100  1
  N  185  1  0.85076400  0.34292300  0.40997300  1
  N  215  1  0.47272700  0.61183600  0.91718700  1
  N  217  1  0.49817900  0.87306700  0.74670900  1
  N  247  1  0.11153600  0.49118200  0.25061600  1
  N  249  1  0.34738000  0.46615600  0.07995000  1
  N  279  1  0.35208700  0.85241300  0.58407500  1
  N  281  1  0.09119100  0.61668000  0.41337100  1
  N  299  1  0.52880700  0.57073100  0.49826600  1
  N  300  1  0.52492000  0.50415300  0.60158300  1
  N  329  1  0.01433600  0.43520500  0.83168000  1
  N  330  1  0.95168500  0.43917400  0.93499340  1
  N  359  1  0.39325800  0.94966200  0.16510100  1
  N  360  1  0.46004300  0.01249800  0.26829200  1
  N  401  1  0.47053100  0.36124000  0.45383000  1
  N  403  1  0.46470100  0.11340000  0.27776900  1
  N  433  1  0.86328900  0.49364500  0.78717900  1
  N  435  1  0.62122600  0.49939500  0.61111900  1
  N  465  1  0.60263800  0.10069500  0.12031500  1
  N  467  1  0.85076400  0.34292300  0.94453740  1
  N  497  1  0.47272700  0.61183600  0.45175100  1
  N  499  1  0.49817900  0.87306700  0.28127300  1
  N  529  1  0.11153600  0.49118200  0.78518000  1
  N  531  1  0.34738000  0.46615600  0.61451400  1
  N  561  1  0.35208700  0.85241300  0.11863900  1
  N  563  1  0.09119100  0.61668000  0.94793540  1
  O  27  1  0.55653900  0.39575800  0.92101900  1
  O  28  1  0.58221000  0.41333900  0.07044000  1
  O  29  1  0.30696500  0.47618000  0.02600600  1
  O  30  1  0.44984000  0.64002000  0.97243700  1
  O  57  1  0.81177300  0.40764200  0.25438900  1
  O  58  1  0.80360800  0.38183100  0.40385800  1
  O  59  1  0.14190100  0.65704200  0.35955500  1
  O  60  1  0.16261000  0.51401300  0.30586400  1
  O  87  1  0.56834300  0.15234800  0.58762700  1
  O  88  1  0.55079100  0.16059800  0.73699000  1
  O  89  1  0.48793900  0.82244800  0.69274800  1
  O  90  1  0.32391300  0.80141800  0.63936900  1
  O  111  1  0.34165100  0.17307700  0.75238100  1
  O  115  1  0.56153800  0.34522500  0.79917700  1
  O  143  1  0.80398200  0.62235800  0.08560800  1
  O  147  1  0.75618600  0.40252400  0.13259600  1
  O  175  1  0.79083400  0.16013200  0.41888300  1
  O  179  1  0.61885900  0.20798800  0.46581100  1
  O  207  1  0.62433900  0.81823400  0.76805500  1
  O  211  1  0.40013300  0.63582400  0.78917400  1
  O  239  1  0.16642700  0.33976900  0.10126700  1
  O  243  1  0.20812300  0.56383100  0.12263000  1
  O  271  1  0.14572000  0.79758600  0.43486500  1
  O  275  1  0.32806900  0.75583900  0.45606600  1
  O  309  1  0.55653900  0.39575800  0.45558300  1
  O  310  1  0.58221000  0.41333900  0.60500400  1
  O  311  1  0.30696500  0.47618000  0.56057000  1
  O  312  1  0.44984000  0.64002000  0.50700100  1
  O  339  1  0.81177300  0.40764200  0.78895300  1
  O  340  1  0.80360800  0.38183100  0.93842240  1
  O  341  1  0.14190100  0.65704200  0.89411900  1
  O  342  1  0.16261000  0.51401300  0.84042800  1
  O  369  1  0.56834300  0.15234800  0.12219100  1
  O  370  1  0.55079100  0.16059800  0.27155400  1
  O  371  1  0.48793900  0.82244800  0.22731200  1
  O  372  1  0.32391300  0.80141800  0.17393300  1
  O  393  1  0.34165100  0.17307700  0.28694500  1
  O  397  1  0.56153800  0.34522500  0.33374100  1
  O  425  1  0.80398200  0.62235800  0.62017200  1
  O  429  1  0.75618600  0.40252400  0.66716000  1
  O  457  1  0.79083400  0.16013200  0.95344740  1
  O  461  1  0.61885900  0.20798800  0.00037500  1
  O  489  1  0.62433900  0.81823400  0.30261900  1
  O  493  1  0.40013300  0.63582400  0.32373800  1
  O  521  1  0.16642700  0.33976900  0.63583100  1
  O  525  1  0.20812300  0.56383100  0.65719400  1
  O  553  1  0.14572000  0.79758600  0.96942940  1
  O  557  1  0.32806900  0.75583900  0.99063041  1
