# generated using pymatgen
data_Ni2H22(C2O)11
_symmetry_space_group_name_H-M   'P 1'
_cell_length_a   10.45590000
_cell_length_b   13.60010000
_cell_length_c   33.39850000
_cell_angle_alpha   91.50130000
_cell_angle_beta   92.90860000
_cell_angle_gamma   108.09470000
_symmetry_Int_Tables_number   1
_chemical_formula_structural   Ni2H22(C2O)11
_chemical_formula_sum   'Ni8 H88 C88 O44'
_cell_volume   4504.20806401
_cell_formula_units_Z   4
loop_
 _symmetry_equiv_pos_site_id
 _symmetry_equiv_pos_as_xyz
  1  'x, y, z'
loop_
 _atom_site_type_symbol
 _atom_site_label
 _atom_site_symmetry_multiplicity
 _atom_site_fract_x
 _atom_site_fract_y
 _atom_site_fract_z
 _atom_site_occupancy
  Ni  Ni1  1  0.04022000  0.52253000  0.62285000  1.0
  Ni  Ni2  1  0.88247000  0.28979000  0.62083000  1.0
  Ni  Ni3  1  0.32918000  0.04703000  0.10644000  1.0
  Ni  Ni4  1  0.34493000  0.26935000  0.13316000  1.0
  Ni  Ni5  1  0.52937000  0.97522000  0.90606000  1.0
  Ni  Ni6  1  0.59837000  0.77909000  0.88028000  1.0
  Ni  Ni7  1  0.06662000  0.48015000  0.43070000  1.0
  Ni  Ni8  1  0.24893000  0.69524000  0.40782000  1.0
  H  H1  1  0.09406000  0.38626000  0.64991000  1.0
  H  H2  1  0.10081000  0.38478000  0.60157000  1.0
  H  H3  1  0.51151000  0.19152000  0.12214000  1.0
  H  H4  1  0.43286000  0.20015000  0.07996000  1.0
  H  H5  1  0.39602000  0.80607000  0.89747000  1.0
  H  H6  1  0.50162000  0.82536000  0.93686000  1.0
  H  H7  1  0.02055000  0.63169000  0.42107000  1.0
  H  H8  1  0.11365000  0.63553000  0.46199000  1.0
  H  H9  1  0.79110000  0.43545000  0.73114000  1.0
  H  H10  1  0.64410000  0.39249000  0.69721000  1.0
  H  H11  1  0.70546000  0.58467000  0.67542000  1.0
  H  H12  1  0.82799000  0.61635000  0.71733000  1.0
  H  H13  1  0.74991000  0.65163000  0.78107000  1.0
  H  H14  1  0.32624000  0.56064000  0.79939000  1.0
  H  H15  1  0.04020000  0.41642000  0.73129000  1.0
  H  H16  1  0.13576000  0.54212000  0.75266000  1.0
  H  H17  1  0.13770000  0.42438000  0.77774000  1.0
  H  H18  1  0.46279000  0.47257000  0.68893000  1.0
  H  H19  1  0.15830000  0.03014000  0.22699000  1.0
  H  H20  1  0.28909000  0.14770000  0.24278000  1.0
  H  H21  1  0.45968000  0.04527000  0.23396000  1.0
  H  H22  1  0.31705000  0.93035000  0.22781000  1.0
  H  H23  1  0.25548000  0.84085000  0.28841000  1.0
  H  H24  1  0.40048000  0.99571000  0.40254000  1.0
  H  H25  1  0.56590000  0.27128000  0.42816000  1.0
  H  H26  1  0.56498000  0.13990000  0.42786000  1.0
  H  H27  1  0.40693000  0.17085000  0.42687000  1.0
  H  H28  1  0.46075000  0.17014000  0.29605000  1.0
  H  H29  1  0.53620000  0.01551000  0.77909000  1.0
  H  H30  1  0.49968000  0.87780000  0.77043000  1.0
  H  H31  1  0.75643000  0.90520000  0.78274000  1.0
  H  H32  1  0.78038000  0.04148000  0.78504000  1.0
  H  H33  1  0.81053000  0.12656000  0.72402000  1.0
  H  H34  1  0.70103000  0.95963000  0.61065000  1.0
  H  H35  1  0.57184000  0.67743000  0.58970000  1.0
  H  H36  1  0.71562000  0.79231000  0.59185000  1.0
  H  H37  1  0.54463000  0.80092000  0.58539000  1.0
  H  H38  1  0.61832000  0.79673000  0.72035000  1.0
  H  H39  1  0.53951000  0.52120000  0.20325000  1.0
  H  H40  1  0.47907000  0.42600000  0.23971000  1.0
  H  H41  1  0.27793000  0.51730000  0.19520000  1.0
  H  H42  1  0.39357000  0.59300000  0.23327000  1.0
  H  H43  1  0.28277000  0.59544000  0.29192000  1.0
  H  H44  1  0.02000000  0.31580000  0.33656000  1.0
  H  H45  1  0.12480000  0.15878000  0.33173000  1.0
  H  H46  1  0.94416000  0.14225000  0.32742000  1.0
  H  H47  1  0.00929000  0.04950000  0.30375000  1.0
  H  H48  1  0.19451000  0.30503000  0.22440000  1.0
  H  H49  1  0.68018000  0.36074000  0.52374000  1.0
  H  H50  1  0.83956000  0.39939000  0.50116000  1.0
  H  H51  1  0.85797000  0.58615000  0.51177000  1.0
  H  H52  1  0.70723000  0.55095000  0.53898000  1.0
  H  H53  1  0.51465000  0.55929000  0.50024000  1.0
  H  H54  1  0.45536000  0.47223000  0.37475000  1.0
  H  H55  1  0.67577000  0.38477000  0.30941000  1.0
  H  H56  1  0.61275000  0.49081000  0.32080000  1.0
  H  H57  1  0.52156000  0.35916000  0.33410000  1.0
  H  H58  1  0.82317000  0.47617000  0.43971000  1.0
  H  H59  1  0.93263000  0.15127000  0.10509000  1.0
  H  H60  1  0.92058000  0.03186000  0.07891000  1.0
  H  H61  1  0.03103000  0.24739000  0.04229000  1.0
  H  H62  1  0.85933000  0.17159000  0.03907000  1.0
  H  H63  1  0.77551000  0.04293000  0.98864000  1.0
  H  H64  1  0.03835000  0.96641000  0.90772000  1.0
  H  H65  1  0.40875000  0.09497000  0.90628000  1.0
  H  H66  1  0.25356000  0.11662000  0.89040000  1.0
  H  H67  1  0.25862000  0.98551000  0.89877000  1.0
  H  H68  1  0.20408000  0.15841000  0.01466000  1.0
  H  H69  1  0.28527000  0.86633000  0.52167000  1.0
  H  H70  1  0.12593000  0.88857000  0.51846000  1.0
  H  H71  1  0.34587000  0.02112000  0.46696000  1.0
  H  H72  1  0.37552000  0.04276000  0.51959000  1.0
  H  H73  1  0.20792000  0.08643000  0.56065000  1.0
  H  H74  1  0.95884000  0.24297000  0.50130000  1.0
  H  H75  1  0.87840000  0.25192000  0.39314000  1.0
  H  H76  1  0.94179000  0.31599000  0.44103000  1.0
  H  H77  1  0.81663000  0.18762000  0.43788000  1.0
  H  H78  1  0.17153000  0.07969000  0.43180000  1.0
  H  H79  1  0.37451000  0.49933000  0.87244000  1.0
  H  H80  1  0.29179000  0.45957000  0.91756000  1.0
  H  H81  1  0.58181000  0.47593000  0.89816000  1.0
  H  H82  1  0.44820000  0.36126000  0.90718000  1.0
  H  H83  1  0.33516000  0.37690000  0.97936000  1.0
  H  H84  1  0.64821000  0.47275000  0.07367000  1.0
  H  H85  1  0.00809000  0.60965000  0.06735000  1.0
  H  H86  1  0.88067000  0.49172000  0.07822000  1.0
  H  H87  1  0.84754000  0.61612000  0.08184000  1.0
  H  H88  1  0.74420000  0.53243000  0.95135000  1.0
  C  C1  1  0.04142000  0.19929000  0.57432000  1.0
  C  C2  1  0.82834000  0.43581000  0.66890000  1.0
  C  C3  1  0.85405000  0.42776000  0.56408000  1.0
  C  C4  1  0.81354000  0.14926000  0.64541000  1.0
  C  C5  1  0.38274000  0.38361000  0.06075000  1.0
  C  C6  1  0.29354000  0.09933000  0.18202000  1.0
  C  C7  1  0.12204000  0.13188000  0.09540000  1.0
  C  C8  1  0.40396000  0.37928000  0.17892000  1.0
  C  C9  1  0.43565000  0.61267000  0.92087000  1.0
  C  C10  1  0.56719000  0.93080000  0.83020000  1.0
  C  C11  1  0.77634000  0.94886000  0.91883000  1.0
  C  C12  1  0.56519000  0.67494000  0.83255000  1.0
  C  C13  1  0.18688000  0.83466000  0.46350000  1.0
  C  C14  1  0.13250000  0.51756000  0.35543000  1.0
  C  C15  1  0.34574000  0.54251000  0.43401000  1.0
  C  C16  1  0.28522000  0.81256000  0.36906000  1.0
  C  C17  1  0.74505000  0.45145000  0.70231000  1.0
  C  C18  1  0.73051000  0.56023000  0.70556000  1.0
  C  C19  1  0.61898000  0.56040000  0.73246000  1.0
  C  C20  1  0.64664000  0.61063000  0.77073000  1.0
  C  C21  1  0.54046000  0.61089000  0.79486000  1.0
  C  C22  1  0.40691000  0.55927000  0.78061000  1.0
  C  C23  1  0.37799000  0.50837000  0.74231000  1.0
  C  C24  1  0.13533000  0.46061000  0.74835000  1.0
  C  C25  1  0.48482000  0.51037000  0.71860000  1.0
  C  C26  1  0.26668000  0.07366000  0.22491000  1.0
  C  C27  1  0.35361000  0.00986000  0.24196000  1.0
  C  C28  1  0.35392000  0.00651000  0.28708000  1.0
  C  C29  1  0.30235000  0.91217000  0.30610000  1.0
  C  C30  1  0.31916000  0.90965000  0.34793000  1.0
  C  C31  1  0.38490000  0.00097000  0.37063000  1.0
  C  C32  1  0.43432000  0.09624000  0.35220000  1.0
  C  C33  1  0.51017000  0.19215000  0.41616000  1.0
  C  C34  1  0.41862000  0.09764000  0.31045000  1.0
  C  C35  1  0.57083000  0.94813000  0.78616000  1.0
  C  C36  1  0.71359000  0.96576000  0.77198000  1.0
  C  C37  1  0.71238000  0.96246000  0.72705000  1.0
  C  C38  1  0.76712000  0.05353000  0.70708000  1.0
  C  C39  1  0.76187000  0.05171000  0.66528000  1.0
  C  C40  1  0.70429000  0.95813000  0.64302000  1.0
  C  C41  1  0.65448000  0.86435000  0.66285000  1.0
  C  C42  1  0.60960000  0.75998000  0.60029000  1.0
  C  C43  1  0.65772000  0.86802000  0.70487000  1.0
  C  C44  1  0.44849000  0.46068000  0.21249000  1.0
  C  C45  1  0.34027000  0.51177000  0.22247000  1.0
  C  C46  1  0.24894000  0.45670000  0.25417000  1.0
  C  C47  1  0.23063000  0.51279000  0.28828000  1.0
  C  C48  1  0.14538000  0.46248000  0.31774000  1.0
  C  C49  1  0.08211000  0.35492000  0.31336000  1.0
  C  C50  1  0.10230000  0.29758000  0.28000000  1.0
  C  C51  1  0.03110000  0.13307000  0.31167000  1.0
  C  C52  1  0.18123000  0.34976000  0.25002000  1.0
  C  C53  1  0.77973000  0.42235000  0.52414000  1.0
  C  C54  1  0.75869000  0.52597000  0.51411000  1.0
  C  C55  1  0.67668000  0.51590000  0.47479000  1.0
  C  C56  1  0.55115000  0.53360000  0.47335000  1.0
  C  C57  1  0.47233000  0.51763000  0.43714000  1.0
  C  C58  1  0.51865000  0.48411000  0.40226000  1.0
  C  C59  1  0.64637000  0.46926000  0.40292000  1.0
  C  C60  1  0.62245000  0.41681000  0.33170000  1.0
  C  C61  1  0.72493000  0.48721000  0.43919000  1.0
  C  C62  1  0.97815000  0.11588000  0.08157000  1.0
  C  C63  1  0.96351000  0.16637000  0.04187000  1.0
  C  C64  1  0.98701000  0.10570000  0.00607000  1.0
  C  C65  1  0.87689000  0.04804000  0.98094000  1.0
  C  C66  1  0.89561000  0.99826000  0.94563000  1.0
  C  C67  1  0.02614000  0.00492000  0.93530000  1.0
  C  C68  1  0.13906000  0.06418000  0.96013000  1.0
  C  C69  1  0.29831000  0.06814000  0.90935000  1.0
  C  C70  1  0.11785000  0.11234000  0.99577000  1.0
  C  C71  1  0.21938000  0.89813000  0.50227000  1.0
  C  C72  1  0.29428000  0.01257000  0.49543000  1.0
  C  C73  1  0.20114000  0.07745000  0.49620000  1.0
  C  C74  1  0.16724000  0.10940000  0.53324000  1.0
  C  C75  1  0.07909000  0.16820000  0.53514000  1.0
  C  C76  1  0.02601000  0.19680000  0.49938000  1.0
  C  C77  1  0.06052000  0.16628000  0.46168000  1.0
  C  C78  1  0.90705000  0.23948000  0.42459000  1.0
  C  C79  1  0.14749000  0.10591000  0.46058000  1.0
  C  C80  1  0.39025000  0.50136000  0.90558000  1.0
  C  C81  1  0.49265000  0.44468000  0.91626000  1.0
  C  C82  1  0.53465000  0.45372000  0.96046000  1.0
  C  C83  1  0.43986000  0.41448000  0.98906000  1.0
  C  C84  1  0.48078000  0.42289000  0.03007000  1.0
  C  C85  1  0.61771000  0.46821000  0.04207000  1.0
  C  C86  1  0.71369000  0.50839000  0.01365000  1.0
  C  C87  1  0.89810000  0.56863000  0.06496000  1.0
  C  C88  1  0.67040000  0.50100000  0.97310000  1.0
  O  O1  1  0.96862000  0.50269000  0.57198000  1.0
  O  O2  1  0.11062000  0.19795000  0.60470000  1.0
  O  O3  1  0.92662000  0.23112000  0.57565000  1.0
  O  O4  1  0.88043000  0.51093000  0.64466000  1.0
  O  O5  1  0.83670000  0.34542000  0.66373000  1.0
  O  O6  1  0.80380000  0.35746000  0.58850000  1.0
  O  O7  1  0.04267000  0.39183000  0.62402000  1.0
  O  O8  1  0.93639000  0.20954000  0.65219000  1.0
  O  O9  1  0.73888000  0.18485000  0.62173000  1.0
  O  O10  1  0.15632000  0.05008000  0.10580000  1.0
  O  O11  1  0.26388000  0.37315000  0.05365000  1.0
  O  O12  1  0.43242000  0.36844000  0.09901000  1.0
  O  O13  1  0.34359000  0.04003000  0.15997000  1.0
  O  O14  1  0.26465000  0.17749000  0.16861000  1.0
  O  O15  1  0.20120000  0.22437000  0.10017000  1.0
  O  O16  1  0.41890000  0.18203000  0.10896000  1.0
  O  O17  1  0.47709000  0.32264000  0.16838000  1.0
  O  O18  1  0.29015000  0.35959000  0.15803000  1.0
  O  O19  1  0.71102000  0.00997000  0.90379000  1.0
  O  O20  1  0.35846000  0.64549000  0.93937000  1.0
  O  O21  1  0.56818000  0.67610000  0.91643000  1.0
  O  O22  1  0.49613000  0.97256000  0.85246000  1.0
  O  O23  1  0.63573000  0.87629000  0.84453000  1.0
  O  O24  1  0.73935000  0.85106000  0.91123000  1.0
  O  O25  1  0.49375000  0.83839000  0.90729000  1.0
  O  O26  1  0.47042000  0.70393000  0.84764000  1.0
  O  O27  1  0.68260000  0.71417000  0.85149000  1.0
  O  O28  1  0.23278000  0.46639000  0.42600000  1.0
  O  O29  1  0.07807000  0.81907000  0.44538000  1.0
  O  O30  1  0.28469000  0.79251000  0.44969000  1.0
  O  O31  1  0.03196000  0.47142000  0.37749000  1.0
  O  O32  1  0.22392000  0.60263000  0.36656000  1.0
  O  O33  1  0.35363000  0.63746000  0.43428000  1.0
  O  O34  1  0.10422000  0.61698000  0.43224000  1.0
  O  O35  1  0.16475000  0.76367000  0.37931000  1.0
  O  O36  1  0.37827000  0.77726000  0.38364000  1.0
  O  O37  1  0.24641000  0.45619000  0.72598000  1.0
  O  O38  1  0.50470000  0.19034000  0.37333000  1.0
  O  O39  1  0.60263000  0.76613000  0.64283000  1.0
  O  O40  1  0.04903000  0.18893000  0.27563000  1.0
  O  O41  1  0.69923000  0.43416000  0.36929000  1.0
  O  O42  1  0.27356000  0.08022000  0.95057000  1.0
  O  O43  1  0.01207000  0.19281000  0.42461000  1.0
  O  O44  1  0.85215000  0.55672000  0.02358000  1.0
