# generated using pymatgen
data_H44C55N4
_symmetry_space_group_name_H-M   'P 1'
_cell_length_a   29.60062123
_cell_length_b   29.60062123
_cell_length_c   34.73837368
_cell_angle_alpha   115.21719143
_cell_angle_beta   115.21719143
_cell_angle_gamma   90.00000000
_symmetry_Int_Tables_number   1
_chemical_formula_structural   H44C55N4
_chemical_formula_sum   'H264 C330 N24'
_cell_volume   24292.24898122
_cell_formula_units_Z   6
loop_
 _symmetry_equiv_pos_site_id
 _symmetry_equiv_pos_as_xyz
  1  'x, y, z'
loop_
 _atom_site_type_symbol
 _atom_site_label
 _atom_site_symmetry_multiplicity
 _atom_site_fract_x
 _atom_site_fract_y
 _atom_site_fract_z
 _atom_site_occupancy
  C  1  1  0.60113300  0.97517200  0.78309800  1
  C  2  1  0.56636800  0.94100000  0.78188750  1
  C  3  1  0.57889775  0.86563375  0.71905000  1
  C  4  1  0.61186025  0.89918975  0.71784100  1
  C  5  1  0.63457475  0.87763225  0.68726900  1
  C  6  1  0.62722550  0.82418350  0.65973450  1
  C  7  1  0.59426575  0.79178725  0.66172300  1
  C  8  1  0.56982050  0.81218100  0.69027850  1
  C  9  1  0.54167450  0.96069600  0.81064650  1
  C  10  1  0.54985600  0.01369650  0.83922200  1
  C  11  1  0.58424225  0.04864575  0.84121300  1
  C  12  1  0.61014225  0.02845925  0.81366500  1
  C  13  1  0.68288750  0.97021550  0.78309750  1
  C  14  1  0.71644050  0.00317350  0.78188250  1
  C  15  1  0.64107275  0.01570825  0.71905050  1
  C  16  1  0.60690200  0.98094350  0.71784150  1
  C  17  1  0.62137675  0.04040225  0.69029150  1
  C  18  1  0.56837700  0.03221700  0.66171100  1
  C  19  1  0.53343100  0.99783900  0.65973250  1
  C  20  1  0.55361275  0.97193325  0.68727400  1
  C  21  1  0.70444275  0.94749975  0.81366850  1
  C  22  1  0.75789100  0.95483950  0.84119300  1
  C  23  1  0.79028850  0.98779900  0.83920400  1
  C  24  1  0.76989350  0.01223700  0.81064150  1
  C  37  1  0.62569500  0.95638000  0.75046900  1
  C  38  1  0.69725825  0.02793925  0.75046500  1
  C  41  1  0.55413100  0.88481700  0.75046800  1
  C  44  1  0.59000175  0.10510825  0.86780350  1
  C  47  1  0.65709375  0.80334975  0.63314100  1
  C  50  1  0.47696775  0.99206325  0.63312450  1
  C  53  1  0.77872625  0.92496575  0.86778100  1
  C  221  1  0.31854500  0.18758300  0.21784400  1
  C  222  1  0.28490950  0.22169100  0.21899000  1
  C  223  1  0.36038850  0.29717150  0.28194850  1
  C  224  1  0.39449475  0.26353425  0.28309750  1
  C  225  1  0.44783325  0.28490975  0.31330900  1
  C  226  1  0.46799975  0.33827475  0.34045100  1
  C  227  1  0.43335250  0.37096200  0.33897150  1
  C  228  1  0.38027450  0.35065450  0.31067200  1
  C  229  1  0.23142575  0.20180575  0.19027200  1
  C  230  1  0.21111800  0.14872700  0.16195750  1
  C  231  1  0.24380300  0.11407850  0.16048350  1
  C  232  1  0.29716825  0.13424575  0.18763700  1
  C  233  1  0.40022200  0.19255100  0.21784250  1
  C  234  1  0.43500575  0.15959275  0.21899000  1
  C  235  1  0.42248425  0.14707125  0.28195000  1
  C  236  1  0.38952700  0.18185750  0.28309900  1
  C  237  1  0.43131850  0.12230700  0.31066850  1
  C  238  1  0.40654925  0.13030675  0.33897600  1
  C  239  1  0.37337625  0.16446675  0.34045000  1
  C  240  1  0.36641050  0.19070250  0.31332050  1
  C  241  1  0.39139400  0.21568450  0.18763800  1
  C  242  1  0.41759750  0.20869200  0.16047700  1
  C  243  1  0.45176950  0.17553100  0.16196450  1
  C  244  1  0.45976750  0.15075450  0.19026750  1
  C  257  1  0.37569700  0.20638150  0.25047050  1
  C  258  1  0.44723600  0.13483900  0.25046850  1
  C  261  1  0.30415625  0.27792325  0.25046700  1
  C  264  1  0.22296150  0.05769600  0.13467950  1
  C  267  1  0.52438375  0.35911125  0.36624800  1
  C  270  1  0.34278900  0.16942400  0.36624550  1
  C  273  1  0.41262325  0.23926625  0.13466750  1
  C  441  1  0.86719575  0.97484725  0.94112100  1
  C  442  1  0.89668850  0.95681850  0.91674500  1
  C  443  1  0.95030800  0.97346200  0.94119600  1
  C  444  1  0.97612225  0.00782875  0.99107350  1
  C  445  1  0.94719275  0.02626875  0.01572750  1
  C  446  1  0.89344575  0.01059775  0.99078150  1
  C  449  1  0.03017550  0.01861450  0.01654000  1
  C  450  1  0.06058200  0.04952950  0.01080600  1
  C  451  1  0.11426900  0.05652950  0.03350900  1
  C  452  1  0.13853975  0.03203025  0.06160550  1
  C  453  1  0.10777800  0.00033250  0.06633150  1
  C  454  1  0.05429325  0.99424225  0.04470600  1
  C  465  1  0.57487700  0.12859350  0.94115100  1
  C  466  1  0.52100475  0.12221625  0.91676450  1
  C  467  1  0.49183850  0.13004750  0.94122000  1
  C  468  1  0.51589975  0.14555825  0.99109750  1
  C  469  1  0.56948075  0.15178125  0.01575450  1
  C  470  1  0.59828650  0.14250850  0.99081250  1
  C  473  1  0.48729825  0.16023875  0.01654900  1
  C  474  1  0.45116725  0.12358075  0.01081650  1
  C  475  1  0.42017550  0.13927400  0.03351450  1
  C  476  1  0.42397725  0.19186775  0.06159400  1
  C  477  1  0.45946025  0.22830025  0.06632450  1
  C  478  1  0.49134075  0.21277325  0.04472150  1
  C  489  1  0.60722625  0.71488025  0.55978750  1
  C  490  1  0.62523350  0.68538750  0.58416800  1
  C  491  1  0.60861000  0.63176750  0.55970900  1
  C  492  1  0.57424325  0.60595575  0.50983050  1
  C  493  1  0.55581125  0.63488475  0.48517900  1
  C  494  1  0.57148150  0.68863150  0.51012700  1
  C  497  1  0.56347275  0.55190175  0.48437300  1
  C  498  1  0.53256125  0.52149875  0.49011300  1
  C  499  1  0.52556100  0.46780900  0.46741300  1
  C  500  1  0.55006475  0.44353725  0.43932200  1
  C  501  1  0.58175275  0.47429575  0.43458350  1
  C  502  1  0.58782500  0.52777650  0.45618950  1
  C  513  1  0.45348975  0.00718475  0.55977550  1
  C  514  1  0.45985600  0.06105550  0.58415850  1
  C  515  1  0.45201750  0.09022100  0.55970050  1
  C  516  1  0.43651275  0.06615975  0.50982450  1
  C  517  1  0.43030025  0.01257775  0.48516900  1
  C  518  1  0.43957925  0.98377625  0.51011450  1
  C  521  1  0.42182575  0.09475775  0.48436900  1
  C  522  1  0.45847700  0.13089950  0.49010850  1
  C  523  1  0.44277650  0.16189050  0.46741050  1
  C  524  1  0.39018225  0.15807375  0.43932000  1
  C  525  1  0.35375650  0.12257900  0.43458450  1
  C  526  1  0.36928925  0.09070075  0.45618900  1
  C  825  1  0.29058600  0.28571900  0.78309800  1
  C  826  1  0.25582100  0.25154700  0.78188750  1
  C  827  1  0.26835075  0.17618075  0.71905000  1
  C  828  1  0.30131325  0.20973675  0.71784100  1
  C  829  1  0.32402775  0.18817925  0.68726900  1
  C  830  1  0.31667850  0.13473050  0.65973450  1
  C  831  1  0.28371875  0.10233425  0.66172300  1
  C  832  1  0.25927350  0.12272800  0.69027850  1
  C  833  1  0.23112745  0.27124305  0.81064650  1
  C  834  1  0.23930895  0.32424355  0.83922200  1
  C  835  1  0.27369520  0.35919280  0.84121300  1
  C  836  1  0.29959520  0.33900630  0.81366500  1
  C  837  1  0.37234050  0.28076250  0.78309750  1
  C  838  1  0.40589350  0.31372050  0.78188250  1
  C  839  1  0.33052575  0.32625525  0.71905050  1
  C  840  1  0.29635500  0.29149050  0.71784150  1
  C  841  1  0.31082970  0.35094930  0.69029150  1
  C  842  1  0.25782995  0.34276405  0.66171100  1
  C  843  1  0.22288395  0.30838605  0.65973250  1
  C  844  1  0.24306570  0.28248030  0.68727400  1
  C  845  1  0.39389575  0.25804675  0.81366850  1
  C  846  1  0.44734400  0.26538650  0.84119300  1
  C  847  1  0.47974150  0.29834600  0.83920400  1
  C  848  1  0.45934650  0.32278400  0.81064150  1
  C  861  1  0.31514800  0.26692700  0.75046900  1
  C  862  1  0.38671125  0.33848625  0.75046500  1
  C  865  1  0.24358400  0.19536400  0.75046800  1
  C  868  1  0.27945470  0.41565530  0.86780350  1
  C  871  1  0.34654675  0.11389675  0.63314100  1
  C  874  1  0.16642070  0.30261030  0.63312450  1
  C  877  1  0.46817925  0.23551275  0.86778100  1
  C  1045  1  0.00799800  0.49813000  0.21784400  1
  C  1046  1  0.97436250  0.53223800  0.21899000  1
  C  1047  1  0.04984150  0.60771850  0.28194850  1
  C  1048  1  0.08394775  0.57408125  0.28309750  1
  C  1049  1  0.13728625  0.59545675  0.31330900  1
  C  1050  1  0.15745275  0.64882175  0.34045100  1
  C  1051  1  0.12280550  0.68150900  0.33897150  1
  C  1052  1  0.06972750  0.66120150  0.31067200  1
  C  1053  1  0.92087875  0.51235275  0.19027200  1
  C  1054  1  0.90057100  0.45927400  0.16195750  1
  C  1055  1  0.93325600  0.42462550  0.16048350  1
  C  1056  1  0.98662125  0.44479275  0.18763700  1
  C  1057  1  0.08967500  0.50309800  0.21784250  1
  C  1058  1  0.12445875  0.47013975  0.21899000  1
  C  1059  1  0.11193725  0.45761825  0.28195000  1
  C  1060  1  0.07898000  0.49240450  0.28309900  1
  C  1061  1  0.12077150  0.43285400  0.31066850  1
  C  1062  1  0.09600225  0.44085375  0.33897600  1
  C  1063  1  0.06282925  0.47501375  0.34045000  1
  C  1064  1  0.05586350  0.50124950  0.31332050  1
  C  1065  1  0.08084700  0.52623150  0.18763800  1
  C  1066  1  0.10705050  0.51923900  0.16047700  1
  C  1067  1  0.14122250  0.48607800  0.16196450  1
  C  1068  1  0.14922050  0.46130150  0.19026750  1
  C  1081  1  0.06515000  0.51692850  0.25047050  1
  C  1082  1  0.13668900  0.44538600  0.25046850  1
  C  1085  1  0.99360925  0.58847025  0.25046700  1
  C  1088  1  0.91241450  0.36824300  0.13467950  1
  C  1091  1  0.21383675  0.66965825  0.36624800  1
  C  1094  1  0.03224200  0.47997100  0.36624550  1
  C  1097  1  0.10207625  0.54981325  0.13466750  1
  C  1265  1  0.55664875  0.28539425  0.94112100  1
  C  1266  1  0.58614150  0.26736550  0.91674500  1
  C  1267  1  0.63976100  0.28400900  0.94119600  1
  C  1268  1  0.66557525  0.31837575  0.99107350  1
  C  1269  1  0.63664575  0.33681575  0.01572750  1
  C  1270  1  0.58289875  0.32114475  0.99078150  1
  C  1273  1  0.71962850  0.32916150  0.01654000  1
  C  1274  1  0.75003500  0.36007650  0.01080600  1
  C  1275  1  0.80372200  0.36707650  0.03350900  1
  C  1276  1  0.82799275  0.34257725  0.06160550  1
  C  1277  1  0.79723100  0.31087950  0.06633150  1
  C  1278  1  0.74374625  0.30478925  0.04470600  1
  C  1289  1  0.26432995  0.43914055  0.94115100  1
  C  1290  1  0.21045775  0.43276325  0.91676450  1
  C  1291  1  0.18129150  0.44059450  0.94122000  1
  C  1292  1  0.20535275  0.45610525  0.99109750  1
  C  1293  1  0.25893375  0.46232825  0.01575450  1
  C  1294  1  0.28773945  0.45305555  0.99081250  1
  C  1297  1  0.17675125  0.47078575  0.01654900  1
  C  1298  1  0.14062025  0.43412775  0.01081650  1
  C  1299  1  0.10962850  0.44982100  0.03351450  1
  C  1300  1  0.11343025  0.50241475  0.06159400  1
  C  1301  1  0.14891325  0.53884725  0.06632450  1
  C  1302  1  0.18079375  0.52332025  0.04472150  1
  C  1313  1  0.29667925  0.02542725  0.55978750  1
  C  1314  1  0.31468650  0.99593450  0.58416800  1
  C  1315  1  0.29806300  0.94231450  0.55970900  1
  C  1316  1  0.26369625  0.91650275  0.50983050  1
  C  1317  1  0.24526425  0.94543175  0.48517900  1
  C  1318  1  0.26093450  0.99917850  0.51012700  1
  C  1321  1  0.25292575  0.86244875  0.48437300  1
  C  1322  1  0.22201425  0.83204575  0.49011300  1
  C  1323  1  0.21501400  0.77835600  0.46741300  1
  C  1324  1  0.23951775  0.75408425  0.43932200  1
  C  1325  1  0.27120575  0.78484275  0.43458350  1
  C  1326  1  0.27727800  0.83832350  0.45618950  1
  C  1337  1  0.14294270  0.31773180  0.55977550  1
  C  1338  1  0.14930900  0.37160250  0.58415850  1
  C  1339  1  0.14147050  0.40076800  0.55970050  1
  C  1340  1  0.12596575  0.37670675  0.50982450  1
  C  1341  1  0.11975325  0.32312475  0.48516900  1
  C  1342  1  0.12903220  0.29432330  0.51011450  1
  C  1345  1  0.11127875  0.40530475  0.48436900  1
  C  1346  1  0.14793000  0.44144650  0.49010850  1
  C  1347  1  0.13222950  0.47243750  0.46741050  1
  C  1348  1  0.07963525  0.46862075  0.43932000  1
  C  1349  1  0.04320950  0.43312600  0.43458450  1
  C  1350  1  0.05874225  0.40124775  0.45618900  1
  C  1649  1  0.98003900  0.59626600  0.78309800  1
  C  1650  1  0.94527400  0.56209400  0.78188750  1
  C  1651  1  0.95780375  0.48672775  0.71905000  1
  C  1652  1  0.99076625  0.52028375  0.71784100  1
  C  1653  1  0.01348075  0.49872625  0.68726900  1
  C  1654  1  0.00613150  0.44527750  0.65973450  1
  C  1655  1  0.97317175  0.41288125  0.66172300  1
  C  1656  1  0.94872650  0.43327500  0.69027850  1
  C  1657  1  0.92058050  0.58179000  0.81064650  1
  C  1658  1  0.92876200  0.63479050  0.83922200  1
  C  1659  1  0.96314825  0.66973975  0.84121300  1
  C  1660  1  0.98904825  0.64955325  0.81366500  1
  C  1661  1  0.06179350  0.59130950  0.78309750  1
  C  1662  1  0.09534650  0.62426750  0.78188250  1
  C  1663  1  0.01997875  0.63680225  0.71905050  1
  C  1664  1  0.98580800  0.60203750  0.71784150  1
  C  1665  1  0.00028275  0.66149625  0.69029150  1
  C  1666  1  0.94728300  0.65331100  0.66171100  1
  C  1667  1  0.91233700  0.61893300  0.65973250  1
  C  1668  1  0.93251875  0.59302725  0.68727400  1
  C  1669  1  0.08334875  0.56859375  0.81366850  1
  C  1670  1  0.13679700  0.57593350  0.84119300  1
  C  1671  1  0.16919450  0.60889300  0.83920400  1
  C  1672  1  0.14879950  0.63333100  0.81064150  1
  C  1685  1  0.00460100  0.57747400  0.75046900  1
  C  1686  1  0.07616425  0.64903325  0.75046500  1
  C  1689  1  0.93303700  0.50591100  0.75046800  1
  C  1692  1  0.96890775  0.72620225  0.86780350  1
  C  1695  1  0.03599975  0.42444375  0.63314100  1
  C  1698  1  0.85587375  0.61315725  0.63312450  1
  C  1701  1  0.15763225  0.54605975  0.86778100  1
  C  1869  1  0.69745085  0.80867715  0.21784400  1
  C  1870  1  0.66381535  0.84278515  0.21899000  1
  C  1871  1  0.73929435  0.91826565  0.28194850  1
  C  1872  1  0.77340060  0.88462840  0.28309750  1
  C  1873  1  0.82673910  0.90600390  0.31330900  1
  C  1874  1  0.84690560  0.95936890  0.34045100  1
  C  1875  1  0.81225835  0.99205615  0.33897150  1
  C  1876  1  0.75918050  0.97174850  0.31067200  1
  C  1877  1  0.61033175  0.82289975  0.19027200  1
  C  1878  1  0.59002385  0.76982115  0.16195750  1
  C  1879  1  0.62270885  0.73517265  0.16048350  1
  C  1880  1  0.67607410  0.75533990  0.18763700  1
  C  1881  1  0.77912785  0.81364515  0.21784250  1
  C  1882  1  0.81391175  0.78068675  0.21899000  1
  C  1883  1  0.80139025  0.76816525  0.28195000  1
  C  1884  1  0.76843285  0.80295165  0.28309900  1
  C  1885  1  0.81022450  0.74340100  0.31066850  1
  C  1886  1  0.78545525  0.75140075  0.33897600  1
  C  1887  1  0.75228210  0.78556090  0.34045000  1
  C  1888  1  0.74531635  0.81179665  0.31332050  1
  C  1889  1  0.77029985  0.83677865  0.18763800  1
  C  1890  1  0.79650335  0.82978615  0.16047700  1
  C  1891  1  0.83067550  0.79662500  0.16196450  1
  C  1892  1  0.83867350  0.77184850  0.19026750  1
  C  1905  1  0.75460285  0.82747565  0.25047050  1
  C  1906  1  0.82614200  0.75593300  0.25046850  1
  C  1909  1  0.68306225  0.89901725  0.25046700  1
  C  1912  1  0.60186735  0.67879015  0.13467950  1
  C  1915  1  0.90328960  0.98020540  0.36624800  1
  C  1918  1  0.72169485  0.79051815  0.36624550  1
  C  1921  1  0.79152910  0.86036040  0.13466750  1
  C  2089  1  0.24610175  0.59594125  0.94112100  1
  C  2090  1  0.27559450  0.57791250  0.91674500  1
  C  2091  1  0.32921400  0.59455600  0.94119600  1
  C  2092  1  0.35502825  0.62892275  0.99107350  1
  C  2093  1  0.32609875  0.64736275  0.01572750  1
  C  2094  1  0.27235175  0.63169175  0.99078150  1
  C  2097  1  0.40908150  0.63970850  0.01654000  1
  C  2098  1  0.43948800  0.67062350  0.01080600  1
  C  2099  1  0.49317485  0.67762365  0.03350900  1
  C  2100  1  0.51744560  0.65312440  0.06160550  1
  C  2101  1  0.48668385  0.62142665  0.06633150  1
  C  2102  1  0.43319910  0.61533640  0.04470600  1
  C  2113  1  0.95378300  0.74968750  0.94115100  1
  C  2114  1  0.89991075  0.74331025  0.91676450  1
  C  2115  1  0.87074450  0.75114150  0.94122000  1
  C  2116  1  0.89480575  0.76665225  0.99109750  1
  C  2117  1  0.94838675  0.77287525  0.01575450  1
  C  2118  1  0.97719250  0.76360250  0.99081250  1
  C  2121  1  0.86620425  0.78133275  0.01654900  1
  C  2122  1  0.83007325  0.74467475  0.01081650  1
  C  2123  1  0.79908150  0.76036800  0.03351450  1
  C  2124  1  0.80288312  0.81296188  0.06159400  1
  C  2125  1  0.83836612  0.84939439  0.06632450  1
  C  2126  1  0.87024675  0.83386725  0.04472150  1
  C  2137  1  0.98613225  0.33597425  0.55978750  1
  C  2138  1  0.00413950  0.30648150  0.58416800  1
  C  2139  1  0.98751600  0.25286150  0.55970900  1
  C  2140  1  0.95314925  0.22704975  0.50983050  1
  C  2141  1  0.93471725  0.25597875  0.48517900  1
  C  2142  1  0.95038750  0.30972550  0.51012700  1
  C  2145  1  0.94237875  0.17299575  0.48437300  1
  C  2146  1  0.91146725  0.14259275  0.49011300  1
  C  2147  1  0.90446685  0.08890315  0.46741300  1
  C  2148  1  0.92897060  0.06463140  0.43932200  1
  C  2149  1  0.96065860  0.09538990  0.43458350  1
  C  2150  1  0.96673085  0.14887065  0.45618950  1
  C  2161  1  0.83239575  0.62827875  0.55977550  1
  C  2162  1  0.83876200  0.68214950  0.58415850  1
  C  2163  1  0.83092350  0.71131500  0.55970050  1
  C  2164  1  0.81541875  0.68725375  0.50982450  1
  C  2165  1  0.80920625  0.63367175  0.48516900  1
  C  2166  1  0.81848525  0.60487025  0.51011450  1
  C  2169  1  0.80073175  0.71585175  0.48436900  1
  C  2170  1  0.83738300  0.75199350  0.49010850  1
  C  2171  1  0.82168250  0.78298450  0.46741050  1
  C  2172  1  0.76908811  0.77916788  0.43932000  1
  C  2173  1  0.73266237  0.74367313  0.43458450  1
  C  2174  1  0.74819525  0.71179475  0.45618900  1
  H  25  1  0.82911950  0.99381500  0.85789750  1
  H  26  1  0.79457850  0.03546150  0.80967750  1
  H  27  1  0.64556925  0.06602675  0.69123350  1
  H  28  1  0.55570025  0.05233725  0.64300100  1
  H  29  1  0.52877225  0.94766625  0.68704350  1
  H  30  1  0.68040725  0.92287525  0.81388650  1
  H  31  1  0.65919275  0.90166925  0.68704550  1
  H  32  1  0.58823925  0.75295475  0.64301800  1
  H  33  1  0.54660075  0.78749775  0.69124800  1
  H  34  1  0.63440900  0.05330050  0.81389550  1
  H  35  1  0.51603675  0.93650575  0.80969300  1
  H  36  1  0.52972800  0.02637300  0.85792550  1
  H  39  1  0.70979375  0.06939175  0.77380250  1
  H  40  1  0.71536700  0.01713000  0.72712250  1
  H  42  1  0.51267825  0.87228525  0.72712700  1
  H  43  1  0.56493300  0.86670100  0.77380350  1
  H  45  1  0.55413925  0.11522675  0.85049450  1
  H  46  1  0.61796350  0.12461000  0.86387200  1
  H  48  1  0.68451850  0.78479200  0.65044750  1
  H  49  1  0.68053125  0.83524025  0.63707400  1
  H  51  1  0.46683550  0.02791950  0.65042300  1
  H  52  1  0.45746375  0.96409825  0.63704950  1
  H  54  1  0.74683475  0.90153025  0.86384950  1
  H  55  1  0.79727700  0.89753900  0.85046700  1
  H  245  1  0.47219225  0.17026725  0.14351700  1
  H  246  1  0.48546050  0.12758650  0.19120650  1
  H  247  1  0.45448750  0.09661100  0.30972500  1
  H  248  1  0.41178550  0.10985850  0.35739850  1
  H  249  1  0.34167700  0.21484900  0.31344850  1
  H  250  1  0.36721200  0.24038250  0.18747750  1
  H  251  1  0.47269300  0.26088950  0.31345350  1
  H  252  1  0.44653825  0.40983075  0.35739800  1
  H  253  1  0.35616700  0.37541050  0.30972000  1
  H  254  1  0.32118650  0.10938300  0.18748550  1
  H  255  1  0.20667175  0.22591675  0.19120550  1
  H  256  1  0.17224875  0.13554225  0.14352500  1
  H  259  1  0.43643700  0.09339050  0.22713650  1
  H  260  1  0.48868575  0.14563425  0.27380000  1
  H  262  1  0.28603800  0.29046050  0.27379800  1
  H  263  1  0.29162475  0.29603975  0.22713450  1
  H  265  1  0.20125750  0.04949700  0.15059850  1
  H  266  1  0.25415075  0.03756525  0.14100400  1
  H  268  1  0.53258050  0.38081050  0.35032350  1
  H  269  1  0.54451100  0.32791700  0.35992200  1
  H  271  1  0.31867000  0.13179750  0.35032150  1
  H  272  1  0.31633250  0.19428900  0.35991900  1
  H  274  1  0.38774825  0.26571425  0.14098650  1
  H  275  1  0.45024225  0.26339225  0.15058500  1
  H  447  1  0.96505300  0.05045050  0.05209250  1
  H  448  1  0.87348200  0.02372400  0.00973750  1
  H  455  1  0.04384725  0.06668075  0.98971200  1
  H  456  1  0.13553700  0.07852000  0.02839100  1
  H  457  1  0.12414575  0.98057775  0.08486650  1
  H  458  1  0.87994475  0.93047525  0.88116250  1
  H  459  1  0.03301625  0.97018025  0.04801800  1
  H  460  1  0.97051275  0.95825275  0.92280700  1
  H  462  1  0.20928850  0.04894400  0.06763300  1
  H  464  1  0.80850875  0.93891375  0.93812600  1
  H  471  1  0.58798400  0.16396800  0.05212200  1
  H  472  1  0.63720375  0.14833625  0.00976650  1
  H  479  1  0.44682050  0.08533650  0.98972950  1
  H  480  1  0.39379825  0.11215775  0.02839700  1
  H  481  1  0.46162325  0.26658575  0.08486000  1
  H  482  1  0.50216600  0.11296550  0.88117950  1
  H  483  1  0.51591800  0.24015100  0.04802400  1
  H  484  1  0.45323850  0.12683600  0.92281750  1
  H  486  1  0.35926425  0.18095575  0.06762500  1
  H  488  1  0.63059050  0.16148650  0.93815100  1
  H  495  1  0.53163025  0.61702475  0.44881100  1
  H  496  1  0.55835475  0.70859975  0.49117450  1
  H  503  1  0.51541300  0.53823500  0.51121000  1
  H  504  1  0.50357325  0.44654675  0.47253900  1
  H  505  1  0.60149650  0.45792500  0.41603850  1
  H  506  1  0.65156850  0.70213250  0.61975500  1
  H  507  1  0.61189150  0.54905600  0.45288150  1
  H  508  1  0.62380025  0.61156675  0.57810750  1
  H  510  1  0.53314475  0.37279175  0.43329950  1
  H  512  1  0.64311850  0.77359650  0.56279200  1
  H  519  1  0.41811700  0.99407550  0.44880350  1
  H  520  1  0.43375875  0.94485775  0.49116150  1
  H  527  1  0.49672175  0.13525775  0.51120100  1
  H  528  1  0.46988875  0.18827575  0.47253100  1
  H  529  1  0.31546650  0.12040500  0.41604100  1
  H  530  1  0.46910600  0.07989600  0.61974300  1
  H  531  1  0.34191550  0.06611600  0.45288200  1
  H  532  1  0.45522375  0.12882025  0.57810050  1
  H  534  1  0.40107700  0.22279600  0.43329750  1
  H  536  1  0.42061000  0.95145700  0.56276800  1
  H  849  1  0.51857250  0.30436200  0.85789750  1
  H  850  1  0.48403150  0.34600850  0.80967750  1
  H  851  1  0.33502220  0.37657380  0.69123350  1
  H  852  1  0.24515320  0.36288430  0.64300100  1
  H  853  1  0.21822520  0.25821330  0.68704350  1
  H  854  1  0.36986025  0.23342225  0.81388650  1
  H  855  1  0.34864575  0.21221625  0.68704550  1
  H  856  1  0.27769225  0.06350175  0.64301800  1
  H  857  1  0.23605375  0.09804475  0.69124800  1
  H  858  1  0.32386195  0.36384755  0.81389550  1
  H  859  1  0.20548970  0.24705280  0.80969300  1
  H  860  1  0.21918095  0.33692005  0.85792550  1
  H  863  1  0.39924675  0.37993875  0.77380250  1
  H  864  1  0.40482000  0.32767700  0.72712250  1
  H  866  1  0.20213125  0.18283225  0.72712700  1
  H  867  1  0.25438600  0.17724800  0.77380350  1
  H  869  1  0.24359220  0.42577380  0.85049450  1
  H  870  1  0.30741645  0.43515705  0.86387200  1
  H  872  1  0.37397150  0.09533900  0.65044750  1
  H  873  1  0.36998425  0.14578725  0.63707400  1
  H  875  1  0.15628845  0.33846655  0.65042300  1
  H  876  1  0.14691670  0.27464530  0.63704950  1
  H  878  1  0.43628775  0.21207725  0.86384950  1
  H  879  1  0.48673000  0.20808600  0.85046700  1
  H  1069  1  0.16164525  0.48081425  0.14351700  1
  H  1070  1  0.17491350  0.43813350  0.19120650  1
  H  1071  1  0.14394050  0.40715800  0.30972500  1
  H  1072  1  0.10123850  0.42040550  0.35739850  1
  H  1073  1  0.03113000  0.52539600  0.31344850  1
  H  1074  1  0.05666500  0.55092950  0.18747750  1
  H  1075  1  0.16214600  0.57143650  0.31345350  1
  H  1076  1  0.13599125  0.72037775  0.35739800  1
  H  1077  1  0.04562000  0.68595750  0.30972000  1
  H  1078  1  0.01063950  0.41993000  0.18748550  1
  H  1079  1  0.89612475  0.53646375  0.19120550  1
  H  1080  1  0.86170175  0.44608925  0.14352500  1
  H  1083  1  0.12589000  0.40393750  0.22713650  1
  H  1084  1  0.17813875  0.45618125  0.27380000  1
  H  1086  1  0.97549100  0.60100750  0.27379800  1
  H  1087  1  0.98107775  0.60658675  0.22713450  1
  H  1089  1  0.89071050  0.36004400  0.15059850  1
  H  1090  1  0.94360375  0.34811225  0.14100400  1
  H  1092  1  0.22203350  0.69135750  0.35032350  1
  H  1093  1  0.23396400  0.63846400  0.35992200  1
  H  1095  1  0.00812300  0.44234450  0.35032150  1
  H  1096  1  0.00578550  0.50483600  0.35991900  1
  H  1098  1  0.07720125  0.57626125  0.14098650  1
  H  1099  1  0.13969525  0.57393925  0.15058500  1
  H  1271  1  0.65450600  0.36099750  0.05209250  1
  H  1272  1  0.56293500  0.33427100  0.00973750  1
  H  1279  1  0.73330025  0.37722775  0.98971200  1
  H  1280  1  0.82499000  0.38906700  0.02839100  1
  H  1281  1  0.81359875  0.29112475  0.08486650  1
  H  1282  1  0.56939775  0.24102225  0.88116250  1
  H  1283  1  0.72246925  0.28072725  0.04801800  1
  H  1284  1  0.65996575  0.26879975  0.92280700  1
  H  1286  1  0.89874150  0.35949100  0.06763300  1
  H  1288  1  0.49796175  0.24946075  0.93812600  1
  H  1295  1  0.27743695  0.47451505  0.05212200  1
  H  1296  1  0.32665670  0.45888330  0.00976650  1
  H  1303  1  0.13627350  0.39588350  0.98972950  1
  H  1304  1  0.08325125  0.42270475  0.02839700  1
  H  1305  1  0.15107625  0.57713275  0.08486000  1
  H  1306  1  0.19161900  0.42351250  0.88117950  1
  H  1307  1  0.20537100  0.55069800  0.04802400  1
  H  1308  1  0.14269150  0.43738300  0.92281750  1
  H  1310  1  0.04871725  0.49150275  0.06762500  1
  H  1312  1  0.32004345  0.47203355  0.93815100  1
  H  1319  1  0.22108325  0.92757175  0.44881100  1
  H  1320  1  0.24780775  0.01914675  0.49117450  1
  H  1327  1  0.20486600  0.84878200  0.51121000  1
  H  1328  1  0.19302625  0.75709375  0.47253900  1
  H  1329  1  0.29094950  0.76847200  0.41603850  1
  H  1330  1  0.34102150  0.01267950  0.61975500  1
  H  1331  1  0.30134450  0.85960300  0.45288150  1
  H  1332  1  0.31325325  0.92211375  0.57810750  1
  H  1334  1  0.22259775  0.68333875  0.43329950  1
  H  1336  1  0.33257150  0.08414350  0.56279200  1
  H  1343  1  0.10756995  0.30462255  0.44880350  1
  H  1344  1  0.12321170  0.25540480  0.49116150  1
  H  1351  1  0.18617475  0.44580475  0.51120100  1
  H  1352  1  0.15934175  0.49882275  0.47253100  1
  H  1353  1  0.00491950  0.43095200  0.41604100  1
  H  1354  1  0.15855900  0.39044300  0.61974300  1
  H  1355  1  0.03136850  0.37666300  0.45288200  1
  H  1356  1  0.14467675  0.43936725  0.57810050  1
  H  1358  1  0.09053000  0.53334300  0.43329750  1
  H  1360  1  0.11006295  0.26200405  0.56276800  1
  H  1673  1  0.20802550  0.61490900  0.85789750  1
  H  1674  1  0.17348450  0.65655550  0.80967750  1
  H  1675  1  0.02447525  0.68712075  0.69123350  1
  H  1676  1  0.93460625  0.67343125  0.64300100  1
  H  1677  1  0.90767825  0.56876025  0.68704350  1
  H  1678  1  0.05931325  0.54396925  0.81388650  1
  H  1679  1  0.03809875  0.52276325  0.68704550  1
  H  1680  1  0.96714525  0.37404875  0.64301800  1
  H  1681  1  0.92550675  0.40859175  0.69124800  1
  H  1682  1  0.01331500  0.67439450  0.81389550  1
  H  1683  1  0.89494275  0.55759975  0.80969300  1
  H  1684  1  0.90863400  0.64746700  0.85792550  1
  H  1687  1  0.08869975  0.69048575  0.77380250  1
  H  1688  1  0.09427300  0.63822400  0.72712250  1
  H  1690  1  0.89158425  0.49337925  0.72712700  1
  H  1691  1  0.94383900  0.48779500  0.77380350  1
  H  1693  1  0.93304525  0.73632075  0.85049450  1
  H  1694  1  0.99686950  0.74570400  0.86387200  1
  H  1696  1  0.06342450  0.40588600  0.65044750  1
  H  1697  1  0.05943725  0.45633425  0.63707400  1
  H  1699  1  0.84574150  0.64901350  0.65042300  1
  H  1700  1  0.83636975  0.58519225  0.63704950  1
  H  1702  1  0.12574075  0.52262425  0.86384950  1
  H  1703  1  0.17618300  0.51863300  0.85046700  1
  H  1893  1  0.85109825  0.79136125  0.14351700  1
  H  1894  1  0.86436650  0.74868050  0.19120650  1
  H  1895  1  0.83339350  0.71770500  0.30972500  1
  H  1896  1  0.79069150  0.73095250  0.35739850  1
  H  1897  1  0.72058285  0.83594315  0.31344850  1
  H  1898  1  0.74611785  0.86147665  0.18747750  1
  H  1899  1  0.85159885  0.88198365  0.31345350  1
  H  1900  1  0.82544425  0.03092475  0.35739800  1
  H  1901  1  0.73507300  0.99650450  0.30972000  1
  H  1902  1  0.70009235  0.73047715  0.18748550  1
  H  1903  1  0.58557775  0.84701075  0.19120550  1
  H  1904  1  0.55115475  0.75663625  0.14352500  1
  H  1907  1  0.81534300  0.71448450  0.22713650  1
  H  1908  1  0.86759175  0.76672825  0.27380000  1
  H  1910  1  0.66494400  0.91155450  0.27379800  1
  H  1911  1  0.67053075  0.91713375  0.22713450  1
  H  1913  1  0.58016335  0.67059115  0.15059850  1
  H  1914  1  0.63305660  0.65865940  0.14100400  1
  H  1916  1  0.91148635  0.00190465  0.35032350  1
  H  1917  1  0.92341685  0.94901115  0.35992200  1
  H  1919  1  0.69757585  0.75289165  0.35032150  1
  H  1920  1  0.69523835  0.81538315  0.35991900  1
  H  1922  1  0.76665410  0.88680840  0.14098650  1
  H  1923  1  0.82914810  0.88448640  0.15058500  1
  H  2095  1  0.34395900  0.67154450  0.05209250  1
  H  2096  1  0.25238800  0.64481800  0.00973750  1
  H  2103  1  0.42275325  0.68777475  0.98971200  1
  H  2104  1  0.51444285  0.69961415  0.02839100  1
  H  2105  1  0.50305160  0.60167190  0.08486650  1
  H  2106  1  0.25885075  0.55156925  0.88116250  1
  H  2107  1  0.41192210  0.59127440  0.04801800  1
  H  2108  1  0.34941875  0.57934675  0.92280700  1
  H  2110  1  0.58819435  0.67003815  0.06763300  1
  H  2112  1  0.18741475  0.56000775  0.93812600  1
  H  2119  1  0.96689000  0.78506200  0.05212200  1
  H  2120  1  0.01610975  0.76943025  0.00976650  1
  H  2127  1  0.82572650  0.70643050  0.98972950  1
  H  2128  1  0.77270425  0.73325175  0.02839700  1
  H  2129  1  0.84052910  0.88767990  0.08486000  1
  H  2130  1  0.88107200  0.73405950  0.88117950  1
  H  2131  1  0.89482400  0.86124500  0.04802400  1
  H  2132  1  0.83214450  0.74793000  0.92281750  1
  H  2134  1  0.73817010  0.80204990  0.06762500  1
  H  2136  1  0.00949650  0.78258050  0.93815100  1
  H  2143  1  0.91053625  0.23811875  0.44881100  1
  H  2144  1  0.93726075  0.32969375  0.49117450  1
  H  2151  1  0.89431900  0.15932900  0.51121000  1
  H  2152  1  0.88247910  0.06764090  0.47253900  1
  H  2153  1  0.98040235  0.07901915  0.41603850  1
  H  2154  1  0.03047450  0.32322650  0.61975500  1
  H  2155  1  0.99079735  0.17015015  0.45288150  1
  H  2156  1  0.00270625  0.23266075  0.57810750  1
  H  2158  1  0.91205060  0.99388590  0.43329950  1
  H  2160  1  0.02202450  0.39469050  0.56279200  1
  H  2167  1  0.79702300  0.61516950  0.44880350  1
  H  2168  1  0.81266475  0.56595175  0.49116150  1
  H  2175  1  0.87562775  0.75635175  0.51120100  1
  H  2176  1  0.84879475  0.80936975  0.47253100  1
  H  2177  1  0.69437235  0.74149915  0.41604100  1
  H  2178  1  0.84801200  0.70099000  0.61974300  1
  H  2179  1  0.72082150  0.68721000  0.45288200  1
  H  2180  1  0.83412975  0.74991425  0.57810050  1
  H  2182  1  0.77998285  0.84389015  0.43329750  1
  H  2184  1  0.79951600  0.57255100  0.56276800  1
  N  461  1  0.19203625  0.03438975  0.08135600  1
  N  463  1  0.81327050  0.95749350  0.92047850  1
  N  485  1  0.39022725  0.20924075  0.08134350  1
  N  487  1  0.60815850  0.12527150  0.92050100  1
  N  509  1  0.54769475  0.39003875  0.41956950  1
  N  511  1  0.62455650  0.76881200  0.58044150  1
  N  533  1  0.37279875  0.19181925  0.41956950  1
  N  535  1  0.45681925  0.97390475  0.58042750  1
  N  1285  1  0.88148925  0.34493675  0.08135600  1
  N  1287  1  0.50272350  0.26804050  0.92047850  1
  N  1309  1  0.07968025  0.51978775  0.08134350  1
  N  1311  1  0.29761145  0.43581855  0.92050100  1
  N  1333  1  0.23714775  0.70058575  0.41956950  1
  N  1335  1  0.31400950  0.07935900  0.58044150  1
  N  1357  1  0.06225175  0.50236625  0.41956950  1
  N  1359  1  0.14627220  0.28445180  0.58042750  1
  N  2109  1  0.57094210  0.65548390  0.08135600  1
  N  2111  1  0.19217650  0.57858750  0.92047850  1
  N  2133  1  0.76913310  0.83033490  0.08134350  1
  N  2135  1  0.98706450  0.74636550  0.92050100  1
  N  2157  1  0.92660060  0.01113290  0.41956950  1
  N  2159  1  0.00346250  0.38990600  0.58044150  1
  N  2181  1  0.75170460  0.81291340  0.41956950  1
  N  2183  1  0.83572525  0.59499875  0.58042750  1
