# generated using pymatgen
data_MnH5C11O4
_symmetry_space_group_name_H-M   'P 1'
_cell_length_a   9.17154000
_cell_length_b   14.22044000
_cell_length_c   20.38076000
_cell_angle_alpha   97.63671000
_cell_angle_beta   101.16816000
_cell_angle_gamma   106.83832000
_symmetry_Int_Tables_number   1
_chemical_formula_structural   MnH5C11O4
_chemical_formula_sum   'Mn8 H40 C88 O32'
_cell_volume   2444.90207318
_cell_formula_units_Z   8
loop_
 _symmetry_equiv_pos_site_id
 _symmetry_equiv_pos_as_xyz
  1  'x, y, z'
loop_
 _atom_site_type_symbol
 _atom_site_label
 _atom_site_symmetry_multiplicity
 _atom_site_fract_x
 _atom_site_fract_y
 _atom_site_fract_z
 _atom_site_occupancy
  Mn  Mn1  1  0.00949000  0.56022000  0.08024000  1.0
  Mn  Mn2  1  0.48374000  0.93714000  0.41805000  1.0
  Mn  Mn3  1  0.24685000  0.74514000  0.24832000  1.0
  Mn  Mn4  1  0.98928000  0.43918000  0.92024000  1.0
  Mn  Mn5  1  0.50600000  0.06248000  0.57996000  1.0
  Mn  Mn6  1  0.75108000  0.25446000  0.75125000  1.0
  Mn  Mn7  1  0.49871000  0.49947000  0.00035000  1.0
  Mn  Mn8  1  0.99567000  0.00118000  0.50030000  1.0
  H  H1  1  0.54726000  0.66109000  0.38726000  1.0
  H  H2  1  0.55282000  0.48793000  0.39030000  1.0
  H  H3  1  0.87283000  0.59414000  0.58921000  1.0
  H  H4  1  0.86923000  0.76816000  0.58531000  1.0
  H  H5  1  0.79924000  0.23317000  0.39980000  1.0
  H  H6  1  0.70140000  0.43408000  0.59243000  1.0
  H  H7  1  0.93740000  0.56108000  0.43683000  1.0
  H  H8  1  0.66807000  0.28056000  0.29818000  1.0
  H  H9  1  0.75222000  0.35510000  0.20224000  1.0
  H  H10  1  0.99869000  0.63676000  0.33953000  1.0
  H  H11  1  0.80168000  0.06645000  0.90627000  1.0
  H  H12  1  0.68310000  0.26019000  0.09603000  1.0
  H  H13  1  0.81111000  0.21267000  0.19770000  1.0
  H  H14  1  0.72956000  0.13537000  0.29305000  1.0
  H  H15  1  0.49963000  0.85256000  0.15543000  1.0
  H  H16  1  0.55592000  0.93017000  0.05841000  1.0
  H  H17  1  0.93908000  0.00991000  0.10776000  1.0
  H  H18  1  0.94514000  0.83654000  0.11065000  1.0
  H  H19  1  0.63177000  0.73023000  0.91089000  1.0
  H  H20  1  0.62731000  0.90436000  0.90679000  1.0
  H  H21  1  0.45038000  0.34251000  0.61429000  1.0
  H  H22  1  0.44437000  0.51575000  0.61055000  1.0
  H  H23  1  0.12309000  0.40735000  0.41187000  1.0
  H  H24  1  0.12686000  0.23335000  0.41699000  1.0
  H  H25  1  0.19252000  0.76814000  0.59913000  1.0
  H  H26  1  0.29544000  0.56705000  0.40797000  1.0
  H  H27  1  0.05510000  0.44113000  0.56213000  1.0
  H  H28  1  0.32976000  0.71899000  0.70223000  1.0
  H  H29  1  0.25048000  0.64214000  0.79812000  1.0
  H  H30  1  0.99714000  0.36296000  0.65887000  1.0
  H  H31  1  0.19558000  0.93317000  0.09314000  1.0
  H  H32  1  0.31519000  0.73896000  0.90394000  1.0
  H  H33  1  0.18627000  0.78644000  0.80236000  1.0
  H  H34  1  0.26808000  0.86308000  0.70680000  1.0
  H  H35  1  0.50124000  0.14584000  0.84446000  1.0
  H  H36  1  0.44423000  0.06818000  0.94155000  1.0
  H  H37  1  0.06070000  0.98932000  0.89115000  1.0
  H  H38  1  0.05322000  0.16239000  0.88785000  1.0
  H  H39  1  0.36472000  0.26925000  0.08821000  1.0
  H  H40  1  0.36927000  0.09543000  0.09264000  1.0
  C  C1  1  0.70834000  0.82871000  0.48134000  1.0
  C  C2  1  0.70839000  0.72543000  0.48602000  1.0
  C  C3  1  0.61781000  0.64568000  0.43133000  1.0
  C  C4  1  0.62086000  0.54902000  0.43324000  1.0
  C  C5  1  0.71447000  0.52961000  0.48968000  1.0
  C  C6  1  0.79974000  0.60883000  0.54551000  1.0
  C  C7  1  0.79876000  0.70614000  0.54334000  1.0
  C  C8  1  0.72968000  0.42892000  0.49000000  1.0
  C  C9  1  0.76095000  0.37192000  0.43478000  1.0
  C  C10  1  0.77063000  0.27634000  0.44069000  1.0
  C  C11  1  0.75126000  0.23572000  0.49861000  1.0
  C  C12  1  0.72569000  0.29428000  0.55407000  1.0
  C  C13  1  0.71735000  0.38952000  0.54853000  1.0
  C  C14  1  0.71813000  0.26484000  0.62078000  1.0
  C  C15  1  0.75740000  0.13082000  0.49681000  1.0
  C  C16  1  0.89294000  0.51556000  0.38557000  1.0
  C  C17  1  0.79866000  0.41463000  0.37519000  1.0
  C  C18  1  0.74583000  0.35770000  0.30800000  1.0
  C  C19  1  0.79103000  0.39959000  0.25386000  1.0
  C  C20  1  0.88593000  0.50017000  0.26500000  1.0
  C  C21  1  0.93109000  0.55809000  0.33122000  1.0
  C  C22  1  0.94789000  0.54610000  0.21012000  1.0
  C  C23  1  0.73326000  0.36588000  0.00050000  1.0
  C  C24  1  0.74042000  0.26122000  0.99902000  1.0
  C  C25  1  0.77206000  0.20478000  0.94435000  1.0
  C  C26  1  0.78104000  0.10958000  0.94953000  1.0
  C  C27  1  0.76413000  0.06845000  0.00706000  1.0
  C  C28  1  0.72664000  0.12301000  0.06144000  1.0
  C  C29  1  0.71584000  0.21854000  0.05579000  1.0
  C  C30  1  0.78320000  0.23539000  0.87822000  1.0
  C  C31  1  0.68740000  0.07819000  0.12018000  1.0
  C  C32  1  0.73683000  0.13467000  0.18748000  1.0
  C  C33  1  0.69330000  0.09138000  0.24134000  1.0
  C  C34  1  0.60369000  0.98965000  0.22987000  1.0
  C  C35  1  0.56230000  0.93215000  0.16372000  1.0
  C  C36  1  0.59824000  0.97605000  0.10954000  1.0
  C  C37  1  0.78140000  0.96832000  0.00730000  1.0
  C  C38  1  0.87336000  0.94910000  0.06433000  1.0
  C  C39  1  0.87664000  0.85258000  0.06628000  1.0
  C  C40  1  0.78808000  0.77319000  0.01120000  1.0
  C  C41  1  0.70020000  0.79230000  0.95314000  1.0
  C  C42  1  0.69898000  0.88951000  0.95086000  1.0
  C  C43  1  0.78656000  0.67018000  0.01687000  1.0
  C  C44  1  0.54312000  0.94193000  0.28441000  1.0
  C  C45  1  0.28613000  0.17469000  0.52161000  1.0
  C  C46  1  0.28804000  0.27774000  0.51601000  1.0
  C  C47  1  0.37960000  0.35780000  0.57024000  1.0
  C  C48  1  0.37650000  0.45429000  0.56783000  1.0
  C  C49  1  0.28225000  0.47282000  0.51119000  1.0
  C  C50  1  0.19668000  0.39321000  0.45565000  1.0
  C  C51  1  0.19754000  0.29610000  0.45841000  1.0
  C  C52  1  0.26559000  0.57295000  0.51020000  1.0
  C  C53  1  0.23254000  0.62975000  0.56490000  1.0
  C  C54  1  0.22132000  0.72485000  0.55835000  1.0
  C  C55  1  0.23973000  0.76471000  0.49998000  1.0
  C  C56  1  0.26709000  0.70605000  0.44503000  1.0
  C  C57  1  0.27766000  0.61156000  0.45141000  1.0
  C  C58  1  0.27582000  0.73420000  0.37801000  1.0
  C  C59  1  0.23213000  0.86922000  0.50064000  1.0
  C  C60  1  0.10125000  0.48557000  0.61365000  1.0
  C  C61  1  0.19592000  0.58650000  0.62450000  1.0
  C  C62  1  0.25158000  0.64196000  0.69204000  1.0
  C  C63  1  0.20915000  0.59868000  0.74616000  1.0
  C  C64  1  0.11412000  0.49804000  0.73457000  1.0
  C  C65  1  0.06535000  0.44162000  0.66778000  1.0
  C  C66  1  0.05472000  0.45076000  0.78957000  1.0
  C  C67  1  0.26485000  0.63359000  0.00045000  1.0
  C  C68  1  0.25705000  0.73805000  0.00087000  1.0
  C  C69  1  0.22562000  0.79499000  0.05535000  1.0
  C  C70  1  0.21674000  0.89015000  0.05000000  1.0
  C  C71  1  0.23393000  0.93104000  0.99242000  1.0
  C  C72  1  0.27171000  0.87612000  0.93833000  1.0
  C  C73  1  0.28203000  0.78052000  0.94407000  1.0
  C  C74  1  0.21525000  0.76489000  0.12163000  1.0
  C  C75  1  0.31163000  0.92067000  0.87966000  1.0
  C  C76  1  0.26146000  0.86423000  0.81238000  1.0
  C  C77  1  0.30487000  0.90740000  0.75843000  1.0
  C  C78  1  0.39477000  0.00913000  0.76978000  1.0
  C  C79  1  0.43766000  0.06639000  0.83610000  1.0
  C  C80  1  0.40172000  0.02259000  0.89033000  1.0
  C  C81  1  0.21674000  0.03115000  0.99185000  1.0
  C  C82  1  0.12554000  0.05030000  0.93456000  1.0
  C  C83  1  0.12179000  0.14671000  0.93239000  1.0
  C  C84  1  0.20962000  0.22620000  0.98759000  1.0
  C  C85  1  0.29688000  0.20719000  0.04586000  1.0
  C  C86  1  0.29822000  0.11006000  0.04830000  1.0
  C  C87  1  0.21080000  0.32913000  0.98196000  1.0
  C  C88  1  0.45341000  0.05741000  0.71494000  1.0
  O  O1  1  0.60088000  0.83783000  0.43502000  1.0
  O  O2  1  0.81625000  0.90405000  0.52284000  1.0
  O  O3  1  0.70966000  0.32789000  0.66937000  1.0
  O  O4  1  0.72644000  0.17792000  0.63018000  1.0
  O  O5  1  0.62869000  0.06248000  0.49740000  1.0
  O  O6  1  0.88197000  0.11422000  0.49006000  1.0
  O  O7  1  0.01428000  0.64086000  0.22120000  1.0
  O  O8  1  0.93325000  0.48721000  0.15349000  1.0
  O  O9  1  0.60779000  0.38181000  0.00657000  1.0
  O  O10  1  0.86195000  0.43460000  0.00000000  1.0
  O  O11  1  0.76885000  0.32101000  0.86778000  1.0
  O  O12  1  0.79999000  0.17530000  0.83044000  1.0
  O  O13  1  0.67589000  0.59509000  0.97647000  1.0
  O  O14  1  0.89456000  0.66122000  0.06298000  1.0
  O  O15  1  0.47972000  0.84700000  0.27272000  1.0
  O  O16  1  0.55589000  0.00042000  0.34091000  1.0
  O  O17  1  0.39274000  0.16557000  0.56832000  1.0
  O  O18  1  0.17731000  0.09961000  0.48041000  1.0
  O  O19  1  0.28935000  0.67156000  0.33065000  1.0
  O  O20  1  0.26418000  0.81986000  0.36691000  1.0
  O  O21  1  0.36105000  0.93761000  0.49995000  1.0
  O  O22  1  0.10696000  0.88567000  0.50652000  1.0
  O  O23  1  0.98534000  0.35631000  0.77710000  1.0
  O  O24  1  0.07361000  0.50893000  0.84713000  1.0
  O  O25  1  0.39202000  0.61850000  0.99671000  1.0
  O  O26  1  0.13552000  0.56442000  0.00002000  1.0
  O  O27  1  0.23018000  0.67948000  0.13219000  1.0
  O  O28  1  0.19902000  0.82524000  0.16945000  1.0
  O  O29  1  0.31922000  0.40453000  0.02320000  1.0
  O  O30  1  0.10456000  0.33814000  0.93507000  1.0
  O  O31  1  0.51869000  0.15226000  0.72721000  1.0
  O  O32  1  0.43681000  0.99939000  0.65769000  1.0
