# generated using pymatgen
data_CdH4(C2O)4
_symmetry_space_group_name_H-M   'P 1'
_cell_length_a   11.23350000
_cell_length_b   13.83531000
_cell_length_c   14.80281000
_cell_angle_alpha   75.46730000
_cell_angle_beta   67.77268000
_cell_angle_gamma   66.14732000
_symmetry_Int_Tables_number   1
_chemical_formula_structural   CdH4(C2O)4
_chemical_formula_sum   'Cd6 H24 C48 O24'
_cell_volume   1934.69570447
_cell_formula_units_Z   6
loop_
 _symmetry_equiv_pos_site_id
 _symmetry_equiv_pos_as_xyz
  1  'x, y, z'
loop_
 _atom_site_type_symbol
 _atom_site_label
 _atom_site_symmetry_multiplicity
 _atom_site_fract_x
 _atom_site_fract_y
 _atom_site_fract_z
 _atom_site_occupancy
  Cd  Cd0  1  0.97522000  0.03331000  0.62347000  1
  Cd  Cd1  1  0.63319000  0.46701000  0.87657000  1
  Cd  Cd2  1  0.02477000  0.96669000  0.37654000  1
  Cd  Cd3  1  0.36679000  0.53300000  0.12344000  1
  Cd  Cd4  1  0.70560000  0.25001000  0.75019000  1
  Cd  Cd5  1  0.29439000  0.75000000  0.24981000  1
  H  H6  1  0.44020000  0.05020000  0.91534000  1
  H  H7  1  0.34363000  0.90958000  0.01913000  1
  H  H8  1  0.68908000  0.67305000  0.84809000  1
  H  H9  1  0.78435000  0.81336000  0.74773000  1
  H  H10  1  0.14540000  0.86089000  0.88679000  1
  H  H11  1  0.85793000  0.17611000  0.93753000  1
  H  H12  1  0.40623000  0.44976000  0.58418000  1
  H  H13  1  0.27291000  0.59054000  0.48062000  1
  H  H14  1  0.21085000  0.82653000  0.65259000  1
  H  H15  1  0.34663000  0.68604000  0.75252000  1
  H  H16  1  0.89317000  0.63898000  0.61348000  1
  H  H17  1  0.97197000  0.32361000  0.56243000  1
  H  H18  1  0.55978000  0.94980000  0.08467000  1
  H  H19  1  0.65636000  0.09042000  0.98087000  1
  H  H20  1  0.31091000  0.32696000  0.15191000  1
  H  H21  1  0.21564000  0.18664000  0.25227000  1
  H  H22  1  0.85458000  0.13911000  0.11322000  1
  H  H23  1  0.14206000  0.82390000  0.06247000  1
  H  H24  1  0.59376000  0.55025000  0.41582000  1
  H  H25  1  0.72707000  0.40947000  0.51939000  1
  H  H26  1  0.78914000  0.17347000  0.34742000  1
  H  H27  1  0.65335000  0.31397000  0.24748000  1
  H  H28  1  0.10682000  0.36102000  0.38653000  1
  H  H29  1  0.02801000  0.67640000  0.43757000  1
  C  C30  1  0.68301000  0.02154000  0.76623000  1
  C  C31  1  0.61804000  0.93995000  0.82560000  1
  C  C32  1  0.49304000  0.96745000  0.90154000  1
  C  C33  1  0.43941000  0.88912000  0.95923000  1
  C  C34  1  0.50980000  0.78234000  0.94061000  1
  C  C35  1  0.63388000  0.75513000  0.86348000  1
  C  C36  1  0.68753000  0.83343000  0.80673000  1
  C  C37  1  0.45362000  0.69893000  0.00239000  1
  C  C38  1  0.99950000  0.04151000  0.79853000  1
  C  C39  1  0.00244000  0.02087000  0.90170000  1
  C  C40  1  0.08242000  0.92114000  0.93690000  1
  C  C41  1  0.92030000  0.09963000  0.96542000  1
  C  C42  1  0.47178000  0.47799000  0.73328000  1
  C  C43  1  0.38441000  0.55973000  0.67423000  1
  C  C44  1  0.36255000  0.53242000  0.59823000  1
  C  C45  1  0.28838000  0.61085000  0.54065000  1
  C  C46  1  0.23352000  0.71756000  0.55951000  1
  C  C47  1  0.25327000  0.74456000  0.63688000  1
  C  C48  1  0.32858000  0.66616000  0.69346000  1
  C  C49  1  0.15611000  0.80088000  0.49752000  1
  C  C50  1  0.84117000  0.45751000  0.70157000  1
  C  C51  1  0.92569000  0.47879000  0.59832000  1
  C  C52  1  0.94058000  0.57881000  0.56326000  1
  C  C53  1  0.98572000  0.40016000  0.53447000  1
  C  C54  1  0.31697000  0.97846000  0.23377000  1
  C  C55  1  0.38194000  0.06006000  0.17440000  1
  C  C56  1  0.50695000  0.03256000  0.09847000  1
  C  C57  1  0.56057000  0.11088000  0.04077000  1
  C  C58  1  0.49019000  0.21767000  0.05940000  1
  C  C59  1  0.36610000  0.24488000  0.13653000  1
  C  C60  1  0.31245000  0.16658000  0.19328000  1
  C  C61  1  0.54636000  0.30107000  0.99761000  1
  C  C62  1  0.00049000  0.95850000  0.20147000  1
  C  C63  1  0.99755000  0.97913000  0.09830000  1
  C  C64  1  0.91756000  0.07887000  0.06311000  1
  C  C65  1  0.07969000  0.90037000  0.03458000  1
  C  C66  1  0.52820000  0.52201000  0.26673000  1
  C  C67  1  0.61558000  0.44027000  0.32577000  1
  C  C68  1  0.63743000  0.46758000  0.40177000  1
  C  C69  1  0.71161000  0.38915000  0.45936000  1
  C  C70  1  0.76647000  0.28245000  0.44049000  1
  C  C71  1  0.74672000  0.25545000  0.36312000  1
  C  C72  1  0.67140000  0.33384000  0.30655000  1
  C  C73  1  0.84388000  0.19913000  0.50248000  1
  C  C74  1  0.15882000  0.54250000  0.29843000  1
  C  C75  1  0.07430000  0.52121000  0.40168000  1
  C  C76  1  0.05941000  0.42119000  0.43675000  1
  C  C77  1  0.01426000  0.59984000  0.46554000  1
  O  O78  1  0.62916000  0.11355000  0.79569000  1
  O  O79  1  0.78752000  0.99036000  0.69207000  1
  O  O80  1  0.35333000  0.71916000  0.08199000  1
  O  O81  1  0.50238000  0.60446000  0.97697000  1
  O  O82  1  0.91842000  0.12891000  0.76897000  1
  O  O83  1  0.07769000  0.96846000  0.74131000  1
  O  O84  1  0.53812000  0.38573000  0.70421000  1
  O  O85  1  0.47254000  0.50942000  0.80680000  1
  O  O86  1  0.15636000  0.78047000  0.41769000  1
  O  O87  1  0.08475000  0.89535000  0.52292000  1
  O  O88  1  0.81745000  0.37025000  0.73061000  1
  O  O89  1  0.79046000  0.52995000  0.75931000  1
  O  O90  1  0.37082000  0.88646000  0.20432000  1
  O  O91  1  0.21247000  0.00964000  0.30793000  1
  O  O92  1  0.64665000  0.28084000  0.91801000  1
  O  O93  1  0.49760000  0.39555000  0.02303000  1
  O  O94  1  0.08157000  0.87110000  0.23103000  1
  O  O95  1  0.92230000  0.03154000  0.25870000  1
  O  O96  1  0.46186000  0.61427000  0.29579000  1
  O  O97  1  0.52745000  0.49058000  0.19320000  1
  O  O98  1  0.84362000  0.21953000  0.58231000  1
  O  O99  1  0.91524000  0.10465000  0.47708000  1
  O  O100  1  0.18254000  0.62975000  0.26940000  1
  O  O101  1  0.20953000  0.47006000  0.24069000  1
