# generated using pymatgen
data_Cd3H62C72S2(N8O7)2
_symmetry_space_group_name_H-M   'P 1'
_cell_length_a   10.24966000
_cell_length_b   13.12555000
_cell_length_c   17.49714000
_cell_angle_alpha   79.66541000
_cell_angle_beta   85.73245000
_cell_angle_gamma   77.85190000
_symmetry_Int_Tables_number   1
_chemical_formula_structural   Cd3H62C72S2(N8O7)2
_chemical_formula_sum   'Cd3 H62 C72 S2 N16 O14'
_cell_volume   2262.24248017
_cell_formula_units_Z   1
loop_
 _symmetry_equiv_pos_site_id
 _symmetry_equiv_pos_as_xyz
  1  'x, y, z'
loop_
 _atom_site_type_symbol
 _atom_site_label
 _atom_site_symmetry_multiplicity
 _atom_site_fract_x
 _atom_site_fract_y
 _atom_site_fract_z
 _atom_site_occupancy
  Cd  Cd0  1  0.95483000  0.90376000  0.79735000  1
  Cd  Cd1  1  0.04517000  0.09625000  0.20265000  1
  Cd  Cd2  1  0.50000000  0.50000000  0.50000000  1
  H  H3  1  0.59696000  0.19431000  0.69533000  1
  H  H4  1  0.46688000  0.90742000  0.79935000  1
  H  H5  1  0.17894000  0.18293000  0.70715000  1
  H  H6  1  0.22323000  0.73663000  0.72795000  1
  H  H7  1  0.19403000  0.56258000  0.66354000  1
  H  H8  1  0.81534000  0.72089000  0.73914000  1
  H  H9  1  0.82492000  0.58411000  0.64411000  1
  H  H10  1  0.98393000  0.51715000  0.61584000  1
  H  H11  1  0.07653000  0.46049000  0.79436000  1
  H  H12  1  0.05963000  0.30135000  0.89014000  1
  H  H13  1  0.73100000  0.25531000  0.76985000  1
  H  H14  1  0.74325000  0.41870000  0.67555000  1
  H  H15  1  0.90319000  0.09988000  0.85616000  1
  H  H16  1  0.78354000  0.16845000  0.91664000  1
  H  H17  1  0.16549000  0.09522000  0.89192000  1
  H  H18  1  0.26086000  0.06935000  0.04142000  1
  H  H19  1  0.84180000  0.16495000  0.05217000  1
  H  H20  1  0.40305000  0.80570000  0.30467000  1
  H  H21  1  0.53313000  0.09258000  0.20065000  1
  H  H22  1  0.82107000  0.81707000  0.29285000  1
  H  H23  1  0.77677000  0.26338000  0.27205000  1
  H  H24  1  0.80597000  0.43742000  0.33646000  1
  H  H25  1  0.18467000  0.27911000  0.26085000  1
  H  H26  1  0.17509000  0.41589000  0.35588000  1
  H  H27  1  0.01607000  0.48286000  0.38415000  1
  H  H28  1  0.92347000  0.53952000  0.20564000  1
  H  H29  1  0.94037000  0.69866000  0.10986000  1
  H  H30  1  0.26900000  0.74469000  0.23015000  1
  H  H31  1  0.25676000  0.58131000  0.32445000  1
  H  H32  1  0.09681000  0.90013000  0.14383000  1
  H  H33  1  0.21647000  0.83156000  0.08336000  1
  H  H34  1  0.83452000  0.90479000  0.10808000  1
  H  H35  1  0.73915000  0.93065000  0.95858000  1
  H  H36  1  0.15821000  0.83505000  0.94783000  1
  H  H37  1  0.84705000  0.51165000  0.47635000  1
  H  H38  1  0.04544000  0.34330000  0.54439000  1
  H  H39  1  0.67472000  0.24690000  0.55992000  1
  H  H40  1  0.03586000  0.16882000  0.62423000  1
  H  H41  1  0.88003000  0.13470000  0.65069000  1
  H  H42  1  0.03579000  0.95333000  0.64140000  1
  H  H43  1  0.91737000  0.18690000  0.43969000  1
  H  H44  1  0.64903000  0.70700000  0.50886000  1
  H  H45  1  0.51831000  0.71633000  0.74372000  1
  H  H46  1  0.45812000  0.53827000  0.69726000  1
  H  H47  1  0.74926000  0.82946000  0.60722000  1
  H  H48  1  0.62292000  0.86331000  0.67800000  1
  H  H49  1  0.37109000  0.90126000  0.60257000  1
  H  H50  1  0.74793000  0.96337000  0.49994000  1
  H  H51  1  0.15295000  0.48836000  0.52365000  1
  H  H52  1  0.95456000  0.65671000  0.45561000  1
  H  H53  1  0.32529000  0.75310000  0.44008000  1
  H  H54  1  0.96415000  0.83119000  0.37577000  1
  H  H55  1  0.11998000  0.86530000  0.34931000  1
  H  H56  1  0.96421000  0.04667000  0.35860000  1
  H  H57  1  0.08264000  0.81310000  0.56031000  1
  H  H58  1  0.35097000  0.29300000  0.49113000  1
  H  H59  1  0.48169000  0.28368000  0.25628000  1
  H  H60  1  0.54189000  0.46174000  0.30274000  1
  H  H61  1  0.25075000  0.17054000  0.39278000  1
  H  H62  1  0.37708000  0.13669000  0.32200000  1
  H  H63  1  0.62891000  0.09875000  0.39743000  1
  H  H64  1  0.25208000  0.03664000  0.50006000  1
  C  C65  1  0.38459000  0.20006000  0.69742000  1
  C  C66  1  0.51691000  0.15135000  0.71284000  1
  C  C67  1  0.54700000  0.04570000  0.75020000  1
  C  C68  1  0.68835000  0.99259000  0.76744000  1
  C  C69  1  0.44422000  0.98943000  0.77064000  1
  C  C70  1  0.31166000  0.03791000  0.75458000  1
  C  C71  1  0.20361000  0.97472000  0.77404000  1
  C  C72  1  0.28185000  0.14425000  0.71880000  1
  C  C73  1  0.13462000  0.70820000  0.71909000  1
  C  C74  1  0.12138000  0.62364000  0.68611000  1
  C  C75  1  0.92174000  0.70387000  0.72607000  1
  C  C76  1  0.92357000  0.54400000  0.66558000  1
  C  C77  1  0.91171000  0.45030000  0.72807000  1
  C  C78  1  0.99928000  0.41696000  0.78911000  1
  C  C79  1  0.99028000  0.32605000  0.84313000  1
  C  C80  1  0.89496000  0.26667000  0.83618000  1
  C  C81  1  0.80579000  0.30108000  0.77543000  1
  C  C82  1  0.81344000  0.39243000  0.72221000  1
  C  C83  1  0.88459000  0.16453000  0.89011000  1
  C  C84  1  0.11469000  0.10480000  0.94736000  1
  C  C85  1  0.16004000  0.09261000  0.02106000  1
  C  C86  1  0.94314000  0.14323000  0.02937000  1
  C  C87  1  0.61542000  0.79994000  0.30258000  1
  C  C88  1  0.48310000  0.84866000  0.28716000  1
  C  C89  1  0.45301000  0.95431000  0.24980000  1
  C  C90  1  0.31165000  0.00741000  0.23256000  1
  C  C91  1  0.55578000  0.01057000  0.22936000  1
  C  C92  1  0.68834000  0.96210000  0.24542000  1
  C  C93  1  0.79639000  0.02528000  0.22595000  1
  C  C94  1  0.71816000  0.85575000  0.28120000  1
  C  C95  1  0.86538000  0.29180000  0.28091000  1
  C  C96  1  0.87862000  0.37637000  0.31389000  1
  C  C97  1  0.07827000  0.29614000  0.27393000  1
  C  C98  1  0.07643000  0.45600000  0.33442000  1
  C  C99  1  0.08830000  0.54970000  0.27193000  1
  C  C100  1  0.00073000  0.58304000  0.21089000  1
  C  C101  1  0.00972000  0.67395000  0.15687000  1
  C  C102  1  0.10504000  0.73334000  0.16382000  1
  C  C103  1  0.19421000  0.69893000  0.22457000  1
  C  C104  1  0.18657000  0.60757000  0.27778000  1
  C  C105  1  0.11542000  0.83548000  0.10989000  1
  C  C106  1  0.88531000  0.89520000  0.05264000  1
  C  C107  1  0.83997000  0.90739000  0.97894000  1
  C  C108  1  0.05686000  0.85677000  0.97063000  1
  C  C109  1  0.84193000  0.43163000  0.50361000  1
  C  C110  1  0.94032000  0.34997000  0.53551000  1
  C  C111  1  0.74704000  0.29728000  0.54530000  1
  C  C112  1  0.94311000  0.16087000  0.60048000  1
  C  C113  1  0.97207000  0.07950000  0.54699000  1
  C  C114  1  0.01888000  0.97352000  0.57934000  1
  C  C115  1  0.95371000  0.10537000  0.46682000  1
  C  C116  1  0.60542000  0.68402000  0.56609000  1
  C  C117  1  0.53638000  0.68650000  0.68925000  1
  C  C118  1  0.50698000  0.59972000  0.66545000  1
  C  C119  1  0.64120000  0.84053000  0.62017000  1
  C  C120  1  0.56749000  0.92356000  0.55835000  1
  C  C121  1  0.42775000  0.94451000  0.55775000  1
  C  C122  1  0.63920000  0.97939000  0.50016000  1
  C  C123  1  0.15808000  0.56838000  0.49639000  1
  C  C124  1  0.05969000  0.65004000  0.46448000  1
  C  C125  1  0.25297000  0.70273000  0.45470000  1
  C  C126  1  0.05689000  0.83914000  0.39952000  1
  C  C127  1  0.02794000  0.92051000  0.45301000  1
  C  C128  1  0.98113000  0.02648000  0.42066000  1
  C  C129  1  0.04629000  0.89464000  0.53318000  1
  C  C130  1  0.39459000  0.31599000  0.43391000  1
  C  C131  1  0.46363000  0.31351000  0.31075000  1
  C  C132  1  0.49303000  0.40028000  0.33455000  1
  C  C133  1  0.35881000  0.15947000  0.37983000  1
  C  C134  1  0.43251000  0.07645000  0.44165000  1
  C  C135  1  0.57226000  0.05549000  0.44225000  1
  C  C136  1  0.36081000  0.02061000  0.49984000  1
  S  S137  1  0.34416000  0.33461000  0.64868000  1
  S  S138  1  0.65585000  0.66540000  0.35132000  1
  N  N139  1  0.00923000  0.75771000  0.74343000  1
  N  N140  1  0.98613000  0.62239000  0.69055000  1
  N  N141  1  0.97701000  0.13682000  0.95364000  1
  N  N142  1  0.05184000  0.11650000  0.07166000  1
  N  N143  1  0.99078000  0.24230000  0.25657000  1
  N  N144  1  0.01388000  0.37761000  0.30945000  1
  N  N145  1  0.02300000  0.86319000  0.04636000  1
  N  N146  1  0.94816000  0.88350000  0.92834000  1
  N  N147  1  0.72160000  0.39790000  0.50992000  1
  N  N148  1  0.87830000  0.26564000  0.56231000  1
  N  N149  1  0.55035000  0.59939000  0.58853000  1
  N  N150  1  0.59956000  0.73876000  0.62586000  1
  N  N151  1  0.27841000  0.60210000  0.49008000  1
  N  N152  1  0.12171000  0.73437000  0.43769000  1
  N  N153  1  0.44966000  0.40062000  0.41146000  1
  N  N154  1  0.40045000  0.26124000  0.37414000  1
  O  O155  1  0.46645000  0.34877000  0.59869000  1
  O  O156  1  0.31840000  0.40285000  0.70863000  1
  O  O157  1  0.22732000  0.33886000  0.60225000  1
  O  O158  1  0.77890000  0.04844000  0.75385000  1
  O  O159  1  0.71385000  0.89399000  0.79495000  1
  O  O160  1  0.23242000  0.87939000  0.80664000  1
  O  O161  1  0.08450000  0.02443000  0.75508000  1
  O  O162  1  0.53356000  0.65124000  0.40131000  1
  O  O163  1  0.68161000  0.59716000  0.29136000  1
  O  O164  1  0.77269000  0.66115000  0.39775000  1
  O  O165  1  0.22110000  0.95156000  0.24614000  1
  O  O166  1  0.28616000  0.10602000  0.20505000  1
  O  O167  1  0.76758000  0.12061000  0.19336000  1
  O  O168  1  0.91551000  0.97558000  0.24491000  1
