# generated using pymatgen
data_H13C21N2O
_symmetry_space_group_name_H-M   'P 1'
_cell_length_a   29.26750000
_cell_length_b   29.26750000
_cell_length_c   41.39050000
_cell_angle_alpha   90.00000000
_cell_angle_beta   90.00000000
_cell_angle_gamma   90.00000000
_symmetry_Int_Tables_number   1
_chemical_formula_structural   H13C21N2O
_chemical_formula_sum   'H104 C168 N16 O8'
_cell_volume   35454.54585647
_cell_formula_units_Z   8
loop_
 _symmetry_equiv_pos_site_id
 _symmetry_equiv_pos_as_xyz
  1  'x, y, z'
loop_
 _atom_site_type_symbol
 _atom_site_label
 _atom_site_symmetry_multiplicity
 _atom_site_fract_x
 _atom_site_fract_y
 _atom_site_fract_z
 _atom_site_occupancy
  H  73  1  0.75309200  0.02069000  0.23152500  1
  H  74  1  0.69429300  0.02392000  0.19129000  1
  H  75  1  0.83199900  0.93599500  0.17071300  1
  H  76  1  0.77363000  0.93960700  0.13017900  1
  H  77  1  0.69096200  0.91258700  0.12311800  1
  H  78  1  0.63240200  0.91578200  0.08283100  1
  H  79  1  0.68333600  0.05597400  0.13417700  1
  H  80  1  0.62440000  0.05891900  0.09412700  1
  H  81  1  0.54833600  0.98593800  0.12396500  1
  H  82  1  0.46176500  0.98716100  0.12546600  1
  H  83  1  0.50185400  0.99326300  0.03105400  1
  H  84  1  0.49960600  0.99008600  0.97460300  1
  H  85  1  0.67618800  0.99098400  0.03028200  1
  H  86  1  0.67378900  0.99204400  0.96886800  1
  H  87  1  0.62185400  0.91966000  0.91282800  1
  H  88  1  0.67828200  0.91970700  0.87102400  1
  H  89  1  0.62105800  0.06395100  0.91258200  1
  H  90  1  0.67705900  0.06418600  0.87037200  1
  H  91  1  0.53944500  0.99188000  0.88003600  1
  H  92  1  0.45295000  0.99100800  0.88156500  1
  H  93  1  0.32757900  0.99062600  0.03657400  1
  H  94  1  0.32528600  0.98948100  0.97523900  1
  H  95  1  0.36618800  0.06022200  0.92049000  1
  H  96  1  0.30533600  0.05800600  0.88198100  1
  H  97  1  0.37970500  0.91687100  0.91414500  1
  H  98  1  0.31964300  0.91456500  0.87498900  1
  H  99  1  0.23504800  0.92843400  0.87510700  1
  H  100  1  0.16956500  0.92829700  0.84061600  1
  H  101  1  0.22258900  0.04067100  0.78923000  1
  H  102  1  0.28904800  0.04053900  0.82315100  1
  H  103  1  0.37774400  0.91824500  0.09017000  1
  H  104  1  0.31555500  0.91695300  0.12749000  1
  H  105  1  0.23426300  0.03972800  0.12831900  1
  H  106  1  0.16530800  0.03393700  0.15894100  1
  H  107  1  0.22367900  0.92874500  0.21506200  1
  H  108  1  0.29324900  0.93503200  0.18503300  1
  H  109  1  0.31748800  0.06130600  0.13154900  1
  H  110  1  0.37915800  0.06240700  0.09357000  1
  H  111  1  0.76099200  0.04019300  0.86606400  1
  H  112  1  0.82267500  0.03582600  0.82838100  1
  H  113  1  0.68776000  0.94247300  0.81147200  1
  H  114  1  0.75016400  0.93766600  0.77413900  1
  H  191  1  0.97907400  0.75359500  0.73251600  1
  H  192  1  0.97573500  0.69469300  0.69236700  1
  H  193  1  0.06316800  0.83257300  0.67133300  1
  H  194  1  0.05945900  0.77408100  0.63088700  1
  H  195  1  0.08664100  0.69140900  0.62388800  1
  H  196  1  0.08334800  0.63266200  0.58374100  1
  H  197  1  0.94333100  0.68354100  0.63535200  1
  H  198  1  0.94029000  0.62441400  0.59544100  1
  H  199  1  0.01393600  0.54838700  0.62509100  1
  H  200  1  0.01350200  0.46181000  0.62656400  1
  H  201  1  0.00631100  0.50190200  0.53219700  1
  H  202  1  0.00802500  0.49973600  0.47575400  1
  H  203  1  0.00709400  0.67627300  0.53149900  1
  H  204  1  0.00559900  0.67390900  0.47009100  1
  H  205  1  0.07848800  0.62410900  0.41520200  1
  H  206  1  0.07808200  0.68079400  0.37360800  1
  H  207  1  0.93431400  0.61909700  0.41270100  1
  H  208  1  0.93374300  0.67526200  0.37060700  1
  H  209  1  0.00796600  0.53969500  0.38119600  1
  H  210  1  0.00953900  0.45321700  0.38268200  1
  H  211  1  0.00997200  0.32763100  0.53761200  1
  H  212  1  0.01054600  0.32544400  0.47624500  1
  H  213  1  0.93976700  0.36843300  0.41944000  1
  H  214  1  0.94257900  0.30853100  0.38014800  1
  H  215  1  0.08366600  0.37846500  0.41711500  1
  H  216  1  0.08661600  0.31917700  0.37734300  1
  H  217  1  0.06921300  0.23424000  0.37665200  1
  H  218  1  0.06932400  0.16968800  0.34125700  1
  H  219  1  0.96421800  0.22929600  0.28591100  1
  H  220  1  0.96421100  0.29465300  0.32095100  1
  H  221  1  0.08354200  0.37939400  0.59074000  1
  H  222  1  0.08682700  0.31790500  0.62859900  1
  H  223  1  0.96570700  0.23390600  0.63197600  1
  H  224  1  0.97254400  0.16674800  0.66439400  1
  H  225  1  0.07743700  0.22934300  0.71850300  1
  H  226  1  0.07012700  0.29708200  0.68661900  1
  H  227  1  0.94254800  0.31676400  0.63384600  1
  H  228  1  0.93945300  0.37774000  0.59535400  1
  H  229  1  0.95496500  0.75963200  0.36704800  1
  H  230  1  0.95960800  0.82254800  0.33059100  1
  H  231  1  0.05766000  0.69092800  0.31411600  1
  H  232  1  0.06298800  0.75469100  0.27812900  1
  H  243  1  0.94298200  0.00449600  0.20613100  1
  H  252  1  0.06431900  0.00707100  0.21209300  1
  H  255  1  0.02155000  0.03580200  0.30730500  1
  H  256  1  0.96704700  0.96187400  0.30111500  1
  H  257  1  0.92139900  0.16478400  0.23678500  1
  H  258  1  0.12020500  0.87693300  0.27234500  1
  H  263  1  0.13637900  0.91027000  0.20416500  1
  H  264  1  0.00568600  0.12648200  0.30824000  1
  H  265  1  0.86434600  0.07726600  0.19151500  1
  H  266  1  0.01126700  0.88317200  0.31162200  1
  H  273  1  0.00364800  0.95268900  0.70347300  1
  H  282  1  0.99789700  0.07091200  0.71627800  1
  H  285  1  0.95805400  0.01753500  0.80680900  1
  H  286  1  0.03389200  0.96769900  0.80456900  1
  H  287  1  0.87002800  0.88070500  0.75189800  1
  H  288  1  0.15599100  0.09442600  0.75324600  1
  H  293  1  0.09514100  0.14333700  0.71731700  1
  H  294  1  0.87841600  0.97217500  0.80884100  1
  H  295  1  0.93601200  0.87428800  0.67910100  1
  H  296  1  0.12169300  0.99052300  0.81067700  1
  C  1  1  0.52796200  0.98774500  0.10395200  1
  C  2  1  0.48081000  0.98846000  0.10478500  1
  C  3  1  0.46479600  0.99047900  0.07301500  1
  C  5  1  0.54184400  0.98954300  0.07166100  1
  C  6  1  0.58803500  0.98938200  0.06091900  1
  C  7  1  0.60194200  0.99026000  0.02806000  1
  C  9  1  0.59983000  0.99125800  0.97397500  1
  C  10  1  0.64562800  0.99150700  0.98346800  1
  C  11  1  0.64693000  0.99087900  0.01680200  1
  C  12  1  0.58340600  0.99156900  0.94170200  1
  C  13  1  0.53656900  0.99116200  0.93257700  1
  C  15  1  0.45959900  0.99028100  0.93392500  1
  C  16  1  0.47336900  0.99079700  0.90159900  1
  C  17  1  0.52049300  0.99135000  0.90077200  1
  C  18  1  0.41346300  0.98987400  0.94466700  1
  C  19  1  0.39954300  0.99036300  0.97751200  1
  C  21  1  0.40160300  0.99119600  0.03157800  1
  C  22  1  0.35580100  0.99083100  0.02203400  1
  C  23  1  0.35453400  0.99012000  0.98872000  1
  C  24  1  0.41796200  0.99112100  0.06388300  1
  C  25  1  0.38453600  0.99040700  0.08884200  1
  C  26  1  0.36666000  0.03160300  0.10126700  1
  C  27  1  0.33014700  0.03083500  0.12337100  1
  C  28  1  0.31056000  0.98900300  0.13360700  1
  C  29  1  0.32958200  0.94786500  0.12156900  1
  C  30  1  0.36598300  0.94849400  0.09940800  1
  C  31  1  0.27083600  0.98803900  0.15363100  1
  C  32  1  0.26666100  0.95621600  0.17924200  1
  C  33  1  0.22582600  0.95246400  0.19696900  1
  C  34  1  0.18790400  0.98037500  0.18943000  1
  C  35  1  0.19237400  0.01343400  0.16489800  1
  C  36  1  0.23316500  0.01701400  0.14710000  1
  C  37  1  0.37848900  0.98876700  0.92078700  1
  C  38  1  0.35683300  0.02945200  0.91076300  1
  C  39  1  0.32132600  0.02805300  0.88788300  1
  C  40  1  0.30654300  0.98608100  0.87440400  1
  C  41  1  0.32897600  0.94555500  0.88434400  1
  C  42  1  0.36447600  0.94680600  0.90722300  1
  C  43  1  0.26868400  0.98460200  0.85266700  1
  C  44  1  0.26409500  0.01675200  0.82727200  1
  C  45  1  0.22528800  0.01680800  0.80718300  1
  C  46  1  0.18956500  0.98523100  0.81239000  1
  C  47  1  0.19483800  0.95180400  0.83667800  1
  C  48  1  0.23358800  0.95178100  0.85673100  1
  C  49  1  0.61648300  0.99179100  0.91653200  1
  C  50  1  0.63314700  0.95024600  0.90386300  1
  C  51  1  0.66594800  0.95040000  0.87904800  1
  C  52  1  0.68300100  0.99196900  0.86634200  1
  C  53  1  0.66581800  0.03345700  0.87909400  1
  C  54  1  0.63282900  0.03343700  0.90380700  1
  C  55  1  0.71817000  0.99177700  0.84250800  1
  C  56  1  0.75760900  0.01922900  0.84641700  1
  C  57  1  0.79415200  0.01637900  0.82447200  1
  C  58  1  0.79229300  0.98584200  0.79805300  1
  C  59  1  0.75232400  0.95990900  0.79316600  1
  C  60  1  0.71588700  0.96254300  0.81528200  1
  C  61  1  0.62305700  0.98763600  0.08479900  1
  C  62  1  0.64301800  0.94549000  0.09351700  1
  C  63  1  0.63826500  0.02794800  0.10013000  1
  C  64  1  0.67269600  0.02605700  0.12382300  1
  C  65  1  0.69307700  0.98397700  0.13267200  1
  C  66  1  0.67766000  0.94376800  0.11705400  1
  C  67  1  0.72807500  0.98211500  0.15667100  1
  C  68  1  0.76854300  0.95654700  0.15150700  1
  C  69  1  0.80304200  0.95460300  0.17516200  1
  C  70  1  0.79763700  0.97803800  0.20463100  1
  C  71  1  0.75762600  0.00359900  0.21017500  1
  C  72  1  0.72331200  0.00568100  0.18638900  1
  C  119  1  0.01215000  0.52800600  0.60507900  1
  C  120  1  0.01181900  0.48084800  0.60589500  1
  C  121  1  0.00972600  0.46482700  0.57413000  1
  C  123  1  0.00997300  0.54189900  0.57280300  1
  C  124  1  0.00972700  0.58810400  0.56208600  1
  C  125  1  0.00846600  0.60203400  0.52924000  1
  C  127  1  0.00711400  0.59995600  0.47517000  1
  C  128  1  0.00648500  0.64574800  0.48467900  1
  C  129  1  0.00736300  0.64702900  0.51800600  1
  C  130  1  0.00685000  0.58354600  0.44289900  1
  C  131  1  0.00768700  0.53673600  0.43374000  1
  C  133  1  0.00918200  0.45980100  0.43505400  1
  C  134  1  0.00912400  0.47360400  0.40272800  1
  C  135  1  0.00816800  0.52071500  0.40192300  1
  C  136  1  0.00987600  0.41366800  0.44578100  1
  C  137  1  0.00952500  0.39968300  0.47860800  1
  C  139  1  0.00914100  0.40165400  0.53267600  1
  C  140  1  0.00960000  0.35587000  0.52309100  1
  C  141  1  0.00996700  0.35465700  0.48977000  1
  C  142  1  0.00944100  0.41798300  0.56498700  1
  C  143  1  0.01122900  0.38455300  0.58993000  1
  C  144  1  0.97064800  0.36595600  0.60282700  1
  C  145  1  0.97259500  0.32983500  0.62522400  1
  C  146  1  0.01501400  0.31137800  0.63531800  1
  C  147  1  0.05550400  0.33100700  0.62269200  1
  C  148  1  0.05371000  0.36704600  0.60026400  1
  C  149  1  0.01717100  0.27240700  0.65604200  1
  C  150  1  0.04934600  0.26989100  0.68154800  1
  C  151  1  0.05370800  0.23009000  0.70036900  1
  C  152  1  0.02607000  0.19150800  0.69409000  1
  C  153  1  0.99292500  0.19426700  0.66947300  1
  C  154  1  0.98875000  0.23399700  0.65057200  1
  C  155  1  0.01145300  0.37879600  0.42185800  1
  C  156  1  0.97081200  0.35841500  0.41050700  1
  C  157  1  0.97256500  0.32352300  0.38717400  1
  C  158  1  0.01487000  0.30808300  0.37463900  1
  C  159  1  0.05539800  0.32909600  0.38599700  1
  C  160  1  0.05377600  0.36407700  0.40926100  1
  C  161  1  0.01658000  0.27090300  0.35239300  1
  C  162  1  0.98652200  0.26855100  0.32561100  1
  C  163  1  0.98658700  0.23042300  0.30488200  1
  C  164  1  0.01600700  0.19314700  0.31090000  1
  C  165  1  0.04739500  0.19614200  0.33669600  1
  C  166  1  0.04741500  0.23428100  0.35731700  1
  C  167  1  0.00644200  0.61663000  0.41775100  1
  C  168  1  0.04787100  0.63452000  0.40576500  1
  C  169  1  0.04751400  0.66748900  0.38107300  1
  C  170  1  0.00586300  0.68336300  0.36774200  1
  C  171  1  0.96451100  0.66485800  0.37976400  1
  C  172  1  0.96473300  0.63177000  0.40440500  1
  C  173  1  0.00578400  0.71889400  0.34418800  1
  C  174  1  0.97691400  0.75735300  0.34786500  1
  C  175  1  0.97999300  0.79471900  0.32664500  1
  C  176  1  0.01214900  0.79468500  0.30115100  1
  C  177  1  0.03934700  0.75552800  0.29635800  1
  C  178  1  0.03647000  0.71827200  0.31774000  1
  C  179  1  0.01152900  0.62313600  0.58595400  1
  C  180  1  0.05367800  0.64324300  0.59449900  1
  C  181  1  0.97126600  0.63834700  0.60134600  1
  C  182  1  0.97321700  0.67290100  0.62495100  1
  C  183  1  0.01530100  0.69341200  0.63363600  1
  C  184  1  0.05545600  0.67801200  0.61794200  1
  C  185  1  0.01722900  0.72849200  0.65757200  1
  C  186  1  0.04266500  0.76900800  0.65227600  1
  C  187  1  0.04467000  0.80357500  0.67588000  1
  C  188  1  0.02143800  0.79818300  0.70543300  1
  C  189  1  0.99602100  0.75811800  0.71110800  1
  C  190  1  0.99386800  0.72374200  0.68737100  1
  C  237  1  0.98817900  0.02319800  0.24360700  1
  C  238  1  0.95077900  0.02952100  0.22262200  1
  C  239  1  0.92384200  0.06940700  0.22463300  1
  C  240  1  0.93427300  0.10334700  0.24791700  1
  C  241  1  0.97167000  0.09721100  0.26927500  1
  C  242  1  0.99830000  0.05674300  0.26717000  1
  C  245  1  0.01320300  0.98178700  0.24308700  1
  C  246  1  0.00057200  0.94531600  0.26365000  1
  C  247  1  0.02925500  0.90654300  0.26673000  1
  C  248  1  0.07145400  0.90528500  0.24979900  1
  C  249  1  0.08448700  0.94176600  0.22914200  1
  C  250  1  0.05499000  0.97984600  0.22621200  1
  C  259  1  0.12613800  0.94021800  0.21301400  1
  C  260  1  0.97900900  0.12896000  0.29354100  1
  C  261  1  0.88900400  0.07403400  0.20521400  1
  C  262  1  0.01829200  0.87324300  0.28916300  1
  C  267  1  0.97891300  0.99166100  0.74267600  1
  C  268  1  0.97653800  0.95725400  0.71889000  1
  C  269  1  0.93770700  0.92886400  0.71661200  1
  C  270  1  0.90114400  0.93432800  0.73871100  1
  C  271  1  0.90309200  0.96911400  0.76257900  1
  C  272  1  0.94233000  0.99737000  0.76467400  1
  C  275  1  0.01951500  0.01744300  0.74650300  1
  C  276  1  0.05329100  0.00313000  0.76871300  1
  C  277  1  0.09158600  0.03141500  0.77528000  1
  C  278  1  0.09509000  0.07460700  0.75990400  1
  C  279  1  0.06089000  0.08977300  0.73799100  1
  C  280  1  0.02338900  0.06053500  0.73158600  1
  C  289  1  0.06413600  0.13299600  0.72395400  1
  C  290  1  0.86924900  0.97349100  0.78567400  1
  C  291  1  0.93669600  0.89692400  0.69460900  1
  C  292  1  0.12307100  0.02010000  0.79896400  1
  N  4  1  0.50268800  0.99124800  0.05419700  1
  N  8  1  0.57506500  0.99055400  0.00151600  1
  N  14  1  0.49873500  0.99054000  0.95142700  1
  N  20  1  0.42640500  0.99094700  0.00406000  1
  N  115  1  0.14792500  0.97683200  0.20435300  1
  N  116  1  0.82816900  0.97604600  0.22581600  1
  N  117  1  0.82721600  0.98013600  0.77795900  1
  N  118  1  0.14968600  0.98520000  0.79320400  1
  N  122  1  0.00840600  0.50273600  0.55533600  1
  N  126  1  0.00824000  0.57517500  0.50269300  1
  N  132  1  0.00826300  0.49889900  0.45257500  1
  N  138  1  0.00904200  0.42650100  0.50517700  1
  N  233  1  0.02930800  0.15248100  0.71029400  1
  N  234  1  0.02346200  0.82878000  0.72657100  1
  N  235  1  0.01968300  0.83047900  0.28214200  1
  N  236  1  0.01602700  0.15371200  0.29129200  1
  O  244  1  0.90728100  0.14131300  0.25055000  1
  O  251  1  0.10034000  0.86903700  0.25400300  1
  O  253  1  0.03427900  0.04978400  0.28766500  1
  O  254  1  0.96017200  0.94757100  0.28017300  1
  O  274  1  0.86395600  0.90615600  0.73698600  1
  O  281  1  0.13061000  0.10295900  0.76760400  1
  O  283  1  0.94460200  0.03130300  0.78734100  1
  O  284  1  0.04852500  0.96171000  0.78360500  1
