# generated using pymatgen
data_CuH9(C10O3)2
_symmetry_space_group_name_H-M   'P 1'
_cell_length_a   16.05785416
_cell_length_b   16.91800697
_cell_length_c   28.52518323
_cell_angle_alpha   90.00011086
_cell_angle_beta   90.00014247
_cell_angle_gamma   61.68142956
_symmetry_Int_Tables_number   1
_chemical_formula_structural   CuH9(C10O3)2
_chemical_formula_sum   'Cu4 H36 C80 O24'
_cell_volume   6821.93410170
_cell_formula_units_Z   4
loop_
 _symmetry_equiv_pos_site_id
 _symmetry_equiv_pos_as_xyz
  1  'x, y, z'
loop_
 _atom_site_type_symbol
 _atom_site_label
 _atom_site_symmetry_multiplicity
 _atom_site_fract_x
 _atom_site_fract_y
 _atom_site_fract_z
 _atom_site_occupancy
  C  C1  1  0.11426676  0.40386873  0.93662169  1.0
  C  C2  1  0.41721272  0.09602390  0.79093246  1.0
  C  C3  1  0.36801155  0.19502053  0.78872005  1.0
  C  C4  1  0.17854513  0.27200612  0.88175530  1.0
  C  C5  1  0.18018455  0.34910338  0.89864381  1.0
  C  C6  1  0.24382080  0.37515100  0.87935738  1.0
  C  C7  1  0.24035353  0.22081867  0.84658226  1.0
  C  C8  1  0.30398858  0.24686073  0.82654373  1.0
  C  C9  1  0.30393574  0.32532477  0.84334955  1.0
  C  C19  1  0.88577934  0.59620766  0.93662275  1.0
  C  C20  1  0.58279536  0.90397409  0.79093070  1.0
  C  C21  1  0.63199249  0.80497941  0.78871751  1.0
  C  C22  1  0.82144312  0.72798349  0.88176270  1.0
  C  C23  1  0.81979272  0.65088378  0.89864801  1.0
  C  C24  1  0.75616908  0.62483731  0.87935008  1.0
  C  C25  1  0.75964187  0.77917125  0.84658699  1.0
  C  C26  1  0.69601076  0.75313174  0.82654156  1.0
  C  C27  1  0.69606026  0.67466600  0.84334321  1.0
  C  C37  1  0.48195625  0.40381858  0.56337295  1.0
  C  C38  1  0.48673920  0.09606280  0.70907243  1.0
  C  C39  1  0.43696366  0.19505696  0.71127049  1.0
  C  C40  1  0.54939348  0.27209991  0.61821041  1.0
  C  C41  1  0.47070821  0.34916210  0.60132326  1.0
  C  C42  1  0.38106348  0.37517055  0.62060871  1.0
  C  C43  1  0.53876314  0.22091760  0.65338286  1.0
  C  C44  1  0.44913654  0.24689903  0.67343580  1.0
  C  C45  1  0.37076567  0.32534084  0.65661617  1.0
  C  C55  1  0.51805753  0.59617702  0.56337188  1.0
  C  C56  1  0.51325683  0.90393709  0.70907359  1.0
  C  C57  1  0.56303040  0.80494526  0.71127074  1.0
  C  C58  1  0.45058968  0.72790711  0.61820909  1.0
  C  C59  1  0.52929091  0.65084121  0.60132092  1.0
  C  C60  1  0.61892229  0.62483812  0.62061360  1.0
  C  C61  1  0.46122436  0.77909002  0.65338321  1.0
  C  C62  1  0.55085696  0.75310307  0.67343839  1.0
  C  C63  1  0.62922159  0.67466149  0.65661830  1.0
  C  C73  1  0.88577727  0.59620877  0.06337647  1.0
  C  C74  1  0.58279768  0.90397261  0.20906832  1.0
  C  C75  1  0.63199435  0.80497807  0.21128228  1.0
  C  C76  1  0.82144054  0.72798562  0.11823708  1.0
  C  C77  1  0.81979223  0.65088475  0.10134995  1.0
  C  C78  1  0.75617080  0.62483603  0.12065070  1.0
  C  C79  1  0.75964119  0.77917091  0.15341333  1.0
  C  C80  1  0.69600875  0.75313299  0.17345990  1.0
  C  C81  1  0.69606123  0.67466517  0.15665630  1.0
  C  C91  1  0.11426724  0.40386785  0.06337832  1.0
  C  C92  1  0.41720736  0.09602774  0.20906658  1.0
  C  C93  1  0.36800967  0.19502244  0.21127998  1.0
  C  C94  1  0.17854786  0.27200515  0.11824378  1.0
  C  C95  1  0.18018435  0.34910458  0.10135495  1.0
  C  C96  1  0.24382014  0.37515211  0.12064329  1.0
  C  C97  1  0.24035448  0.22081986  0.15341743  1.0
  C  C98  1  0.30399132  0.24685995  0.17345691  1.0
  C  C99  1  0.30393577  0.32532478  0.15665011  1.0
  C  C109  1  0.51805932  0.59617744  0.43662939  1.0
  C  C110  1  0.51325517  0.90393527  0.29092700  1.0
  C  C111  1  0.56302955  0.80494392  0.28872959  1.0
  C  C112  1  0.45059115  0.72790899  0.38179160  1.0
  C  C113  1  0.52929116  0.65084202  0.39868145  1.0
  C  C114  1  0.61892174  0.62483636  0.37938526  1.0
  C  C115  1  0.46122583  0.77908946  0.34661680  1.0
  C  C116  1  0.55085765  0.75310420  0.32656025  1.0
  C  C117  1  0.62922107  0.67466059  0.34338192  1.0
  C  C127  1  0.48195647  0.40381608  0.43662861  1.0
  C  C128  1  0.48674177  0.09606688  0.29092827  1.0
  C  C129  1  0.43696502  0.19505888  0.28873024  1.0
  C  C130  1  0.54939263  0.27209784  0.38179031  1.0
  C  C131  1  0.47070773  0.34916094  0.39868027  1.0
  C  C132  1  0.38106333  0.37517288  0.37938976  1.0
  C  C133  1  0.53876177  0.22091760  0.34661785  1.0
  C  C134  1  0.44913540  0.24689737  0.32656241  1.0
  C  C135  1  0.37076583  0.32534314  0.34338355  1.0
  C  C145  1  0.47659880  0.04680105  0.75000424  1.0
  C  C146  1  0.38070380  0.23863296  0.74999872  1.0
  C  C149  1  0.52340495  0.95319611  0.75000431  1.0
  C  C150  1  0.61929605  0.76136999  0.74999732  1.0
  C  C153  1  0.52340161  0.95320186  0.24999564  1.0
  C  C154  1  0.61929574  0.76137074  0.25000281  1.0
  C  C157  1  0.47660131  0.04679525  0.24999573  1.0
  C  C158  1  0.38070184  0.23863223  0.25000162  1.0
  Cu  Cu1  1  0.96422040  0.45028278  0.00000051  1.0
  Cu  Cu3  1  0.03578410  0.54974900  0.00000074  1.0
  Cu  Cu5  1  0.58542535  0.45033870  0.50000043  1.0
  Cu  Cu7  1  0.41468311  0.54960674  0.49999947  1.0
  H  H1  1  0.12831141  0.25278267  0.89659571  1.0
  H  H2  1  0.24540329  0.43435546  0.89325111  1.0
  H  H3  1  0.23890157  0.16113636  0.83360346  1.0
  H  H4  1  0.35424970  0.34515390  0.82908788  1.0
  H  H9  1  0.87169181  0.74719514  0.89659868  1.0
  H  H10  1  0.75458271  0.56563463  0.89323968  1.0
  H  H11  1  0.76110330  0.83885333  0.83360959  1.0
  H  H12  1  0.64574081  0.65484649  0.82908260  1.0
  H  H17  1  0.61883019  0.25288202  0.60337511  1.0
  H  H18  1  0.32025961  0.43436349  0.60674320  1.0
  H  H19  1  0.59986936  0.16125945  0.66636299  1.0
  H  H20  1  0.30065195  0.34512761  0.67088807  1.0
  H  H25  1  0.38112598  0.74715021  0.60338497  1.0
  H  H26  1  0.67969557  0.56565368  0.60673708  1.0
  H  H27  1  0.40012125  0.83875648  0.66637080  1.0
  H  H28  1  0.69933607  0.65486848  0.67087996  1.0
  H  H33  1  0.87168954  0.74719643  0.10340200  1.0
  H  H34  1  0.75458311  0.56563487  0.10676009  1.0
  H  H35  1  0.76110212  0.83885266  0.16638990  1.0
  H  H36  1  0.64574326  0.65484512  0.17091672  1.0
  H  H41  1  0.12831324  0.25278238  0.10340420  1.0
  H  H42  1  0.24540341  0.43435518  0.10674907  1.0
  H  H43  1  0.23890237  0.16113836  0.16639580  1.0
  H  H44  1  0.35424793  0.34515480  0.17091185  1.0
  H  H49  1  0.38112761  0.74715058  0.39661451  1.0
  H  H50  1  0.67969525  0.56565359  0.39326266  1.0
  H  H51  1  0.40012320  0.83875516  0.33362994  1.0
  H  H52  1  0.69933466  0.65486723  0.32912054  1.0
  H  H57  1  0.61882950  0.25288205  0.39662421  1.0
  H  H58  1  0.32025980  0.43436307  0.39325709  1.0
  H  H59  1  0.59986728  0.16126135  0.33363762  1.0
  H  H60  1  0.30065281  0.34512815  0.32911275  1.0
  H  H65  1  0.34403983  0.31199245  0.75000230  1.0
  H  H67  1  0.65595590  0.68801195  0.75000225  1.0
  H  H69  1  0.65595424  0.68801518  0.24999791  1.0
  H  H71  1  0.34404124  0.31198931  0.24999754  1.0
  O  O1  1  0.05528764  0.37868179  0.95143435  1.0
  O  O2  1  0.12153411  0.47190790  0.95117856  1.0
  O  O3  1  0.39975237  0.05579484  0.82271797  1.0
  O  O7  1  0.94474816  0.62129555  0.95142201  1.0
  O  O8  1  0.87843393  0.52812012  0.95118451  1.0
  O  O9  1  0.60024962  0.94420772  0.82271642  1.0
  O  O13  1  0.56598367  0.37877211  0.54851071  1.0
  O  O14  1  0.40672467  0.47186482  0.54877351  1.0
  O  O15  1  0.54442207  0.05585393  0.67728827  1.0
  O  O19  1  0.43406786  0.62117277  0.54851077  1.0
  O  O20  1  0.59334240  0.52811960  0.54877942  1.0
  O  O21  1  0.45557775  0.94415221  0.67728918  1.0
  O  O25  1  0.94475282  0.62129190  0.04858014  1.0
  O  O26  1  0.87843260  0.52812039  0.04881409  1.0
  O  O27  1  0.60024850  0.94420504  0.17728263  1.0
  O  O31  1  0.05528521  0.37868321  0.04856558  1.0
  O  O32  1  0.12153593  0.47190667  0.04882015  1.0
  O  O33  1  0.39975173  0.05579746  0.17728176  1.0
  O  O37  1  0.43406742  0.62116771  0.45148660  1.0
  O  O38  1  0.59334391  0.52811969  0.45122241  1.0
  O  O39  1  0.45558026  0.94414969  0.32271118  1.0
  O  O43  1  0.56598652  0.37877731  0.45148594  1.0
  O  O44  1  0.40672407  0.47186442  0.45122771  1.0
  O  O45  1  0.54441945  0.05585593  0.32271213  1.0
