# generated using pymatgen
data_LaH8(C2O)8
_symmetry_space_group_name_H-M   'P 1'
_cell_length_a   9.76812000
_cell_length_b   13.67643000
_cell_length_c   14.73795000
_cell_angle_alpha   90.00000000
_cell_angle_beta   90.00000000
_cell_angle_gamma   90.00000000
_symmetry_Int_Tables_number   1
_chemical_formula_structural   LaH8(C2O)8
_chemical_formula_sum   'La4 H32 C64 O32'
_cell_volume   1968.88709306
_cell_formula_units_Z   4
loop_
 _symmetry_equiv_pos_site_id
 _symmetry_equiv_pos_as_xyz
  1  'x, y, z'
loop_
 _atom_site_type_symbol
 _atom_site_label
 _atom_site_symmetry_multiplicity
 _atom_site_fract_x
 _atom_site_fract_y
 _atom_site_fract_z
 _atom_site_occupancy
  La  La0  1  0.75000000  0.88325000  0.00000000  1
  La  La1  1  0.75000000  0.61675000  0.50000000  1
  La  La2  1  0.25000000  0.11675000  0.00000000  1
  La  La3  1  0.25000000  0.38325000  0.50000000  1
  H  H4  1  0.24031000  0.03022000  0.57234000  1
  H  H5  1  0.11359000  0.88906000  0.50022000  1
  H  H6  1  0.19182000  0.07479000  0.73195000  1
  H  H7  1  0.89506000  0.84311000  0.75034000  1
  H  H8  1  0.25969000  0.03022000  0.42766000  1
  H  H9  1  0.38641000  0.88906000  0.49978000  1
  H  H10  1  0.30819000  0.07479000  0.26804000  1
  H  H11  1  0.60494000  0.84311000  0.24966000  1
  H  H12  1  0.25969000  0.46978000  0.07234000  1
  H  H13  1  0.38641000  0.61093000  0.00022000  1
  H  H14  1  0.30819000  0.42520000  0.23195000  1
  H  H15  1  0.60494000  0.65688000  0.25034000  1
  H  H16  1  0.24031000  0.46978000  0.92766000  1
  H  H17  1  0.11359000  0.61093000  0.99977000  1
  H  H18  1  0.19182000  0.42521000  0.76804000  1
  H  H19  1  0.89506000  0.65688000  0.74966000  1
  H  H20  1  0.75969000  0.96977000  0.42766000  1
  H  H21  1  0.88641000  0.11094000  0.49978000  1
  H  H22  1  0.80819000  0.92520000  0.26804000  1
  H  H23  1  0.10494000  0.15689000  0.24966000  1
  H  H24  1  0.74031000  0.96977000  0.57234000  1
  H  H25  1  0.61359000  0.11094000  0.50022000  1
  H  H26  1  0.69182000  0.92520000  0.73195000  1
  H  H27  1  0.39506000  0.15689000  0.75034000  1
  H  H28  1  0.74031000  0.53022000  0.92766000  1
  H  H29  1  0.61359000  0.38906000  0.99977000  1
  H  H30  1  0.69182000  0.57479000  0.76804000  1
  H  H31  1  0.39506000  0.34311000  0.74966000  1
  H  H32  1  0.75969000  0.53022000  0.07234000  1
  H  H33  1  0.88641000  0.38906000  0.00022000  1
  H  H34  1  0.80819000  0.57479000  0.23195000  1
  H  H35  1  0.10494000  0.34311000  0.25034000  1
  C  C36  1  0.97035000  0.88389000  0.71129000  1
  C  C37  1  0.99677000  0.85867000  0.62063000  1
  C  C38  1  0.01551000  0.98857000  0.84779000  1
  C  C39  1  0.16516000  0.98827000  0.61033000  1
  C  C40  1  0.04134000  0.96154000  0.75124000  1
  C  C41  1  0.09524000  0.91051000  0.57033000  1
  C  C42  1  0.13850000  0.01390000  0.70044000  1
  C  C43  1  0.91688000  0.77868000  0.57717000  1
  C  C44  1  0.52965000  0.88389000  0.28871000  1
  C  C45  1  0.50323000  0.85867000  0.37937000  1
  C  C46  1  0.48450000  0.98857000  0.15221000  1
  C  C47  1  0.33484000  0.98827000  0.38967000  1
  C  C48  1  0.45867000  0.96154000  0.24876000  1
  C  C49  1  0.40476000  0.91051000  0.42967000  1
  C  C50  1  0.36150000  0.01390000  0.29956000  1
  C  C51  1  0.58312000  0.77868000  0.42283000  1
  C  C52  1  0.52965000  0.61610000  0.21129000  1
  C  C53  1  0.50323000  0.64133000  0.12063000  1
  C  C54  1  0.48450000  0.51143000  0.34779000  1
  C  C55  1  0.33484000  0.51173000  0.11033000  1
  C  C56  1  0.45867000  0.53845000  0.25124000  1
  C  C57  1  0.40476000  0.58949000  0.07033000  1
  C  C58  1  0.36150000  0.48610000  0.20044000  1
  C  C59  1  0.58312000  0.72132000  0.07717000  1
  C  C60  1  0.97035000  0.61610000  0.78871000  1
  C  C61  1  0.99677000  0.64133000  0.87937000  1
  C  C62  1  0.01551000  0.51143000  0.65221000  1
  C  C63  1  0.16516000  0.51173000  0.88967000  1
  C  C64  1  0.04134000  0.53845000  0.74876000  1
  C  C65  1  0.09524000  0.58949000  0.92967000  1
  C  C66  1  0.13850000  0.48610000  0.79956000  1
  C  C67  1  0.91688000  0.72132000  0.92283000  1
  C  C68  1  0.02965000  0.11610000  0.28871000  1
  C  C69  1  0.00323000  0.14133000  0.37937000  1
  C  C70  1  0.98450000  0.01143000  0.15221000  1
  C  C71  1  0.83484000  0.01173000  0.38967000  1
  C  C72  1  0.95867000  0.03845000  0.24876000  1
  C  C73  1  0.90476000  0.08949000  0.42967000  1
  C  C74  1  0.86150000  0.98610000  0.29956000  1
  C  C75  1  0.08312000  0.22132000  0.42283000  1
  C  C76  1  0.47035000  0.11610000  0.71129000  1
  C  C77  1  0.49677000  0.14133000  0.62063000  1
  C  C78  1  0.51551000  0.01143000  0.84779000  1
  C  C79  1  0.66516000  0.01173000  0.61033000  1
  C  C80  1  0.54134000  0.03845000  0.75124000  1
  C  C81  1  0.59524000  0.08949000  0.57033000  1
  C  C82  1  0.63850000  0.98610000  0.70044000  1
  C  C83  1  0.41688000  0.22132000  0.57717000  1
  C  C84  1  0.47035000  0.38390000  0.78871000  1
  C  C85  1  0.49677000  0.35867000  0.87937000  1
  C  C86  1  0.51551000  0.48857000  0.65221000  1
  C  C87  1  0.66516000  0.48827000  0.88967000  1
  C  C88  1  0.54134000  0.46155000  0.74876000  1
  C  C89  1  0.59524000  0.41051000  0.92967000  1
  C  C90  1  0.63850000  0.51390000  0.79956000  1
  C  C91  1  0.41688000  0.27868000  0.92283000  1
  C  C92  1  0.02965000  0.38390000  0.21129000  1
  C  C93  1  0.00323000  0.35867000  0.12063000  1
  C  C94  1  0.98450000  0.48857000  0.34779000  1
  C  C95  1  0.83484000  0.48827000  0.11033000  1
  C  C96  1  0.95867000  0.46155000  0.25124000  1
  C  C97  1  0.90476000  0.41051000  0.07033000  1
  C  C98  1  0.86150000  0.51390000  0.20044000  1
  C  C99  1  0.08312000  0.27868000  0.07717000  1
  O  O100  1  0.90851000  0.95747000  0.88695000  1
  O  O101  1  0.10386000  0.04285000  0.88695000  1
  O  O102  1  0.96547000  0.73337000  0.50907000  1
  O  O103  1  0.79848000  0.75721000  0.60950000  1
  O  O104  1  0.59149000  0.95747000  0.11305000  1
  O  O105  1  0.39614000  0.04285000  0.11305000  1
  O  O106  1  0.53453000  0.73337000  0.49093000  1
  O  O107  1  0.70152000  0.75721000  0.39049000  1
  O  O108  1  0.59149000  0.54252000  0.38695000  1
  O  O109  1  0.39614000  0.45715000  0.38695000  1
  O  O110  1  0.53453000  0.76663000  0.00907000  1
  O  O111  1  0.70152000  0.74279000  0.10950000  1
  O  O112  1  0.90851000  0.54252000  0.61305000  1
  O  O113  1  0.10386000  0.45715000  0.61305000  1
  O  O114  1  0.96547000  0.76663000  0.99093000  1
  O  O115  1  0.79848000  0.74279000  0.89049000  1
  O  O116  1  0.09149000  0.04252000  0.11305000  1
  O  O117  1  0.89614000  0.95715000  0.11305000  1
  O  O118  1  0.03453000  0.26663000  0.49093000  1
  O  O119  1  0.20152000  0.24279000  0.39049000  1
  O  O120  1  0.40851000  0.04252000  0.88695000  1
  O  O121  1  0.60386000  0.95715000  0.88695000  1
  O  O122  1  0.46547000  0.26663000  0.50907000  1
  O  O123  1  0.29848000  0.24279000  0.60950000  1
  O  O124  1  0.40851000  0.45748000  0.61305000  1
  O  O125  1  0.60386000  0.54285000  0.61305000  1
  O  O126  1  0.46547000  0.23337000  0.99093000  1
  O  O127  1  0.29848000  0.25721000  0.89049000  1
  O  O128  1  0.09149000  0.45748000  0.38695000  1
  O  O129  1  0.89614000  0.54285000  0.38695000  1
  O  O130  1  0.03453000  0.23337000  0.00907000  1
  O  O131  1  0.20152000  0.25721000  0.10950000  1
