# generated using pymatgen
data_GdH12C9(SO2)3
_symmetry_space_group_name_H-M   'P 1'
_cell_length_a   9.17420000
_cell_length_b   11.11530000
_cell_length_c   11.17140000
_cell_angle_alpha   77.00900000
_cell_angle_beta   68.08200000
_cell_angle_gamma   78.22200000
_symmetry_Int_Tables_number   1
_chemical_formula_structural   GdH12C9(SO2)3
_chemical_formula_sum   'Gd2 H24 C18 S6 O12'
_cell_volume   1020.65506844
_cell_formula_units_Z   2
loop_
 _symmetry_equiv_pos_site_id
 _symmetry_equiv_pos_as_xyz
  1  'x, y, z'
loop_
 _atom_site_type_symbol
 _atom_site_label
 _atom_site_symmetry_multiplicity
 _atom_site_fract_x
 _atom_site_fract_y
 _atom_site_fract_z
 _atom_site_occupancy
  Gd  Gd1  1  0.72540000  0.51598000  0.02028000  1.0
  Gd  Gd2  1  0.27460000  0.48402000  0.97972000  1.0
  H  H1  1  0.21460000  0.73070000  0.70760000  1.0
  H  H2  1  0.07750000  0.84120000  0.73950000  1.0
  H  H3  1  0.05270000  0.55430000  0.63560000  1.0
  H  H4  1  0.07670000  0.58870000  0.48650000  1.0
  H  H5  1  0.32510000  0.54770000  0.58860000  1.0
  H  H6  1  0.35060000  0.58600000  0.43870000  1.0
  H  H7  1  0.26540000  0.32070000  0.33930000  1.0
  H  H8  1  0.20680000  0.46260000  0.34180000  1.0
  H  H9  1  0.87730000  0.08470000  0.06610000  1.0
  H  H10  1  0.86340000  0.94430000  0.07580000  1.0
  H  H11  1  0.02930000  0.18960000  0.78120000  1.0
  H  H12  1  0.89400000  0.22720000  0.72160000  1.0
  H  H13  1  0.78540000  0.26930000  0.29240000  1.0
  H  H14  1  0.92250000  0.15880000  0.26050000  1.0
  H  H15  1  0.94730000  0.44570000  0.36440000  1.0
  H  H16  1  0.92330000  0.41130000  0.51350000  1.0
  H  H17  1  0.67490000  0.45230000  0.41140000  1.0
  H  H18  1  0.64940000  0.41400000  0.56130000  1.0
  H  H19  1  0.73460000  0.67930000  0.66070000  1.0
  H  H20  1  0.79320000  0.53740000  0.65820000  1.0
  H  H21  1  0.12270000  0.91530000  0.93390000  1.0
  H  H22  1  0.13660000  0.05570000  0.92420000  1.0
  H  H23  1  0.97070000  0.81040000  0.21880000  1.0
  H  H24  1  0.10600000  0.77280000  0.27840000  1.0
  C  C1  1  0.00600000  0.67280000  0.83330000  1.0
  C  C2  1  0.10350000  0.75750000  0.71880000  1.0
  C  C3  1  0.11440000  0.59950000  0.55320000  1.0
  C  C4  1  0.28670000  0.54130000  0.52060000  1.0
  C  C5  1  0.29320000  0.39740000  0.34740000  1.0
  C  C6  1  0.43890000  0.42830000  0.23270000  1.0
  C  C7  1  0.91280000  0.01530000  0.01820000  1.0
  C  C8  1  0.91510000  0.20130000  0.80310000  1.0
  C  C9  1  0.84580000  0.30740000  0.88190000  1.0
  C  C10  1  0.99400000  0.32720000  0.16670000  1.0
  C  C11  1  0.89650000  0.24250000  0.28120000  1.0
  C  C12  1  0.88560000  0.40050000  0.44680000  1.0
  C  C13  1  0.71330000  0.45870000  0.47940000  1.0
  C  C14  1  0.70680000  0.60260000  0.65260000  1.0
  C  C15  1  0.56110000  0.57170000  0.76730000  1.0
  C  C16  1  0.08720000  0.98470000  0.98180000  1.0
  C  C17  1  0.08490000  0.79870000  0.19690000  1.0
  C  C18  1  0.15420000  0.69260000  0.11810000  1.0
  S  S1  1  0.84780000  0.05570000  0.87611000  1.0
  S  S2  1  0.30642000  0.37908000  0.50674000  1.0
  S  S3  1  0.07667000  0.76291000  0.56563000  1.0
  S  S4  1  0.15220000  0.94430000  0.12389000  1.0
  S  S5  1  0.69358000  0.62092000  0.49326000  1.0
  S  S6  1  0.92333000  0.23709000  0.43437000  1.0
  O  O1  1  0.91230000  0.40510000  0.83770000  1.0
  O  O2  1  0.72940000  0.29850000  0.98420000  1.0
  O  O3  1  0.56770000  0.43190000  0.24450000  1.0
  O  O4  1  0.86350000  0.67250000  0.85160000  1.0
  O  O5  1  0.07510000  0.60520000  0.90740000  1.0
  O  O6  1  0.42500000  0.45320000  0.12140000  1.0
  O  O7  1  0.08770000  0.59490000  0.16230000  1.0
  O  O8  1  0.27060000  0.70150000  0.01580000  1.0
  O  O9  1  0.43230000  0.56810000  0.75550000  1.0
  O  O10  1  0.13650000  0.32750000  0.14840000  1.0
  O  O11  1  0.92490000  0.39480000  0.09260000  1.0
  O  O12  1  0.57500000  0.54680000  0.87860000  1.0
