# generated using pymatgen
data_CuH6C11O5
_symmetry_space_group_name_H-M   'P 1'
_cell_length_a   29.69096000
_cell_length_b   29.68947402
_cell_length_c   29.68968338
_cell_angle_alpha   59.99968209
_cell_angle_beta   60.00211310
_cell_angle_gamma   60.00163329
_symmetry_Int_Tables_number   1
_chemical_formula_structural   CuH6C11O5
_chemical_formula_sum   'Cu24 H144 C264 O120'
_cell_volume   18506.68206500
_cell_formula_units_Z   24
loop_
 _symmetry_equiv_pos_site_id
 _symmetry_equiv_pos_as_xyz
  1  'x, y, z'
loop_
 _atom_site_type_symbol
 _atom_site_label
 _atom_site_symmetry_multiplicity
 _atom_site_fract_x
 _atom_site_fract_y
 _atom_site_fract_z
 _atom_site_occupancy
  Cu  Cu0  1  0.00344000  0.35649000  0.99656000  1
  Cu  Cu1  1  0.00230000  0.27418000  0.99770000  1
  Cu  Cu2  1  0.35644000  0.00348000  0.64352000  1
  Cu  Cu3  1  0.27414000  0.00229000  0.72588000  1
  Cu  Cu4  1  0.99656000  0.64351000  0.00344000  1
  Cu  Cu5  1  0.99770000  0.72582000  0.00229000  1
  Cu  Cu6  1  0.64356000  0.99652000  0.35648000  1
  Cu  Cu7  1  0.72586000  0.99771000  0.27412000  1
  Cu  Cu8  1  0.64357000  0.35648000  0.00344000  1
  Cu  Cu9  1  0.72588000  0.27411000  0.00230000  1
  Cu  Cu10  1  0.99655000  0.00345000  0.35649000  1
  Cu  Cu11  1  0.99770000  0.00229000  0.27418000  1
  Cu  Cu12  1  0.35644000  0.64351000  0.99656000  1
  Cu  Cu13  1  0.27413000  0.72588000  0.99770000  1
  Cu  Cu14  1  0.00345000  0.99655000  0.64351000  1
  Cu  Cu15  1  0.00229000  0.99771000  0.72582000  1
  Cu  Cu16  1  0.99657000  0.35648000  0.64351000  1
  Cu  Cu17  1  0.99770000  0.27417000  0.72583000  1
  Cu  Cu18  1  0.64357000  0.00343000  0.99652000  1
  Cu  Cu19  1  0.72588000  0.00230000  0.99771000  1
  Cu  Cu20  1  0.00344000  0.64351000  0.35649000  1
  Cu  Cu21  1  0.00230000  0.72583000  0.27417000  1
  Cu  Cu22  1  0.35643000  0.99657000  0.00348000  1
  Cu  Cu23  1  0.27413000  0.99769000  0.00229000  1
  H  H24  1  0.83342000  0.32001000  0.01197000  1
  H  H25  1  0.68290000  0.45589000  0.03874000  1
  H  H26  1  0.83203000  0.45403000  0.03342000  1
  H  H27  1  0.64713000  0.52000000  0.08748000  1
  H  H28  1  0.66871000  0.54750000  0.01409000  1
  H  H29  1  0.57922000  0.62697000  0.05188000  1
  H  H30  1  0.32003000  0.83340000  0.83456000  1
  H  H31  1  0.45593000  0.68285000  0.82251000  1
  H  H32  1  0.45400000  0.83206000  0.68052000  1
  H  H33  1  0.52002000  0.64712000  0.74535000  1
  H  H34  1  0.54755000  0.66873000  0.76964000  1
  H  H35  1  0.62716000  0.57905000  0.74192000  1
  H  H36  1  0.01199000  0.83459000  0.83338000  1
  H  H37  1  0.03873000  0.82250000  0.68284000  1
  H  H38  1  0.03347000  0.68054000  0.83198000  1
  H  H39  1  0.08750000  0.74540000  0.64710000  1
  H  H40  1  0.01410000  0.76970000  0.66868000  1
  H  H41  1  0.05193000  0.74192000  0.57911000  1
  H  H42  1  0.83463000  0.01199000  0.32000000  1
  H  H43  1  0.82250000  0.03869000  0.45599000  1
  H  H44  1  0.68061000  0.03344000  0.45392000  1
  H  H45  1  0.74543000  0.08749000  0.51994000  1
  H  H46  1  0.76977000  0.01410000  0.54743000  1
  H  H47  1  0.74194000  0.05191000  0.62709000  1
  H  H48  1  0.83463000  0.31999000  0.83339000  1
  H  H49  1  0.82251000  0.45598000  0.68282000  1
  H  H50  1  0.68061000  0.45391000  0.83204000  1
  H  H51  1  0.74544000  0.51994000  0.64713000  1
  H  H52  1  0.76977000  0.54742000  0.66871000  1
  H  H53  1  0.74194000  0.62710000  0.57904000  1
  H  H54  1  0.01199000  0.83341000  0.32003000  1
  H  H55  1  0.03873000  0.68285000  0.45590000  1
  H  H56  1  0.03347000  0.83202000  0.45397000  1
  H  H57  1  0.08751000  0.64710000  0.51999000  1
  H  H58  1  0.01409000  0.66869000  0.54752000  1
  H  H59  1  0.05194000  0.57907000  0.62708000  1
  H  H60  1  0.32003000  0.83456000  0.01200000  1
  H  H61  1  0.45591000  0.82253000  0.03870000  1
  H  H62  1  0.45397000  0.68053000  0.03341000  1
  H  H63  1  0.52002000  0.74535000  0.08751000  1
  H  H64  1  0.54755000  0.76964000  0.01407000  1
  H  H65  1  0.62718000  0.74192000  0.05187000  1
  H  H66  1  0.83345000  0.01196000  0.83458000  1
  H  H67  1  0.68290000  0.03874000  0.82248000  1
  H  H68  1  0.83206000  0.03341000  0.68052000  1
  H  H69  1  0.64713000  0.08748000  0.74539000  1
  H  H70  1  0.66872000  0.01408000  0.76970000  1
  H  H71  1  0.57919000  0.05188000  0.74193000  1
  H  H72  1  0.01199000  0.32004000  0.83456000  1
  H  H73  1  0.03874000  0.45593000  0.82248000  1
  H  H74  1  0.03348000  0.45400000  0.68053000  1
  H  H75  1  0.08751000  0.51998000  0.74541000  1
  H  H76  1  0.01409000  0.54751000  0.76970000  1
  H  H77  1  0.05193000  0.62706000  0.74192000  1
  H  H78  1  0.83461000  0.83340000  0.01199000  1
  H  H79  1  0.82248000  0.68282000  0.03870000  1
  H  H80  1  0.68060000  0.83202000  0.03345000  1
  H  H81  1  0.74544000  0.64714000  0.08749000  1
  H  H82  1  0.76977000  0.66871000  0.01410000  1
  H  H83  1  0.74195000  0.57905000  0.05191000  1
  H  H84  1  0.83345000  0.83458000  0.32000000  1
  H  H85  1  0.68290000  0.82247000  0.45588000  1
  H  H86  1  0.83204000  0.68052000  0.45402000  1
  H  H87  1  0.64714000  0.74540000  0.51998000  1
  H  H88  1  0.66872000  0.76970000  0.54749000  1
  H  H89  1  0.57920000  0.74193000  0.62699000  1
  H  H90  1  0.32004000  0.01200000  0.83341000  1
  H  H91  1  0.45593000  0.03871000  0.68285000  1
  H  H92  1  0.45398000  0.03342000  0.83207000  1
  H  H93  1  0.52002000  0.08750000  0.64712000  1
  H  H94  1  0.54754000  0.01408000  0.66874000  1
  H  H95  1  0.62716000  0.05187000  0.57905000  1
  H  H96  1  0.16658000  0.67999000  0.98803000  1
  H  H97  1  0.31710000  0.54411000  0.96126000  1
  H  H98  1  0.16797000  0.54597000  0.96658000  1
  H  H99  1  0.35287000  0.48000000  0.91252000  1
  H  H100  1  0.33130000  0.45249000  0.98591000  1
  H  H101  1  0.42078000  0.37303000  0.94812000  1
  H  H102  1  0.67996000  0.16660000  0.16544000  1
  H  H103  1  0.54408000  0.31714000  0.17749000  1
  H  H104  1  0.54602000  0.16793000  0.31947000  1
  H  H105  1  0.47998000  0.35288000  0.25465000  1
  H  H106  1  0.45246000  0.33126000  0.23036000  1
  H  H107  1  0.37284000  0.42095000  0.25808000  1
  H  H108  1  0.98801000  0.16541000  0.16662000  1
  H  H109  1  0.96128000  0.17749000  0.31716000  1
  H  H110  1  0.96652000  0.31946000  0.16802000  1
  H  H111  1  0.91251000  0.25459000  0.35290000  1
  H  H112  1  0.98591000  0.23030000  0.33131000  1
  H  H113  1  0.94807000  0.25808000  0.42089000  1
  H  H114  1  0.16537000  0.98801000  0.68000000  1
  H  H115  1  0.17750000  0.96131000  0.54401000  1
  H  H116  1  0.31940000  0.96655000  0.54608000  1
  H  H117  1  0.25458000  0.91251000  0.48005000  1
  H  H118  1  0.23023000  0.98590000  0.45257000  1
  H  H119  1  0.25806000  0.94809000  0.37291000  1
  H  H120  1  0.16538000  0.68000000  0.16661000  1
  H  H121  1  0.17749000  0.54402000  0.31718000  1
  H  H122  1  0.31939000  0.54609000  0.16796000  1
  H  H123  1  0.25458000  0.48005000  0.35286000  1
  H  H124  1  0.23024000  0.45257000  0.33129000  1
  H  H125  1  0.25807000  0.37289000  0.42096000  1
  H  H126  1  0.98802000  0.16659000  0.67996000  1
  H  H127  1  0.96127000  0.31715000  0.54410000  1
  H  H128  1  0.96655000  0.16797000  0.54602000  1
  H  H129  1  0.91249000  0.35290000  0.48001000  1
  H  H130  1  0.98592000  0.33130000  0.45248000  1
  H  H131  1  0.94806000  0.42093000  0.37292000  1
  H  H132  1  0.67997000  0.16544000  0.98800000  1
  H  H133  1  0.54410000  0.17747000  0.96129000  1
  H  H134  1  0.54603000  0.31947000  0.96659000  1
  H  H135  1  0.47998000  0.25465000  0.91249000  1
  H  H136  1  0.45247000  0.23035000  0.98592000  1
  H  H137  1  0.37283000  0.25807000  0.94813000  1
  H  H138  1  0.16656000  0.98803000  0.16542000  1
  H  H139  1  0.31709000  0.96126000  0.17752000  1
  H  H140  1  0.16794000  0.96659000  0.31948000  1
  H  H141  1  0.35287000  0.91252000  0.25461000  1
  H  H142  1  0.33129000  0.98591000  0.23030000  1
  H  H143  1  0.42081000  0.94812000  0.25807000  1
  H  H144  1  0.98801000  0.67996000  0.16544000  1
  H  H145  1  0.96127000  0.54406000  0.17752000  1
  H  H146  1  0.96653000  0.54599000  0.31947000  1
  H  H147  1  0.91249000  0.48002000  0.25459000  1
  H  H148  1  0.98591000  0.45248000  0.23030000  1
  H  H149  1  0.94807000  0.37294000  0.25808000  1
  H  H150  1  0.16539000  0.16660000  0.98801000  1
  H  H151  1  0.17753000  0.31717000  0.96130000  1
  H  H152  1  0.31941000  0.16797000  0.96655000  1
  H  H153  1  0.25457000  0.35285000  0.91251000  1
  H  H154  1  0.23023000  0.33129000  0.98590000  1
  H  H155  1  0.25806000  0.42094000  0.94809000  1
  H  H156  1  0.16656000  0.16542000  0.67999000  1
  H  H157  1  0.31710000  0.17753000  0.54412000  1
  H  H158  1  0.16796000  0.31948000  0.54598000  1
  H  H159  1  0.35287000  0.25460000  0.48001000  1
  H  H160  1  0.33128000  0.23030000  0.45251000  1
  H  H161  1  0.42080000  0.25807000  0.37301000  1
  H  H162  1  0.67996000  0.98800000  0.16659000  1
  H  H163  1  0.54407000  0.96129000  0.31715000  1
  H  H164  1  0.54602000  0.96658000  0.16793000  1
  H  H165  1  0.47999000  0.91249000  0.35288000  1
  H  H166  1  0.45246000  0.98592000  0.33126000  1
  H  H167  1  0.37284000  0.94813000  0.42095000  1
  C  C168  1  0.83896000  0.38405000  0.02231000  1
  C  C169  1  0.81140000  0.35915000  0.01935000  1
  C  C170  1  0.75550000  0.38583000  0.02485000  1
  C  C171  1  0.72634000  0.43655000  0.03459000  1
  C  C172  1  0.75420000  0.46046000  0.03833000  1
  C  C173  1  0.81058000  0.43449000  0.03158000  1
  C  C174  1  0.72724000  0.36018000  0.01895000  1
  C  C175  1  0.89925000  0.35755000  0.01415000  1
  C  C176  1  0.67490000  0.54165000  0.05056000  1
  C  C177  1  0.66220000  0.59696000  0.05224000  1
  C  C178  1  0.60985000  0.63651000  0.05236000  1
  C  C179  1  0.38407000  0.83894000  0.75468000  1
  C  C180  1  0.35919000  0.81135000  0.81009000  1
  C  C181  1  0.38587000  0.75544000  0.83381000  1
  C  C182  1  0.43661000  0.72629000  0.80251000  1
  C  C183  1  0.46051000  0.75417000  0.74699000  1
  C  C184  1  0.43451000  0.81056000  0.72335000  1
  C  C185  1  0.36022000  0.72716000  0.89363000  1
  C  C186  1  0.35756000  0.89924000  0.72906000  1
  C  C187  1  0.54170000  0.67487000  0.73285000  1
  C  C188  1  0.59701000  0.66212000  0.68860000  1
  C  C189  1  0.63657000  0.60977000  0.70129000  1
  C  C190  1  0.02233000  0.75469000  0.83894000  1
  C  C191  1  0.01939000  0.81010000  0.81134000  1
  C  C192  1  0.02489000  0.83384000  0.75543000  1
  C  C193  1  0.03459000  0.80255000  0.72628000  1
  C  C194  1  0.03834000  0.74704000  0.75416000  1
  C  C195  1  0.03161000  0.72337000  0.81054000  1
  C  C196  1  0.01899000  0.89364000  0.72717000  1
  C  C197  1  0.01415000  0.72909000  0.89924000  1
  C  C198  1  0.05058000  0.73290000  0.67487000  1
  C  C199  1  0.05228000  0.68861000  0.66215000  1
  C  C200  1  0.05239000  0.70129000  0.60980000  1
  C  C201  1  0.75478000  0.02229000  0.38400000  1
  C  C202  1  0.81017000  0.01936000  0.35915000  1
  C  C203  1  0.83387000  0.02488000  0.38585000  1
  C  C204  1  0.80256000  0.03458000  0.43660000  1
  C  C205  1  0.74706000  0.03831000  0.46046000  1
  C  C206  1  0.72344000  0.03156000  0.43445000  1
  C  C207  1  0.89366000  0.01899000  0.36022000  1
  C  C208  1  0.72921000  0.01412000  0.35744000  1
  C  C209  1  0.73294000  0.05056000  0.54162000  1
  C  C210  1  0.68868000  0.05224000  0.59694000  1
  C  C211  1  0.70134000  0.05236000  0.63651000  1
  C  C212  1  0.75479000  0.38400000  0.83892000  1
  C  C213  1  0.81018000  0.35914000  0.81132000  1
  C  C214  1  0.83387000  0.38585000  0.75540000  1
  C  C215  1  0.80256000  0.43659000  0.72626000  1
  C  C216  1  0.74705000  0.46046000  0.75417000  1
  C  C217  1  0.72344000  0.43444000  0.81055000  1
  C  C218  1  0.89366000  0.36021000  0.72713000  1
  C  C219  1  0.72921000  0.35743000  0.89923000  1
  C  C220  1  0.73294000  0.54162000  0.67488000  1
  C  C221  1  0.68868000  0.59694000  0.66214000  1
  C  C222  1  0.70134000  0.63651000  0.60979000  1
  C  C223  1  0.02233000  0.83894000  0.38404000  1
  C  C224  1  0.01938000  0.81135000  0.35917000  1
  C  C225  1  0.02488000  0.75544000  0.38584000  1
  C  C226  1  0.03460000  0.72629000  0.43657000  1
  C  C227  1  0.03835000  0.75416000  0.46046000  1
  C  C228  1  0.03160000  0.81055000  0.43448000  1
  C  C229  1  0.01899000  0.72717000  0.36020000  1
  C  C230  1  0.01417000  0.89923000  0.35751000  1
  C  C231  1  0.05058000  0.67486000  0.54165000  1
  C  C232  1  0.05228000  0.66214000  0.59696000  1
  C  C233  1  0.05239000  0.60978000  0.63653000  1
  C  C234  1  0.38407000  0.75468000  0.02231000  1
  C  C235  1  0.35919000  0.81009000  0.01936000  1
  C  C236  1  0.38587000  0.83381000  0.02487000  1
  C  C237  1  0.43661000  0.80251000  0.03459000  1
  C  C238  1  0.46051000  0.74698000  0.03834000  1
  C  C239  1  0.43451000  0.72335000  0.03158000  1
  C  C240  1  0.36021000  0.89363000  0.01899000  1
  C  C241  1  0.35756000  0.72906000  0.01414000  1
  C  C242  1  0.54169000  0.73286000  0.05058000  1
  C  C243  1  0.59700000  0.68861000  0.05227000  1
  C  C244  1  0.63658000  0.70130000  0.05236000  1
  C  C245  1  0.83897000  0.02231000  0.75467000  1
  C  C246  1  0.81141000  0.01934000  0.81010000  1
  C  C247  1  0.75551000  0.02484000  0.83382000  1
  C  C248  1  0.72636000  0.03458000  0.80251000  1
  C  C249  1  0.75420000  0.03833000  0.74700000  1
  C  C250  1  0.81058000  0.03158000  0.72334000  1
  C  C251  1  0.72724000  0.01895000  0.89363000  1
  C  C252  1  0.89925000  0.01415000  0.72905000  1
  C  C253  1  0.67489000  0.05056000  0.73289000  1
  C  C254  1  0.66219000  0.05224000  0.68861000  1
  C  C255  1  0.60984000  0.05236000  0.70128000  1
  C  C256  1  0.02234000  0.38404000  0.75469000  1
  C  C257  1  0.01939000  0.35917000  0.81010000  1
  C  C258  1  0.02487000  0.38584000  0.83385000  1
  C  C259  1  0.03460000  0.43657000  0.80254000  1
  C  C260  1  0.03835000  0.46045000  0.74703000  1
  C  C261  1  0.03161000  0.43448000  0.72336000  1
  C  C262  1  0.01898000  0.36020000  0.89365000  1
  C  C263  1  0.01416000  0.35751000  0.72910000  1
  C  C264  1  0.05058000  0.54164000  0.73291000  1
  C  C265  1  0.05228000  0.59695000  0.68863000  1
  C  C266  1  0.05240000  0.63651000  0.70130000  1
  C  C267  1  0.75479000  0.83892000  0.02229000  1
  C  C268  1  0.81017000  0.81132000  0.01936000  1
  C  C269  1  0.83387000  0.75540000  0.02488000  1
  C  C270  1  0.80256000  0.72626000  0.03458000  1
  C  C271  1  0.74705000  0.75418000  0.03832000  1
  C  C272  1  0.72343000  0.81056000  0.03157000  1
  C  C273  1  0.89367000  0.72712000  0.01899000  1
  C  C274  1  0.72922000  0.89923000  0.01412000  1
  C  C275  1  0.73295000  0.67488000  0.05056000  1
  C  C276  1  0.68869000  0.66214000  0.05224000  1
  C  C277  1  0.70134000  0.60979000  0.05236000  1
  C  C278  1  0.83896000  0.75467000  0.38405000  1
  C  C279  1  0.81141000  0.81010000  0.35915000  1
  C  C280  1  0.75551000  0.83382000  0.38583000  1
  C  C281  1  0.72635000  0.80251000  0.43655000  1
  C  C282  1  0.75421000  0.74700000  0.46046000  1
  C  C283  1  0.81058000  0.72334000  0.43449000  1
  C  C284  1  0.72724000  0.89363000  0.36018000  1
  C  C285  1  0.89926000  0.72905000  0.35754000  1
  C  C286  1  0.67490000  0.73289000  0.54165000  1
  C  C287  1  0.66219000  0.68861000  0.59695000  1
  C  C288  1  0.60985000  0.70128000  0.63651000  1
  C  C289  1  0.38407000  0.02231000  0.83894000  1
  C  C290  1  0.35920000  0.01936000  0.81135000  1
  C  C291  1  0.38588000  0.02487000  0.75544000  1
  C  C292  1  0.43661000  0.03459000  0.72629000  1
  C  C293  1  0.46051000  0.03833000  0.75417000  1
  C  C294  1  0.43451000  0.03158000  0.81056000  1
  C  C295  1  0.36023000  0.01898000  0.72716000  1
  C  C296  1  0.35755000  0.01413000  0.89925000  1
  C  C297  1  0.54169000  0.05058000  0.67487000  1
  C  C298  1  0.59700000  0.05227000  0.66212000  1
  C  C299  1  0.63657000  0.05236000  0.60977000  1
  C  C300  1  0.16104000  0.61595000  0.97769000  1
  C  C301  1  0.18860000  0.64085000  0.98065000  1
  C  C302  1  0.24450000  0.61417000  0.97515000  1
  C  C303  1  0.27367000  0.56344000  0.96541000  1
  C  C304  1  0.24580000  0.53954000  0.96167000  1
  C  C305  1  0.18943000  0.56550000  0.96842000  1
  C  C306  1  0.27277000  0.63982000  0.98104000  1
  C  C307  1  0.10076000  0.64244000  0.98585000  1
  C  C308  1  0.32511000  0.45834000  0.94944000  1
  C  C309  1  0.33781000  0.40304000  0.94775000  1
  C  C310  1  0.39015000  0.36349000  0.94764000  1
  C  C311  1  0.61593000  0.16106000  0.24532000  1
  C  C312  1  0.64081000  0.18865000  0.18991000  1
  C  C313  1  0.61413000  0.24456000  0.16619000  1
  C  C314  1  0.56339000  0.27371000  0.19749000  1
  C  C315  1  0.53949000  0.24583000  0.25301000  1
  C  C316  1  0.56548000  0.18944000  0.27665000  1
  C  C317  1  0.63979000  0.27283000  0.10637000  1
  C  C318  1  0.64245000  0.10075000  0.27094000  1
  C  C319  1  0.45832000  0.32512000  0.26714000  1
  C  C320  1  0.40299000  0.33788000  0.31140000  1
  C  C321  1  0.36343000  0.39023000  0.29871000  1
  C  C322  1  0.97767000  0.24531000  0.16106000  1
  C  C323  1  0.98062000  0.18989000  0.18866000  1
  C  C324  1  0.97512000  0.16616000  0.24456000  1
  C  C325  1  0.96541000  0.19745000  0.27372000  1
  C  C326  1  0.96166000  0.25296000  0.24584000  1
  C  C327  1  0.96841000  0.27662000  0.18945000  1
  C  C328  1  0.98102000  0.10635000  0.27283000  1
  C  C329  1  0.98586000  0.27090000  0.10076000  1
  C  C330  1  0.94943000  0.26709000  0.32513000  1
  C  C331  1  0.94773000  0.31138000  0.33785000  1
  C  C332  1  0.94761000  0.29871000  0.39020000  1
  C  C333  1  0.24523000  0.97771000  0.61599000  1
  C  C334  1  0.18983000  0.98064000  0.64085000  1
  C  C335  1  0.16613000  0.97512000  0.61415000  1
  C  C336  1  0.19745000  0.96541000  0.56340000  1
  C  C337  1  0.25294000  0.96169000  0.53954000  1
  C  C338  1  0.27656000  0.96844000  0.56555000  1
  C  C339  1  0.10635000  0.98100000  0.63978000  1
  C  C340  1  0.27079000  0.98588000  0.64256000  1
  C  C341  1  0.26706000  0.94944000  0.45838000  1
  C  C342  1  0.31132000  0.94776000  0.40306000  1
  C  C343  1  0.29866000  0.94764000  0.36349000  1
  C  C344  1  0.24522000  0.61600000  0.16107000  1
  C  C345  1  0.18983000  0.64085000  0.18868000  1
  C  C346  1  0.16614000  0.61415000  0.24459000  1
  C  C347  1  0.19745000  0.56340000  0.27374000  1
  C  C348  1  0.25295000  0.53954000  0.24583000  1
  C  C349  1  0.27656000  0.56556000  0.18945000  1
  C  C350  1  0.10635000  0.63978000  0.27287000  1
  C  C351  1  0.27079000  0.64256000  0.10077000  1
  C  C352  1  0.26706000  0.45838000  0.32512000  1
  C  C353  1  0.31133000  0.40305000  0.33786000  1
  C  C354  1  0.29867000  0.36348000  0.39021000  1
  C  C355  1  0.97767000  0.16106000  0.61596000  1
  C  C356  1  0.98062000  0.18865000  0.64083000  1
  C  C357  1  0.97513000  0.24455000  0.61416000  1
  C  C358  1  0.96540000  0.27371000  0.56343000  1
  C  C359  1  0.96167000  0.24583000  0.53953000  1
  C  C360  1  0.96840000  0.18945000  0.56552000  1
  C  C361  1  0.98102000  0.27282000  0.63980000  1
  C  C362  1  0.98585000  0.10076000  0.64248000  1
  C  C363  1  0.94941000  0.32514000  0.45835000  1
  C  C364  1  0.94772000  0.33786000  0.40304000  1
  C  C365  1  0.94762000  0.39021000  0.36347000  1
  C  C366  1  0.61593000  0.24531000  0.97769000  1
  C  C367  1  0.64082000  0.18990000  0.98064000  1
  C  C368  1  0.61413000  0.16619000  0.97513000  1
  C  C369  1  0.56339000  0.19749000  0.96541000  1
  C  C370  1  0.53950000  0.25301000  0.96166000  1
  C  C371  1  0.56549000  0.27665000  0.96842000  1
  C  C372  1  0.63979000  0.10637000  0.98101000  1
  C  C373  1  0.64245000  0.27093000  0.98586000  1
  C  C374  1  0.45831000  0.26714000  0.94942000  1
  C  C375  1  0.40300000  0.31139000  0.94773000  1
  C  C376  1  0.36342000  0.29870000  0.94764000  1
  C  C377  1  0.16104000  0.97769000  0.24532000  1
  C  C378  1  0.18859000  0.98066000  0.18990000  1
  C  C379  1  0.24450000  0.97516000  0.16617000  1
  C  C380  1  0.27366000  0.96541000  0.19748000  1
  C  C381  1  0.24580000  0.96167000  0.25300000  1
  C  C382  1  0.18942000  0.96842000  0.27666000  1
  C  C383  1  0.27277000  0.98105000  0.10636000  1
  C  C384  1  0.10075000  0.98585000  0.27095000  1
  C  C385  1  0.32511000  0.94944000  0.26711000  1
  C  C386  1  0.33782000  0.94775000  0.31139000  1
  C  C387  1  0.39016000  0.94764000  0.29872000  1
  C  C388  1  0.97766000  0.61596000  0.24531000  1
  C  C389  1  0.98062000  0.64082000  0.18990000  1
  C  C390  1  0.97513000  0.61416000  0.16615000  1
  C  C391  1  0.96541000  0.56342000  0.19746000  1
  C  C392  1  0.96166000  0.53954000  0.25297000  1
  C  C393  1  0.96839000  0.56552000  0.27664000  1
  C  C394  1  0.98102000  0.63980000  0.10635000  1
  C  C395  1  0.98584000  0.64249000  0.27090000  1
  C  C396  1  0.94942000  0.45836000  0.26709000  1
  C  C397  1  0.94772000  0.40305000  0.31137000  1
  C  C398  1  0.94761000  0.36348000  0.29870000  1
  C  C399  1  0.24522000  0.16107000  0.97771000  1
  C  C400  1  0.18983000  0.18868000  0.98064000  1
  C  C401  1  0.16614000  0.24459000  0.97512000  1
  C  C402  1  0.19745000  0.27374000  0.96541000  1
  C  C403  1  0.25295000  0.24582000  0.96168000  1
  C  C404  1  0.27657000  0.18944000  0.96843000  1
  C  C405  1  0.10634000  0.27287000  0.98101000  1
  C  C406  1  0.27078000  0.10077000  0.98588000  1
  C  C407  1  0.26706000  0.32511000  0.94944000  1
  C  C408  1  0.31132000  0.33785000  0.94776000  1
  C  C409  1  0.29866000  0.39021000  0.94764000  1
  C  C410  1  0.16104000  0.24532000  0.61595000  1
  C  C411  1  0.18859000  0.18990000  0.64085000  1
  C  C412  1  0.24450000  0.16617000  0.61417000  1
  C  C413  1  0.27366000  0.19748000  0.56345000  1
  C  C414  1  0.24580000  0.25299000  0.53954000  1
  C  C415  1  0.18942000  0.27666000  0.56551000  1
  C  C416  1  0.27277000  0.10636000  0.63982000  1
  C  C417  1  0.10076000  0.27094000  0.64245000  1
  C  C418  1  0.32510000  0.26711000  0.45835000  1
  C  C419  1  0.33782000  0.31139000  0.40304000  1
  C  C420  1  0.39016000  0.29871000  0.36349000  1
  C  C421  1  0.61593000  0.97769000  0.16106000  1
  C  C422  1  0.64081000  0.98064000  0.18864000  1
  C  C423  1  0.61413000  0.97513000  0.24455000  1
  C  C424  1  0.56339000  0.96541000  0.27371000  1
  C  C425  1  0.53949000  0.96167000  0.24583000  1
  C  C426  1  0.56549000  0.96842000  0.18944000  1
  C  C427  1  0.63979000  0.98101000  0.27283000  1
  C  C428  1  0.64246000  0.98586000  0.10075000  1
  C  C429  1  0.45832000  0.94942000  0.32512000  1
  C  C430  1  0.40300000  0.94773000  0.33788000  1
  C  C431  1  0.36343000  0.94764000  0.39023000  1
  O  O432  1  0.92229000  0.30900000  0.01113000  1
  O  O433  1  0.92322000  0.38583000  0.01035000  1
  O  O434  1  0.75493000  0.31176000  0.01534000  1
  O  O435  1  0.67801000  0.38856000  0.01735000  1
  O  O436  1  0.73111000  0.50932000  0.04794000  1
  O  O437  1  0.30900000  0.92227000  0.75759000  1
  O  O438  1  0.38583000  0.92324000  0.68062000  1
  O  O439  1  0.31178000  0.75486000  0.91794000  1
  O  O440  1  0.38859000  0.67795000  0.91611000  1
  O  O441  1  0.50936000  0.73108000  0.71159000  1
  O  O442  1  0.01109000  0.75764000  0.92229000  1
  O  O443  1  0.01038000  0.68063000  0.92322000  1
  O  O444  1  0.01539000  0.91797000  0.75486000  1
  O  O445  1  0.01734000  0.91612000  0.67796000  1
  O  O446  1  0.04796000  0.71165000  0.73107000  1
  O  O447  1  0.75778000  0.01104000  0.30891000  1
  O  O448  1  0.68075000  0.01038000  0.38567000  1
  O  O449  1  0.91797000  0.01540000  0.31180000  1
  O  O450  1  0.91613000  0.01737000  0.38859000  1
  O  O451  1  0.71166000  0.04794000  0.50931000  1
  O  O452  1  0.75779000  0.30891000  0.92227000  1
  O  O453  1  0.68074000  0.38566000  0.92320000  1
  O  O454  1  0.91798000  0.31180000  0.75484000  1
  O  O455  1  0.91613000  0.38857000  0.67790000  1
  O  O456  1  0.71166000  0.50931000  0.73109000  1
  O  O457  1  0.01109000  0.92228000  0.30898000  1
  O  O458  1  0.01038000  0.92322000  0.38577000  1
  O  O459  1  0.01537000  0.75488000  0.31178000  1
  O  O460  1  0.01735000  0.67796000  0.38857000  1
  O  O461  1  0.04796000  0.73107000  0.50932000  1
  O  O462  1  0.30899000  0.75760000  0.01114000  1
  O  O463  1  0.38583000  0.68062000  0.01031000  1
  O  O464  1  0.31179000  0.91794000  0.01540000  1
  O  O465  1  0.38858000  0.91611000  0.01736000  1
  O  O466  1  0.50936000  0.71159000  0.04797000  1
  O  O467  1  0.92230000  0.01112000  0.75758000  1
  O  O468  1  0.92322000  0.01036000  0.68060000  1
  O  O469  1  0.75494000  0.01532000  0.91797000  1
  O  O470  1  0.67801000  0.01737000  0.91608000  1
  O  O471  1  0.73110000  0.04794000  0.71163000  1
  O  O472  1  0.01110000  0.30897000  0.75765000  1
  O  O473  1  0.01039000  0.38577000  0.68063000  1
  O  O474  1  0.01538000  0.31178000  0.91798000  1
  O  O475  1  0.01736000  0.38857000  0.91612000  1
  O  O476  1  0.04796000  0.50931000  0.71165000  1
  O  O477  1  0.75779000  0.92226000  0.01104000  1
  O  O478  1  0.68075000  0.92320000  0.01038000  1
  O  O479  1  0.91799000  0.75483000  0.01538000  1
  O  O480  1  0.91613000  0.67790000  0.01738000  1
  O  O481  1  0.71166000  0.73110000  0.04794000  1
  O  O482  1  0.92229000  0.75758000  0.30899000  1
  O  O483  1  0.92322000  0.68061000  0.38583000  1
  O  O484  1  0.75493000  0.91797000  0.31176000  1
  O  O485  1  0.67802000  0.91608000  0.38855000  1
  O  O486  1  0.73111000  0.71163000  0.50932000  1
  O  O487  1  0.30899000  0.01115000  0.92227000  1
  O  O488  1  0.38583000  0.01029000  0.92325000  1
  O  O489  1  0.31180000  0.01540000  0.75486000  1
  O  O490  1  0.38859000  0.01735000  0.67795000  1
  O  O491  1  0.50937000  0.04796000  0.73108000  1
  O  O492  1  0.07771000  0.69100000  0.98887000  1
  O  O493  1  0.07679000  0.61416000  0.98965000  1
  O  O494  1  0.24509000  0.68823000  0.98465000  1
  O  O495  1  0.32199000  0.61144000  0.98265000  1
  O  O496  1  0.26891000  0.49067000  0.95205000  1
  O  O497  1  0.69100000  0.07773000  0.24241000  1
  O  O498  1  0.61418000  0.07675000  0.31938000  1
  O  O499  1  0.68822000  0.24514000  0.08206000  1
  O  O500  1  0.61143000  0.32204000  0.08388000  1
  O  O501  1  0.49064000  0.26892000  0.28841000  1
  O  O502  1  0.98891000  0.24236000  0.07771000  1
  O  O503  1  0.98962000  0.31937000  0.07678000  1
  O  O504  1  0.98461000  0.08203000  0.24514000  1
  O  O505  1  0.98266000  0.08388000  0.32204000  1
  O  O506  1  0.95204000  0.28834000  0.26893000  1
  O  O507  1  0.24223000  0.98896000  0.69108000  1
  O  O508  1  0.31927000  0.98961000  0.61432000  1
  O  O509  1  0.08203000  0.98460000  0.68820000  1
  O  O510  1  0.08388000  0.98263000  0.61140000  1
  O  O511  1  0.28834000  0.95206000  0.49069000  1
  O  O512  1  0.24221000  0.69109000  0.07773000  1
  O  O513  1  0.31927000  0.61434000  0.07679000  1
  O  O514  1  0.08203000  0.68819000  0.24516000  1
  O  O515  1  0.08388000  0.61142000  0.32210000  1
  O  O516  1  0.28834000  0.49069000  0.26891000  1
  O  O517  1  0.98892000  0.07771000  0.69102000  1
  O  O518  1  0.98962000  0.07678000  0.61423000  1
  O  O519  1  0.98463000  0.24512000  0.68822000  1
  O  O520  1  0.98265000  0.32204000  0.61143000  1
  O  O521  1  0.95204000  0.26893000  0.49068000  1
  O  O522  1  0.69101000  0.24240000  0.98886000  1
  O  O523  1  0.61419000  0.31937000  0.98968000  1
  O  O524  1  0.68821000  0.08206000  0.98460000  1
  O  O525  1  0.61144000  0.08388000  0.98263000  1
  O  O526  1  0.49064000  0.28841000  0.95203000  1
  O  O527  1  0.07770000  0.98888000  0.24242000  1
  O  O528  1  0.07678000  0.98964000  0.31940000  1
  O  O529  1  0.24507000  0.98468000  0.08202000  1
  O  O530  1  0.32200000  0.98263000  0.08391000  1
  O  O531  1  0.26891000  0.95205000  0.28837000  1
  O  O532  1  0.98891000  0.69102000  0.24235000  1
  O  O533  1  0.98962000  0.61423000  0.31936000  1
  O  O534  1  0.98462000  0.68822000  0.08202000  1
  O  O535  1  0.98266000  0.61142000  0.08387000  1
  O  O536  1  0.95205000  0.49068000  0.28835000  1
  O  O537  1  0.24222000  0.07773000  0.98896000  1
  O  O538  1  0.31926000  0.07680000  0.98961000  1
  O  O539  1  0.08202000  0.24517000  0.98461000  1
  O  O540  1  0.08388000  0.32209000  0.98262000  1
  O  O541  1  0.28834000  0.26890000  0.95206000  1
  O  O542  1  0.07771000  0.24242000  0.69101000  1
  O  O543  1  0.07678000  0.31939000  0.61417000  1
  O  O544  1  0.24508000  0.08203000  0.68823000  1
  O  O545  1  0.32199000  0.08391000  0.61145000  1
  O  O546  1  0.26889000  0.28837000  0.49068000  1
  O  O547  1  0.69101000  0.98885000  0.07773000  1
  O  O548  1  0.61418000  0.98970000  0.07675000  1
  O  O549  1  0.68821000  0.98459000  0.24514000  1
  O  O550  1  0.61142000  0.98264000  0.32205000  1
  O  O551  1  0.49065000  0.95203000  0.26891000  1
