# generated using pymatgen
data_Cu3Si2H48(C13O2)6
_symmetry_space_group_name_H-M   'P 1'
_cell_length_a   23.68470000
_cell_length_b   23.68470000
_cell_length_c   23.68470000
_cell_angle_alpha   60.00000000
_cell_angle_beta   60.00000000
_cell_angle_gamma   60.00000000
_symmetry_Int_Tables_number   1
_chemical_formula_structural   Cu3Si2H48(C13O2)6
_chemical_formula_sum   'Cu12 Si8 H192 C312 O48'
_cell_volume   9394.82439054
_cell_formula_units_Z   4
loop_
 _symmetry_equiv_pos_site_id
 _symmetry_equiv_pos_as_xyz
  1  'x, y, z'
loop_
 _atom_site_type_symbol
 _atom_site_label
 _atom_site_symmetry_multiplicity
 _atom_site_fract_x
 _atom_site_fract_y
 _atom_site_fract_z
 _atom_site_occupancy
  Cu  Cu1  1  0.71706000  0.28294000  0.28294000  1.0
  Cu  Cu2  1  0.36096000  0.36096000  0.63904000  1.0
  Cu  Cu3  1  0.63904000  0.36096000  0.63904000  1.0
  Cu  Cu4  1  0.28294000  0.71706000  0.71706000  1.0
  Cu  Cu5  1  0.36096000  0.63904000  0.36096000  1.0
  Cu  Cu6  1  0.63904000  0.36096000  0.36096000  1.0
  Cu  Cu7  1  0.28294000  0.28294000  0.71706000  1.0
  Cu  Cu8  1  0.71706000  0.28294000  0.71706000  1.0
  Cu  Cu9  1  0.28294000  0.71706000  0.28294000  1.0
  Cu  Cu10  1  0.36096000  0.63904000  0.63904000  1.0
  Cu  Cu11  1  0.63904000  0.63904000  0.36096000  1.0
  Cu  Cu12  1  0.71706000  0.71706000  0.28294000  1.0
  Si  Si1  1  0.14246000  0.57262000  0.14246000  1.0
  Si  Si2  1  0.14246000  0.14246000  0.57262000  1.0
  Si  Si3  1  0.85754000  0.42738000  0.85754000  1.0
  Si  Si4  1  0.42738000  0.85754000  0.85754000  1.0
  Si  Si5  1  0.57262000  0.14246000  0.14246000  1.0
  Si  Si6  1  0.85754000  0.85754000  0.42738000  1.0
  Si  Si7  1  0.14246000  0.14246000  0.14246000  1.0
  Si  Si8  1  0.85754000  0.85754000  0.85754000  1.0
  H  H1  1  0.45670000  0.14610000  0.12550000  1.0
  H  H2  1  0.37030000  0.40850000  0.15590000  1.0
  H  H3  1  0.20920000  0.57420000  0.90940000  1.0
  H  H4  1  0.09060000  0.69280000  0.42580000  1.0
  H  H5  1  0.64020000  0.50460000  0.13920000  1.0
  H  H6  1  0.45500000  0.45060000  0.31860000  1.0
  H  H7  1  0.52300000  0.01720000  0.86100000  1.0
  H  H8  1  0.54330000  0.85390000  0.72830000  1.0
  H  H9  1  0.13920000  0.50460000  0.71600000  1.0
  H  H10  1  0.54940000  0.22420000  0.54500000  1.0
  H  H11  1  0.17360000  0.35640000  0.89780000  1.0
  H  H12  1  0.45670000  0.12550000  0.27170000  1.0
  H  H13  1  0.12550000  0.27170000  0.45670000  1.0
  H  H14  1  0.17860000  0.20860000  0.62240000  1.0
  H  H15  1  0.42780000  0.10220000  0.82640000  1.0
  H  H16  1  0.45060000  0.77580000  0.31860000  1.0
  H  H17  1  0.87450000  0.85390000  0.54330000  1.0
  H  H18  1  0.49540000  0.28400000  0.35980000  1.0
  H  H19  1  0.31860000  0.45500000  0.45060000  1.0
  H  H20  1  0.45500000  0.31860000  0.77580000  1.0
  H  H21  1  0.82640000  0.64360000  0.42780000  1.0
  H  H22  1  0.57420000  0.90940000  0.20920000  1.0
  H  H23  1  0.28400000  0.49540000  0.86080000  1.0
  H  H24  1  0.06530000  0.15590000  0.40850000  1.0
  H  H25  1  0.62240000  0.17860000  0.20860000  1.0
  H  H26  1  0.13900000  0.40120000  0.98280000  1.0
  H  H27  1  0.35980000  0.28400000  0.86080000  1.0
  H  H28  1  0.20860000  0.62240000  0.17860000  1.0
  H  H29  1  0.59880000  0.86100000  0.01720000  1.0
  H  H30  1  0.54940000  0.68140000  0.22420000  1.0
  H  H31  1  0.62970000  0.84410000  0.59150000  1.0
  H  H32  1  0.01720000  0.52300000  0.59880000  1.0
  H  H33  1  0.54500000  0.68140000  0.54940000  1.0
  H  H34  1  0.86080000  0.35980000  0.28400000  1.0
  H  H35  1  0.57220000  0.89780000  0.35640000  1.0
  H  H36  1  0.54940000  0.54500000  0.68140000  1.0
  H  H37  1  0.68140000  0.22420000  0.54940000  1.0
  H  H38  1  0.59150000  0.93470000  0.62970000  1.0
  H  H39  1  0.40850000  0.15590000  0.37030000  1.0
  H  H40  1  0.82140000  0.00960000  0.37760000  1.0
  H  H41  1  0.30720000  0.57420000  0.20920000  1.0
  H  H42  1  0.86100000  0.52300000  0.01720000  1.0
  H  H43  1  0.37760000  0.82140000  0.00960000  1.0
  H  H44  1  0.79140000  0.00960000  0.82140000  1.0
  H  H45  1  0.37760000  0.79140000  0.82140000  1.0
  H  H46  1  0.45500000  0.77580000  0.45060000  1.0
  H  H47  1  0.42780000  0.64360000  0.10220000  1.0
  H  H48  1  0.84410000  0.59150000  0.62970000  1.0
  H  H49  1  0.62240000  0.99040000  0.17860000  1.0
  H  H50  1  0.45670000  0.27170000  0.14610000  1.0
  H  H51  1  0.86080000  0.28400000  0.49540000  1.0
  H  H52  1  0.54500000  0.22420000  0.68140000  1.0
  H  H53  1  0.30720000  0.20920000  0.90940000  1.0
  H  H54  1  0.64020000  0.71600000  0.50460000  1.0
  H  H55  1  0.57420000  0.30720000  0.90940000  1.0
  H  H56  1  0.72830000  0.85390000  0.87450000  1.0
  H  H57  1  0.99040000  0.17860000  0.62240000  1.0
  H  H58  1  0.71600000  0.64020000  0.13920000  1.0
  H  H59  1  0.86100000  0.01720000  0.59880000  1.0
  H  H60  1  0.17860000  0.62240000  0.99040000  1.0
  H  H61  1  0.30720000  0.90940000  0.57420000  1.0
  H  H62  1  0.40120000  0.47700000  0.98280000  1.0
  H  H63  1  0.09060000  0.42580000  0.79080000  1.0
  H  H64  1  0.22420000  0.54500000  0.54940000  1.0
  H  H65  1  0.50460000  0.64020000  0.71600000  1.0
  H  H66  1  0.40120000  0.98280000  0.13900000  1.0
  H  H67  1  0.49540000  0.35980000  0.86080000  1.0
  H  H68  1  0.14610000  0.27170000  0.12550000  1.0
  H  H69  1  0.40850000  0.37030000  0.06530000  1.0
  H  H70  1  0.15590000  0.37030000  0.40850000  1.0
  H  H71  1  0.99040000  0.62240000  0.20860000  1.0
  H  H72  1  0.69280000  0.09060000  0.79080000  1.0
  H  H73  1  0.10220000  0.42780000  0.64360000  1.0
  H  H74  1  0.72830000  0.87450000  0.54330000  1.0
  H  H75  1  0.84410000  0.62970000  0.93470000  1.0
  H  H76  1  0.71600000  0.50460000  0.64020000  1.0
  H  H77  1  0.40120000  0.13900000  0.47700000  1.0
  H  H78  1  0.54330000  0.87450000  0.85390000  1.0
  H  H79  1  0.84410000  0.93470000  0.59150000  1.0
  H  H80  1  0.47700000  0.98280000  0.40120000  1.0
  H  H81  1  0.12550000  0.14610000  0.27170000  1.0
  H  H82  1  0.10220000  0.82640000  0.42780000  1.0
  H  H83  1  0.49540000  0.86080000  0.28400000  1.0
  H  H84  1  0.62240000  0.20860000  0.99040000  1.0
  H  H85  1  0.28400000  0.35980000  0.49540000  1.0
  H  H86  1  0.62970000  0.59150000  0.93470000  1.0
  H  H87  1  0.22420000  0.54940000  0.68140000  1.0
  H  H88  1  0.31860000  0.45060000  0.77580000  1.0
  H  H89  1  0.89780000  0.57220000  0.17360000  1.0
  H  H90  1  0.64020000  0.13920000  0.71600000  1.0
  H  H91  1  0.00960000  0.82140000  0.79140000  1.0
  H  H92  1  0.45060000  0.45500000  0.77580000  1.0
  H  H93  1  0.57220000  0.17360000  0.89780000  1.0
  H  H94  1  0.85390000  0.54330000  0.87450000  1.0
  H  H95  1  0.52300000  0.59880000  0.01720000  1.0
  H  H96  1  0.10220000  0.64360000  0.82640000  1.0
  H  H97  1  0.69280000  0.79080000  0.42580000  1.0
  H  H98  1  0.13900000  0.47700000  0.40120000  1.0
  H  H99  1  0.57220000  0.35640000  0.17360000  1.0
  H  H100  1  0.17360000  0.57220000  0.35640000  1.0
  H  H101  1  0.14610000  0.45670000  0.27170000  1.0
  H  H102  1  0.82140000  0.37760000  0.79140000  1.0
  H  H103  1  0.82140000  0.79140000  0.00960000  1.0
  H  H104  1  0.64360000  0.82640000  0.10220000  1.0
  H  H105  1  0.28400000  0.86080000  0.35980000  1.0
  H  H106  1  0.82640000  0.10220000  0.64360000  1.0
  H  H107  1  0.89780000  0.17360000  0.35640000  1.0
  H  H108  1  0.59150000  0.84410000  0.93470000  1.0
  H  H109  1  0.93470000  0.62970000  0.59150000  1.0
  H  H110  1  0.98280000  0.47700000  0.13900000  1.0
  H  H111  1  0.72830000  0.54330000  0.85390000  1.0
  H  H112  1  0.20860000  0.17860000  0.99040000  1.0
  H  H113  1  0.79080000  0.09060000  0.42580000  1.0
  H  H114  1  0.86100000  0.59880000  0.52300000  1.0
  H  H115  1  0.59880000  0.01720000  0.52300000  1.0
  H  H116  1  0.64360000  0.42780000  0.82640000  1.0
  H  H117  1  0.13920000  0.64020000  0.50460000  1.0
  H  H118  1  0.35640000  0.57220000  0.89780000  1.0
  H  H119  1  0.37030000  0.15590000  0.06530000  1.0
  H  H120  1  0.15590000  0.06530000  0.37030000  1.0
  H  H121  1  0.87450000  0.72830000  0.85390000  1.0
  H  H122  1  0.35980000  0.86080000  0.49540000  1.0
  H  H123  1  0.20920000  0.30720000  0.57420000  1.0
  H  H124  1  0.90940000  0.57420000  0.30720000  1.0
  H  H125  1  0.59880000  0.52300000  0.86100000  1.0
  H  H126  1  0.69280000  0.42580000  0.09060000  1.0
  H  H127  1  0.13920000  0.71600000  0.64020000  1.0
  H  H128  1  0.57420000  0.20920000  0.30720000  1.0
  H  H129  1  0.42580000  0.09060000  0.69280000  1.0
  H  H130  1  0.99040000  0.20860000  0.17860000  1.0
  H  H131  1  0.35640000  0.17360000  0.57220000  1.0
  H  H132  1  0.50460000  0.71600000  0.13920000  1.0
  H  H133  1  0.01720000  0.86100000  0.52300000  1.0
  H  H134  1  0.00960000  0.37760000  0.82140000  1.0
  H  H135  1  0.93470000  0.59150000  0.84410000  1.0
  H  H136  1  0.20920000  0.90940000  0.30720000  1.0
  H  H137  1  0.98280000  0.13900000  0.40120000  1.0
  H  H138  1  0.42780000  0.82640000  0.64360000  1.0
  H  H139  1  0.06530000  0.37030000  0.15590000  1.0
  H  H140  1  0.20860000  0.99040000  0.62240000  1.0
  H  H141  1  0.50460000  0.13920000  0.64020000  1.0
  H  H142  1  0.13900000  0.98280000  0.47700000  1.0
  H  H143  1  0.17360000  0.89780000  0.57220000  1.0
  H  H144  1  0.86080000  0.49540000  0.35980000  1.0
  H  H145  1  0.64360000  0.10220000  0.42780000  1.0
  H  H146  1  0.68140000  0.54500000  0.22420000  1.0
  H  H147  1  0.90940000  0.30720000  0.20920000  1.0
  H  H148  1  0.59150000  0.62970000  0.84410000  1.0
  H  H149  1  0.31860000  0.77580000  0.45500000  1.0
  H  H150  1  0.00960000  0.79140000  0.37760000  1.0
  H  H151  1  0.45060000  0.31860000  0.45500000  1.0
  H  H152  1  0.85390000  0.87450000  0.72830000  1.0
  H  H153  1  0.93470000  0.84410000  0.62970000  1.0
  H  H154  1  0.89780000  0.35640000  0.57220000  1.0
  H  H155  1  0.77580000  0.45060000  0.45500000  1.0
  H  H156  1  0.27170000  0.12550000  0.14610000  1.0
  H  H157  1  0.98280000  0.40120000  0.47700000  1.0
  H  H158  1  0.42580000  0.79080000  0.09060000  1.0
  H  H159  1  0.87450000  0.54330000  0.72830000  1.0
  H  H160  1  0.01720000  0.59880000  0.86100000  1.0
  H  H161  1  0.14610000  0.12550000  0.45670000  1.0
  H  H162  1  0.79080000  0.42580000  0.69280000  1.0
  H  H163  1  0.79140000  0.82140000  0.37760000  1.0
  H  H164  1  0.79080000  0.69280000  0.09060000  1.0
  H  H165  1  0.54330000  0.72830000  0.87450000  1.0
  H  H166  1  0.71600000  0.13920000  0.50460000  1.0
  H  H167  1  0.79140000  0.37760000  0.00960000  1.0
  H  H168  1  0.35640000  0.89780000  0.17360000  1.0
  H  H169  1  0.09060000  0.79080000  0.69280000  1.0
  H  H170  1  0.37030000  0.06530000  0.40850000  1.0
  H  H171  1  0.27170000  0.14610000  0.45670000  1.0
  H  H172  1  0.17860000  0.99040000  0.20860000  1.0
  H  H173  1  0.22420000  0.68140000  0.54500000  1.0
  H  H174  1  0.77580000  0.31860000  0.45060000  1.0
  H  H175  1  0.68140000  0.54940000  0.54500000  1.0
  H  H176  1  0.62970000  0.93470000  0.84410000  1.0
  H  H177  1  0.77580000  0.45500000  0.31860000  1.0
  H  H178  1  0.52300000  0.86100000  0.59880000  1.0
  H  H179  1  0.54500000  0.54940000  0.22420000  1.0
  H  H180  1  0.12550000  0.45670000  0.14610000  1.0
  H  H181  1  0.42580000  0.69280000  0.79080000  1.0
  H  H182  1  0.90940000  0.20920000  0.57420000  1.0
  H  H183  1  0.85390000  0.72830000  0.54330000  1.0
  H  H184  1  0.40850000  0.06530000  0.15590000  1.0
  H  H185  1  0.06530000  0.40850000  0.37030000  1.0
  H  H186  1  0.82640000  0.42780000  0.10220000  1.0
  H  H187  1  0.15590000  0.40850000  0.06530000  1.0
  H  H188  1  0.27170000  0.45670000  0.12550000  1.0
  H  H189  1  0.47700000  0.40120000  0.13900000  1.0
  H  H190  1  0.47700000  0.13900000  0.98280000  1.0
  H  H191  1  0.37760000  0.00960000  0.79140000  1.0
  H  H192  1  0.35980000  0.49540000  0.28400000  1.0
  C  C1  1  0.94990000  0.54810000  0.83950000  1.0
  C  C2  1  0.60079000  0.47741000  0.75061000  1.0
  C  C3  1  0.69990000  0.44970000  0.04250000  1.0
  C  C4  1  0.41540000  0.63080000  0.22740000  1.0
  C  C5  1  0.16050000  0.45190000  0.05010000  1.0
  C  C6  1  0.45258000  0.20822000  0.40942000  1.0
  C  C7  1  0.59721000  0.73839000  0.53279000  1.0
  C  C8  1  0.51320000  0.81460000  0.02020000  1.0
  C  C9  1  0.80400000  0.61540000  0.47080000  1.0
  C  C10  1  0.99440000  0.42100000  0.82600000  1.0
  C  C11  1  0.47080000  0.61540000  0.10980000  1.0
  C  C12  1  0.66250000  0.83950000  0.54810000  1.0
  C  C13  1  0.53279000  0.73839000  0.13161000  1.0
  C  C14  1  0.44970000  0.04250000  0.69990000  1.0
  C  C15  1  0.24140000  0.57900000  0.17400000  1.0
  C  C16  1  0.75860000  0.99440000  0.82600000  1.0
  C  C17  1  0.59058000  0.79178000  0.54742000  1.0
  C  C18  1  0.54810000  0.94990000  0.66250000  1.0
  C  C19  1  0.27890000  0.48050000  0.14250000  1.0
  C  C20  1  0.79178000  0.07022000  0.54742000  1.0
  C  C21  1  0.10980000  0.80400000  0.47080000  1.0
  C  C22  1  0.66250000  0.54810000  0.94990000  1.0
  C  C23  1  0.75061000  0.17119000  0.60079000  1.0
  C  C24  1  0.22740000  0.41540000  0.63080000  1.0
  C  C25  1  0.30010000  0.95750000  0.55030000  1.0
  C  C26  1  0.26161000  0.86839000  0.40279000  1.0
  C  C27  1  0.85090000  0.45590000  0.76910000  1.0
  C  C28  1  0.48050000  0.09810000  0.14250000  1.0
  C  C29  1  0.51950000  0.90190000  0.72110000  1.0
  C  C30  1  0.51950000  0.72110000  0.85750000  1.0
  C  C31  1  0.54060000  0.55940000  0.18220000  1.0
  C  C32  1  0.61540000  0.80400000  0.10980000  1.0
  C  C33  1  0.00560000  0.17400000  0.57900000  1.0
  C  C34  1  0.60079000  0.17119000  0.47741000  1.0
  C  C35  1  0.82881000  0.24939000  0.39921000  1.0
  C  C36  1  0.38460000  0.89020000  0.19600000  1.0
  C  C37  1  0.34800000  0.18540000  0.97980000  1.0
  C  C38  1  0.24140000  0.00560000  0.57900000  1.0
  C  C39  1  0.52744000  0.58876000  0.05924000  1.0
  C  C40  1  0.27890000  0.14250000  0.09810000  1.0
  C  C41  1  0.45190000  0.33750000  0.05010000  1.0
  C  C42  1  0.07022000  0.59058000  0.54742000  1.0
  C  C43  1  0.41124000  0.47256000  0.94076000  1.0
  C  C44  1  0.71780000  0.18220000  0.55940000  1.0
  C  C45  1  0.48680000  0.97980000  0.18540000  1.0
  C  C46  1  0.17544000  0.94076000  0.47256000  1.0
  C  C47  1  0.63080000  0.72640000  0.22740000  1.0
  C  C48  1  0.46721000  0.40279000  0.86839000  1.0
  C  C49  1  0.42100000  0.82600000  0.99440000  1.0
  C  C50  1  0.86839000  0.26161000  0.46721000  1.0
  C  C51  1  0.82881000  0.39921000  0.52259000  1.0
  C  C52  1  0.54810000  0.66250000  0.83950000  1.0
  C  C53  1  0.20822000  0.92978000  0.40942000  1.0
  C  C54  1  0.07590000  0.14910000  0.54410000  1.0
  C  C55  1  0.76910000  0.45590000  0.92410000  1.0
  C  C56  1  0.53279000  0.13161000  0.59721000  1.0
  C  C57  1  0.47256000  0.94076000  0.41124000  1.0
  C  C58  1  0.82600000  0.99440000  0.42100000  1.0
  C  C59  1  0.79178000  0.54742000  0.59058000  1.0
  C  C60  1  0.53279000  0.59721000  0.73839000  1.0
  C  C61  1  0.89020000  0.52920000  0.19600000  1.0
  C  C62  1  0.41124000  0.17544000  0.47256000  1.0
  C  C63  1  0.77260000  0.27360000  0.36920000  1.0
  C  C64  1  0.65200000  0.81460000  0.51320000  1.0
  C  C65  1  0.85750000  0.72110000  0.90190000  1.0
  C  C66  1  0.14250000  0.27890000  0.48050000  1.0
  C  C67  1  0.61540000  0.10980000  0.47080000  1.0
  C  C68  1  0.48680000  0.18540000  0.34800000  1.0
  C  C69  1  0.82456000  0.58876000  0.52744000  1.0
  C  C70  1  0.60079000  0.75061000  0.17119000  1.0
  C  C71  1  0.19210000  0.95750000  0.30010000  1.0
  C  C72  1  0.42100000  0.75860000  0.82600000  1.0
  C  C73  1  0.44970000  0.80790000  0.04250000  1.0
  C  C74  1  0.46721000  0.26161000  0.40279000  1.0
  C  C75  1  0.52259000  0.39921000  0.24939000  1.0
  C  C76  1  0.17119000  0.47741000  0.60079000  1.0
  C  C77  1  0.55940000  0.54060000  0.71780000  1.0
  C  C78  1  0.14250000  0.09810000  0.27890000  1.0
  C  C79  1  0.33750000  0.16050000  0.05010000  1.0
  C  C80  1  0.86839000  0.40279000  0.26161000  1.0
  C  C81  1  0.85750000  0.90190000  0.51950000  1.0
  C  C82  1  0.55030000  0.30010000  0.95750000  1.0
  C  C83  1  0.39921000  0.52259000  0.82881000  1.0
  C  C84  1  0.58460000  0.27360000  0.77260000  1.0
  C  C85  1  0.72110000  0.90190000  0.85750000  1.0
  C  C86  1  0.17544000  0.41124000  0.94076000  1.0
  C  C87  1  0.72640000  0.63080000  0.41540000  1.0
  C  C88  1  0.55940000  0.71780000  0.18220000  1.0
  C  C89  1  0.52920000  0.89020000  0.38460000  1.0
  C  C90  1  0.94990000  0.66250000  0.54810000  1.0
  C  C91  1  0.81460000  0.65200000  0.02020000  1.0
  C  C92  1  0.92410000  0.76910000  0.45590000  1.0
  C  C93  1  0.28220000  0.44060000  0.81780000  1.0
  C  C94  1  0.02020000  0.51320000  0.81460000  1.0
  C  C95  1  0.30010000  0.19210000  0.95750000  1.0
  C  C96  1  0.83950000  0.94990000  0.54810000  1.0
  C  C97  1  0.54742000  0.07022000  0.59058000  1.0
  C  C98  1  0.20822000  0.45258000  0.92978000  1.0
  C  C99  1  0.44970000  0.69990000  0.80790000  1.0
  C  C100  1  0.73839000  0.59721000  0.13161000  1.0
  C  C101  1  0.81780000  0.44060000  0.45940000  1.0
  C  C102  1  0.40942000  0.20822000  0.92978000  1.0
  C  C103  1  0.27360000  0.36920000  0.77260000  1.0
  C  C104  1  0.14910000  0.54410000  0.07590000  1.0
  C  C105  1  0.28220000  0.45940000  0.44060000  1.0
  C  C106  1  0.97980000  0.18540000  0.48680000  1.0
  C  C107  1  0.72640000  0.22740000  0.63080000  1.0
  C  C108  1  0.76910000  0.92410000  0.85090000  1.0
  C  C109  1  0.22740000  0.72640000  0.41540000  1.0
  C  C110  1  0.80400000  0.10980000  0.61540000  1.0
  C  C111  1  0.09810000  0.14250000  0.48050000  1.0
  C  C112  1  0.34800000  0.97980000  0.48680000  1.0
  C  C113  1  0.80400000  0.47080000  0.10980000  1.0
  C  C114  1  0.47741000  0.60079000  0.17119000  1.0
  C  C115  1  0.72110000  0.85750000  0.51950000  1.0
  C  C116  1  0.02020000  0.65200000  0.51320000  1.0
  C  C117  1  0.66250000  0.94990000  0.83950000  1.0
  C  C118  1  0.36920000  0.58460000  0.77260000  1.0
  C  C119  1  0.83950000  0.66250000  0.94990000  1.0
  C  C120  1  0.94076000  0.41124000  0.47256000  1.0
  C  C121  1  0.47080000  0.80400000  0.61540000  1.0
  C  C122  1  0.54410000  0.07590000  0.14910000  1.0
  C  C123  1  0.52920000  0.38460000  0.19600000  1.0
  C  C124  1  0.54810000  0.83950000  0.94990000  1.0
  C  C125  1  0.07022000  0.79178000  0.59058000  1.0
  C  C126  1  0.85750000  0.51950000  0.72110000  1.0
  C  C127  1  0.54742000  0.59058000  0.79178000  1.0
  C  C128  1  0.24939000  0.82881000  0.52259000  1.0
  C  C129  1  0.52259000  0.82881000  0.39921000  1.0
  C  C130  1  0.36920000  0.77260000  0.27360000  1.0
  C  C131  1  0.44060000  0.81780000  0.28220000  1.0
  C  C132  1  0.23090000  0.54410000  0.14910000  1.0
  C  C133  1  0.23090000  0.14910000  0.07590000  1.0
  C  C134  1  0.41124000  0.94076000  0.17544000  1.0
  C  C135  1  0.45258000  0.92978000  0.20822000  1.0
  C  C136  1  0.94076000  0.17544000  0.41124000  1.0
  C  C137  1  0.07022000  0.54742000  0.79178000  1.0
  C  C138  1  0.95750000  0.19210000  0.55030000  1.0
  C  C139  1  0.26161000  0.40279000  0.46721000  1.0
  C  C140  1  0.17119000  0.75061000  0.47741000  1.0
  C  C141  1  0.94990000  0.83950000  0.66250000  1.0
  C  C142  1  0.58876000  0.52744000  0.82456000  1.0
  C  C143  1  0.59721000  0.53279000  0.13161000  1.0
  C  C144  1  0.85090000  0.76910000  0.92410000  1.0
  C  C145  1  0.58460000  0.77260000  0.36920000  1.0
  C  C146  1  0.90190000  0.85750000  0.72110000  1.0
  C  C147  1  0.05924000  0.58876000  0.82456000  1.0
  C  C148  1  0.46721000  0.86839000  0.26161000  1.0
  C  C149  1  0.52259000  0.24939000  0.82881000  1.0
  C  C150  1  0.45258000  0.40942000  0.92978000  1.0
  C  C151  1  0.47741000  0.17119000  0.75061000  1.0
  C  C152  1  0.42100000  0.99440000  0.75860000  1.0
  C  C153  1  0.36920000  0.27360000  0.58460000  1.0
  C  C154  1  0.13161000  0.53279000  0.73839000  1.0
  C  C155  1  0.18220000  0.71780000  0.54060000  1.0
  C  C156  1  0.30010000  0.55030000  0.19210000  1.0
  C  C157  1  0.45590000  0.85090000  0.92410000  1.0
  C  C158  1  0.71780000  0.55940000  0.54060000  1.0
  C  C159  1  0.81460000  0.02020000  0.51320000  1.0
  C  C160  1  0.81460000  0.51320000  0.65200000  1.0
  C  C161  1  0.57900000  0.24140000  0.00560000  1.0
  C  C162  1  0.92410000  0.45590000  0.85090000  1.0
  C  C163  1  0.44060000  0.45940000  0.81780000  1.0
  C  C164  1  0.05010000  0.16050000  0.45190000  1.0
  C  C165  1  0.41540000  0.72640000  0.63080000  1.0
  C  C166  1  0.40279000  0.86839000  0.46721000  1.0
  C  C167  1  0.90190000  0.51950000  0.85750000  1.0
  C  C168  1  0.19210000  0.55030000  0.95750000  1.0
  C  C169  1  0.45190000  0.16050000  0.33750000  1.0
  C  C170  1  0.02020000  0.81460000  0.65200000  1.0
  C  C171  1  0.73839000  0.53279000  0.59721000  1.0
  C  C172  1  0.72110000  0.51950000  0.90190000  1.0
  C  C173  1  0.89020000  0.38460000  0.52920000  1.0
  C  C174  1  0.54410000  0.23090000  0.07590000  1.0
  C  C175  1  0.48050000  0.14250000  0.27890000  1.0
  C  C176  1  0.19210000  0.30010000  0.55030000  1.0
  C  C177  1  0.82456000  0.52744000  0.05924000  1.0
  C  C178  1  0.63080000  0.22740000  0.41540000  1.0
  C  C179  1  0.89020000  0.19600000  0.38460000  1.0
  C  C180  1  0.17400000  0.00560000  0.24140000  1.0
  C  C181  1  0.45940000  0.44060000  0.28220000  1.0
  C  C182  1  0.34800000  0.48680000  0.18540000  1.0
  C  C183  1  0.75860000  0.42100000  0.99440000  1.0
  C  C184  1  0.04250000  0.44970000  0.80790000  1.0
  C  C185  1  0.17400000  0.24140000  0.57900000  1.0
  C  C186  1  0.38460000  0.52920000  0.89020000  1.0
  C  C187  1  0.95750000  0.30010000  0.19210000  1.0
  C  C188  1  0.69990000  0.80790000  0.44970000  1.0
  C  C189  1  0.05010000  0.33750000  0.16050000  1.0
  C  C190  1  0.69990000  0.04250000  0.80790000  1.0
  C  C191  1  0.39921000  0.24939000  0.52259000  1.0
  C  C192  1  0.18220000  0.54060000  0.55940000  1.0
  C  C193  1  0.92978000  0.20822000  0.45258000  1.0
  C  C194  1  0.79178000  0.59058000  0.07022000  1.0
  C  C195  1  0.58876000  0.82456000  0.05924000  1.0
  C  C196  1  0.82600000  0.42100000  0.75860000  1.0
  C  C197  1  0.40942000  0.45258000  0.20822000  1.0
  C  C198  1  0.58876000  0.05924000  0.52744000  1.0
  C  C199  1  0.18220000  0.55940000  0.71780000  1.0
  C  C200  1  0.52920000  0.19600000  0.89020000  1.0
  C  C201  1  0.58460000  0.36920000  0.27360000  1.0
  C  C202  1  0.54060000  0.71780000  0.55940000  1.0
  C  C203  1  0.47080000  0.10980000  0.80400000  1.0
  C  C204  1  0.07590000  0.23090000  0.14910000  1.0
  C  C205  1  0.55030000  0.95750000  0.19210000  1.0
  C  C206  1  0.51320000  0.02020000  0.65200000  1.0
  C  C207  1  0.48680000  0.34800000  0.97980000  1.0
  C  C208  1  0.83950000  0.54810000  0.66250000  1.0
  C  C209  1  0.76910000  0.85090000  0.45590000  1.0
  C  C210  1  0.05010000  0.45190000  0.33750000  1.0
  C  C211  1  0.82881000  0.52259000  0.24939000  1.0
  C  C212  1  0.51950000  0.85750000  0.90190000  1.0
  C  C213  1  0.80790000  0.69990000  0.04250000  1.0
  C  C214  1  0.41540000  0.22740000  0.72640000  1.0
  C  C215  1  0.52744000  0.82456000  0.58876000  1.0
  C  C216  1  0.40279000  0.46721000  0.26161000  1.0
  C  C217  1  0.16050000  0.05010000  0.33750000  1.0
  C  C218  1  0.48050000  0.27890000  0.09810000  1.0
  C  C219  1  0.80790000  0.44970000  0.69990000  1.0
  C  C220  1  0.97980000  0.34800000  0.18540000  1.0
  C  C221  1  0.16050000  0.33750000  0.45190000  1.0
  C  C222  1  0.54742000  0.79178000  0.07022000  1.0
  C  C223  1  0.51320000  0.65200000  0.81460000  1.0
  C  C224  1  0.57900000  0.17400000  0.24140000  1.0
  C  C225  1  0.22740000  0.63080000  0.72640000  1.0
  C  C226  1  0.14250000  0.48050000  0.09810000  1.0
  C  C227  1  0.19600000  0.38460000  0.89020000  1.0
  C  C228  1  0.65200000  0.02020000  0.81460000  1.0
  C  C229  1  0.82456000  0.05924000  0.58876000  1.0
  C  C230  1  0.18540000  0.48680000  0.97980000  1.0
  C  C231  1  0.75061000  0.47741000  0.17119000  1.0
  C  C232  1  0.72640000  0.41540000  0.22740000  1.0
  C  C233  1  0.77260000  0.36920000  0.58460000  1.0
  C  C234  1  0.45940000  0.28220000  0.81780000  1.0
  C  C235  1  0.75860000  0.82600000  0.42100000  1.0
  C  C236  1  0.18540000  0.34800000  0.48680000  1.0
  C  C237  1  0.47741000  0.75061000  0.60079000  1.0
  C  C238  1  0.10980000  0.47080000  0.61540000  1.0
  C  C239  1  0.59058000  0.07022000  0.79178000  1.0
  C  C240  1  0.27890000  0.09810000  0.48050000  1.0
  C  C241  1  0.40942000  0.92978000  0.45258000  1.0
  C  C242  1  0.20822000  0.40942000  0.45258000  1.0
  C  C243  1  0.92978000  0.45258000  0.40942000  1.0
  C  C244  1  0.73839000  0.13161000  0.53279000  1.0
  C  C245  1  0.14910000  0.23090000  0.54410000  1.0
  C  C246  1  0.17544000  0.47256000  0.41124000  1.0
  C  C247  1  0.07590000  0.54410000  0.23090000  1.0
  C  C248  1  0.14910000  0.07590000  0.23090000  1.0
  C  C249  1  0.45590000  0.76910000  0.85090000  1.0
  C  C250  1  0.81780000  0.45940000  0.28220000  1.0
  C  C251  1  0.10980000  0.61540000  0.80400000  1.0
  C  C252  1  0.99440000  0.82600000  0.75860000  1.0
  C  C253  1  0.59721000  0.13161000  0.73839000  1.0
  C  C254  1  0.19600000  0.89020000  0.52920000  1.0
  C  C255  1  0.59058000  0.54742000  0.07022000  1.0
  C  C256  1  0.54410000  0.14910000  0.23090000  1.0
  C  C257  1  0.24939000  0.52259000  0.39921000  1.0
  C  C258  1  0.77260000  0.58460000  0.27360000  1.0
  C  C259  1  0.80790000  0.04250000  0.44970000  1.0
  C  C260  1  0.71780000  0.54060000  0.18220000  1.0
  C  C261  1  0.26161000  0.46721000  0.86839000  1.0
  C  C262  1  0.05924000  0.82456000  0.52744000  1.0
  C  C263  1  0.92978000  0.40942000  0.20822000  1.0
  C  C264  1  0.45590000  0.92410000  0.76910000  1.0
  C  C265  1  0.81780000  0.28220000  0.44060000  1.0
  C  C266  1  0.92410000  0.85090000  0.76910000  1.0
  C  C267  1  0.13161000  0.73839000  0.59721000  1.0
  C  C268  1  0.04250000  0.80790000  0.69990000  1.0
  C  C269  1  0.63080000  0.41540000  0.72640000  1.0
  C  C270  1  0.19600000  0.52920000  0.38460000  1.0
  C  C271  1  0.85090000  0.92410000  0.45590000  1.0
  C  C272  1  0.55030000  0.19210000  0.30010000  1.0
  C  C273  1  0.52744000  0.05924000  0.82456000  1.0
  C  C274  1  0.23090000  0.07590000  0.54410000  1.0
  C  C275  1  0.82600000  0.75860000  0.99440000  1.0
  C  C276  1  0.28220000  0.81780000  0.45940000  1.0
  C  C277  1  0.40279000  0.26161000  0.86839000  1.0
  C  C278  1  0.97980000  0.48680000  0.34800000  1.0
  C  C279  1  0.18540000  0.97980000  0.34800000  1.0
  C  C280  1  0.17400000  0.57900000  0.00560000  1.0
  C  C281  1  0.33750000  0.45190000  0.16050000  1.0
  C  C282  1  0.24939000  0.39921000  0.82881000  1.0
  C  C283  1  0.94076000  0.47256000  0.17544000  1.0
  C  C284  1  0.24140000  0.17400000  0.00560000  1.0
  C  C285  1  0.13161000  0.59721000  0.53279000  1.0
  C  C286  1  0.44060000  0.28220000  0.45940000  1.0
  C  C287  1  0.39921000  0.82881000  0.24939000  1.0
  C  C288  1  0.27360000  0.58460000  0.36920000  1.0
  C  C289  1  0.04250000  0.69990000  0.44970000  1.0
  C  C290  1  0.47256000  0.17544000  0.94076000  1.0
  C  C291  1  0.45190000  0.05010000  0.16050000  1.0
  C  C292  1  0.27360000  0.77260000  0.58460000  1.0
  C  C293  1  0.55940000  0.18220000  0.54060000  1.0
  C  C294  1  0.95750000  0.55030000  0.30010000  1.0
  C  C295  1  0.86839000  0.46721000  0.40279000  1.0
  C  C296  1  0.38460000  0.19600000  0.52920000  1.0
  C  C297  1  0.17119000  0.60079000  0.75061000  1.0
  C  C298  1  0.65200000  0.51320000  0.02020000  1.0
  C  C299  1  0.99440000  0.75860000  0.42100000  1.0
  C  C300  1  0.61540000  0.47080000  0.80400000  1.0
  C  C301  1  0.54060000  0.18220000  0.71780000  1.0
  C  C302  1  0.00560000  0.24140000  0.17400000  1.0
  C  C303  1  0.00560000  0.57900000  0.24140000  1.0
  C  C304  1  0.57900000  0.00560000  0.17400000  1.0
  C  C305  1  0.09810000  0.27890000  0.14250000  1.0
  C  C306  1  0.90190000  0.72110000  0.51950000  1.0
  C  C307  1  0.45940000  0.81780000  0.44060000  1.0
  C  C308  1  0.09810000  0.48050000  0.27890000  1.0
  C  C309  1  0.75061000  0.60079000  0.47741000  1.0
  C  C310  1  0.33750000  0.05010000  0.45190000  1.0
  C  C311  1  0.05924000  0.52744000  0.58876000  1.0
  C  C312  1  0.47256000  0.41124000  0.17544000  1.0
  O  O1  1  0.78220000  0.32900000  0.64020000  1.0
  O  O2  1  0.72090000  0.38610000  0.56810000  1.0
  O  O3  1  0.72090000  0.32490000  0.38610000  1.0
  O  O4  1  0.27910000  0.43190000  0.61390000  1.0
  O  O5  1  0.32900000  0.24860000  0.64020000  1.0
  O  O6  1  0.38610000  0.32490000  0.56810000  1.0
  O  O7  1  0.56810000  0.32490000  0.72090000  1.0
  O  O8  1  0.35980000  0.75140000  0.67100000  1.0
  O  O9  1  0.78220000  0.24860000  0.32900000  1.0
  O  O10  1  0.72090000  0.56810000  0.32490000  1.0
  O  O11  1  0.43190000  0.61390000  0.27910000  1.0
  O  O12  1  0.21780000  0.35980000  0.67100000  1.0
  O  O13  1  0.56810000  0.38610000  0.32490000  1.0
  O  O14  1  0.24860000  0.32900000  0.78220000  1.0
  O  O15  1  0.24860000  0.78220000  0.64020000  1.0
  O  O16  1  0.38610000  0.72090000  0.32490000  1.0
  O  O17  1  0.67510000  0.27910000  0.61390000  1.0
  O  O18  1  0.75140000  0.67100000  0.35980000  1.0
  O  O19  1  0.61390000  0.43190000  0.67510000  1.0
  O  O20  1  0.64020000  0.32900000  0.24860000  1.0
  O  O21  1  0.32490000  0.38610000  0.72090000  1.0
  O  O22  1  0.21780000  0.67100000  0.75140000  1.0
  O  O23  1  0.43190000  0.67510000  0.61390000  1.0
  O  O24  1  0.32900000  0.78220000  0.24860000  1.0
  O  O25  1  0.43190000  0.27910000  0.67510000  1.0
  O  O26  1  0.67100000  0.21780000  0.35980000  1.0
  O  O27  1  0.27910000  0.61390000  0.67510000  1.0
  O  O28  1  0.35980000  0.21780000  0.75140000  1.0
  O  O29  1  0.75140000  0.21780000  0.67100000  1.0
  O  O30  1  0.67510000  0.61390000  0.43190000  1.0
  O  O31  1  0.56810000  0.72090000  0.38610000  1.0
  O  O32  1  0.64020000  0.24860000  0.78220000  1.0
  O  O33  1  0.32490000  0.72090000  0.56810000  1.0
  O  O34  1  0.61390000  0.67510000  0.27910000  1.0
  O  O35  1  0.61390000  0.27910000  0.43190000  1.0
  O  O36  1  0.78220000  0.64020000  0.24860000  1.0
  O  O37  1  0.75140000  0.35980000  0.21780000  1.0
  O  O38  1  0.32900000  0.64020000  0.78220000  1.0
  O  O39  1  0.24860000  0.64020000  0.32900000  1.0
  O  O40  1  0.32490000  0.56810000  0.38610000  1.0
  O  O41  1  0.35980000  0.67100000  0.21780000  1.0
  O  O42  1  0.67100000  0.35980000  0.75140000  1.0
  O  O43  1  0.64020000  0.78220000  0.32900000  1.0
  O  O44  1  0.38610000  0.56810000  0.72090000  1.0
  O  O45  1  0.67510000  0.43190000  0.27910000  1.0
  O  O46  1  0.67100000  0.75140000  0.21780000  1.0
  O  O47  1  0.27910000  0.67510000  0.43190000  1.0
  O  O48  1  0.21780000  0.75140000  0.35980000  1.0
