# generated using pymatgen
data_Cd3H38C64(NO6)2
_symmetry_space_group_name_H-M   'P 1'
_cell_length_a   16.21479000
_cell_length_b   17.27546000
_cell_length_c   18.30403000
_cell_angle_alpha   68.44550000
_cell_angle_beta   64.65876000
_cell_angle_gamma   64.08116000
_symmetry_Int_Tables_number   1
_chemical_formula_structural   Cd3H38C64(NO6)2
_chemical_formula_sum   'Cd6 H76 C128 N4 O24'
_cell_volume   4063.98320853
_cell_formula_units_Z   2
loop_
 _symmetry_equiv_pos_site_id
 _symmetry_equiv_pos_as_xyz
  1  'x, y, z'
loop_
 _atom_site_type_symbol
 _atom_site_label
 _atom_site_symmetry_multiplicity
 _atom_site_fract_x
 _atom_site_fract_y
 _atom_site_fract_z
 _atom_site_occupancy
  Cd  Cd1  1  0.53197000  0.21354000  0.54597000  1.0
  Cd  Cd2  1  0.44633000  0.29048000  0.75044000  1.0
  Cd  Cd3  1  0.36407000  0.38916000  0.93569000  1.0
  Cd  Cd4  1  0.46803000  0.78646000  0.45403000  1.0
  Cd  Cd5  1  0.55366000  0.70952000  0.24955000  1.0
  Cd  Cd6  1  0.63593000  0.61085000  0.06431000  1.0
  H  H1  1  0.51680000  0.38289000  0.38806000  1.0
  H  H2  1  0.47125000  0.42934000  0.26039000  1.0
  H  H3  1  0.51604000  0.15490000  0.28884000  1.0
  H  H4  1  0.55599000  0.12128000  0.41649000  1.0
  H  H5  1  0.52067000  0.42113000  0.12086000  1.0
  H  H6  1  0.46936000  0.44969000  0.99939000  1.0
  H  H7  1  0.34183000  0.25558000  0.11541000  1.0
  H  H8  1  0.38192000  0.22130000  0.24414000  1.0
  H  H9  1  0.67928000  0.27892000  0.68144000  1.0
  H  H10  1  0.76389000  0.35635000  0.70036000  1.0
  H  H11  1  0.68271000  0.57476000  0.50478000  1.0
  H  H12  1  0.59734000  0.49751000  0.48657000  1.0
  H  H13  1  0.90407000  0.40012000  0.62975000  1.0
  H  H14  1  0.93809000  0.64476000  0.59898000  1.0
  H  H15  1  0.67784000  0.64521000  0.58929000  1.0
  H  H16  1  0.05755000  0.35994000  0.57689000  1.0
  H  H17  1  0.21856000  0.27758000  0.59464000  1.0
  H  H18  1  0.18775000  0.48121000  0.69504000  1.0
  H  H19  1  0.02348000  0.56184000  0.68272000  1.0
  H  H20  1  0.83651000  0.76595000  0.64717000  1.0
  H  H21  1  0.75819000  0.92831000  0.63128000  1.0
  H  H22  1  0.59064000  0.92851000  0.50176000  1.0
  H  H23  1  0.67353000  0.76933000  0.51094000  1.0
  H  H24  1  0.64921000  0.29587000  0.92973000  1.0
  H  H25  1  0.81216000  0.21999000  0.94701000  1.0
  H  H26  1  0.88071000  0.04346000  0.79723000  1.0
  H  H27  1  0.71514000  0.11571000  0.78605000  1.0
  H  H28  1  0.97733000  0.19637000  0.87877000  1.0
  H  H29  1  0.21114000  0.95292000  0.90896000  1.0
  H  H30  1  0.95884000  0.95245000  0.88590000  1.0
  H  H31  1  0.11913000  0.24044000  0.80304000  1.0
  H  H32  1  0.20318000  0.32028000  0.81952000  1.0
  H  H33  1  0.28114000  0.10708000  0.01918000  1.0
  H  H34  1  0.20073000  0.02487000  0.00075000  1.0
  H  H35  1  0.27761000  0.85390000  0.82424000  1.0
  H  H36  1  0.35583000  0.69251000  0.83508000  1.0
  H  H37  1  0.08470000  0.65241000  0.98749000  1.0
  H  H38  1  0.00421000  0.81427000  0.97719000  1.0
  H  H39  1  0.48320000  0.61711000  0.61194000  1.0
  H  H40  1  0.52874000  0.57067000  0.73961000  1.0
  H  H41  1  0.48395000  0.84511000  0.71116000  1.0
  H  H42  1  0.44401000  0.87872000  0.58351000  1.0
  H  H43  1  0.47933000  0.57887000  0.87914000  1.0
  H  H44  1  0.53064000  0.55032000  0.00060000  1.0
  H  H45  1  0.65817000  0.74443000  0.88458000  1.0
  H  H46  1  0.61808000  0.77870000  0.75586000  1.0
  H  H47  1  0.32072000  0.72109000  0.31855000  1.0
  H  H48  1  0.23610000  0.64365000  0.29964000  1.0
  H  H49  1  0.31728000  0.42525000  0.49522000  1.0
  H  H50  1  0.40265000  0.50249000  0.51342000  1.0
  H  H51  1  0.09593000  0.59989000  0.37024000  1.0
  H  H52  1  0.06190000  0.35525000  0.40101000  1.0
  H  H53  1  0.32215000  0.35480000  0.41070000  1.0
  H  H54  1  0.94244000  0.64006000  0.42310000  1.0
  H  H55  1  0.78144000  0.72243000  0.40536000  1.0
  H  H56  1  0.81224000  0.51880000  0.30495000  1.0
  H  H57  1  0.97652000  0.43816000  0.31728000  1.0
  H  H58  1  0.16349000  0.23405000  0.35282000  1.0
  H  H59  1  0.24180000  0.07169000  0.36872000  1.0
  H  H60  1  0.40936000  0.07150000  0.49824000  1.0
  H  H61  1  0.32646000  0.23068000  0.48906000  1.0
  H  H62  1  0.35079000  0.70413000  0.07026000  1.0
  H  H63  1  0.18784000  0.78002000  0.05299000  1.0
  H  H64  1  0.11929000  0.95654000  0.20277000  1.0
  H  H65  1  0.28485000  0.88429000  0.21395000  1.0
  H  H66  1  0.02267000  0.80363000  0.12123000  1.0
  H  H67  1  0.78886000  0.04709000  0.09103000  1.0
  H  H68  1  0.04115000  0.04755000  0.11410000  1.0
  H  H69  1  0.88087000  0.75956000  0.19695000  1.0
  H  H70  1  0.79682000  0.67973000  0.18048000  1.0
  H  H71  1  0.71886000  0.89293000  0.98082000  1.0
  H  H72  1  0.79927000  0.97514000  0.99924000  1.0
  H  H73  1  0.72238000  0.14610000  0.17576000  1.0
  H  H74  1  0.64417000  0.30750000  0.16492000  1.0
  H  H75  1  0.91530000  0.34759000  0.01251000  1.0
  H  H76  1  0.99578000  0.18574000  0.02281000  1.0
  C  C1  1  0.51531000  0.33500000  0.36365000  1.0
  C  C2  1  0.49023000  0.36013000  0.29243000  1.0
  C  C3  1  0.48650000  0.29592000  0.26511000  1.0
  C  C4  1  0.51438000  0.20796000  0.30853000  1.0
  C  C5  1  0.53828000  0.18821000  0.37916000  1.0
  C  C6  1  0.45553000  0.31818000  0.19280000  1.0
  C  C7  1  0.47884000  0.38448000  0.12318000  1.0
  C  C8  1  0.45213000  0.39965000  0.05513000  1.0
  C  C9  1  0.38059000  0.29066000  0.12007000  1.0
  C  C10  1  0.40445000  0.27140000  0.19078000  1.0
  C  C11  1  0.58741000  0.33296000  0.56975000  1.0
  C  C12  1  0.63271000  0.38290000  0.58323000  1.0
  C  C13  1  0.67966000  0.34420000  0.64351000  1.0
  C  C14  1  0.72816000  0.38754000  0.65315000  1.0
  C  C15  1  0.73026000  0.47124000  0.60281000  1.0
  C  C16  1  0.68068000  0.51044000  0.54419000  1.0
  C  C17  1  0.63336000  0.46694000  0.53348000  1.0
  C  C18  1  0.78544000  0.51763000  0.60731000  1.0
  C  C19  1  0.87577000  0.47170000  0.61982000  1.0
  C  C20  1  0.93109000  0.51678000  0.61794000  1.0
  C  C21  1  0.89364000  0.60940000  0.60432000  1.0
  C  C22  1  0.80206000  0.65694000  0.59409000  1.0
  C  C23  1  0.74935000  0.60972000  0.59571000  1.0
  C  C24  1  0.02783000  0.46746000  0.62834000  1.0
  C  C25  1  0.08408000  0.38602000  0.60501000  1.0
  C  C26  1  0.17564000  0.34007000  0.61343000  1.0
  C  C27  1  0.21459000  0.37457000  0.64463000  1.0
  C  C28  1  0.15825000  0.45483000  0.66990000  1.0
  C  C29  1  0.06635000  0.50026000  0.66202000  1.0
  C  C30  1  0.31570000  0.32814000  0.64810000  1.0
  C  C31  1  0.76021000  0.75429000  0.58148000  1.0
  C  C32  1  0.78401000  0.80135000  0.61393000  1.0
  C  C33  1  0.73939000  0.89236000  0.60619000  1.0
  C  C34  1  0.66774000  0.93891000  0.56728000  1.0
  C  C35  1  0.64527000  0.89318000  0.53291000  1.0
  C  C36  1  0.69180000  0.80274000  0.53902000  1.0
  C  C37  1  0.61539000  0.03575000  0.56201000  1.0
  C  C38  1  0.57457000  0.25645000  0.84550000  1.0
  C  C39  1  0.67172000  0.21039000  0.85729000  1.0
  C  C40  1  0.70035000  0.24005000  0.90158000  1.0
  C  C41  1  0.79234000  0.19797000  0.91007000  1.0
  C  C42  1  0.85882000  0.12611000  0.87293000  1.0
  C  C43  1  0.82949000  0.09736000  0.82806000  1.0
  C  C44  1  0.73712000  0.13813000  0.82097000  1.0
  C  C45  1  0.95675000  0.08002000  0.88112000  1.0
  C  C46  1  0.00904000  0.12542000  0.88348000  1.0
  C  C47  1  0.10070000  0.08011000  0.89391000  1.0
  C  C48  1  0.14052000  0.98865000  0.90028000  1.0
  C  C49  1  0.09066000  0.94207000  0.89634000  1.0
  C  C50  1  0.99863000  0.98842000  0.88751000  1.0
  C  C51  1  0.15336000  0.12711000  0.90113000  1.0
  C  C52  1  0.15441000  0.21092000  0.85047000  1.0
  C  C53  1  0.20195000  0.25577000  0.85921000  1.0
  C  C54  1  0.24756000  0.21884000  0.92030000  1.0
  C  C55  1  0.24662000  0.13531000  0.97138000  1.0
  C  C56  1  0.20134000  0.08955000  0.96090000  1.0
  C  C57  1  0.29357000  0.26949000  0.93199000  1.0
  C  C58  1  0.13551000  0.84596000  0.90131000  1.0
  C  C59  1  0.23525000  0.81008000  0.86142000  1.0
  C  C60  1  0.27945000  0.71967000  0.86732000  1.0
  C  C61  1  0.22599000  0.66212000  0.91323000  1.0
  C  C62  1  0.12609000  0.69730000  0.95221000  1.0
  C  C63  1  0.08146000  0.78815000  0.94581000  1.0
  C  C64  1  0.27528000  0.56509000  0.91998000  1.0
  C  C65  1  0.48469000  0.66501000  0.63634000  1.0
  C  C66  1  0.50977000  0.63988000  0.70757000  1.0
  C  C67  1  0.51350000  0.70408000  0.73488000  1.0
  C  C68  1  0.48561000  0.79204000  0.69146000  1.0
  C  C69  1  0.46172000  0.81180000  0.62084000  1.0
  C  C70  1  0.54446000  0.68182000  0.80720000  1.0
  C  C71  1  0.52116000  0.61553000  0.87682000  1.0
  C  C72  1  0.54787000  0.60036000  0.94486000  1.0
  C  C73  1  0.61941000  0.70935000  0.87993000  1.0
  C  C74  1  0.59555000  0.72861000  0.80922000  1.0
  C  C75  1  0.41259000  0.66705000  0.43024000  1.0
  C  C76  1  0.36729000  0.61710000  0.41677000  1.0
  C  C77  1  0.32033000  0.65581000  0.35649000  1.0
  C  C78  1  0.27184000  0.61246000  0.34685000  1.0
  C  C79  1  0.26974000  0.52877000  0.39719000  1.0
  C  C80  1  0.31932000  0.48956000  0.45580000  1.0
  C  C81  1  0.36663000  0.53306000  0.46651000  1.0
  C  C82  1  0.21456000  0.48238000  0.39269000  1.0
  C  C83  1  0.12423000  0.52830000  0.38018000  1.0
  C  C84  1  0.06891000  0.48323000  0.38206000  1.0
  C  C85  1  0.10636000  0.39061000  0.39568000  1.0
  C  C86  1  0.19793000  0.34306000  0.40590000  1.0
  C  C87  1  0.25065000  0.39029000  0.40429000  1.0
  C  C88  1  0.97217000  0.53254000  0.37166000  1.0
  C  C89  1  0.91592000  0.61399000  0.39499000  1.0
  C  C90  1  0.82436000  0.65994000  0.38656000  1.0
  C  C91  1  0.78541000  0.62544000  0.35537000  1.0
  C  C92  1  0.84175000  0.54518000  0.33010000  1.0
  C  C93  1  0.93365000  0.49974000  0.33798000  1.0
  C  C94  1  0.68430000  0.67187000  0.35189000  1.0
  C  C95  1  0.23979000  0.24571000  0.41852000  1.0
  C  C96  1  0.21598000  0.19866000  0.38606000  1.0
  C  C97  1  0.26060000  0.10764000  0.39380000  1.0
  C  C98  1  0.33226000  0.06110000  0.43272000  1.0
  C  C99  1  0.35473000  0.10682000  0.46709000  1.0
  C  C100  1  0.30820000  0.19727000  0.46097000  1.0
  C  C101  1  0.38460000  0.96426000  0.43799000  1.0
  C  C102  1  0.42542000  0.74355000  0.15449000  1.0
  C  C103  1  0.32828000  0.78962000  0.14271000  1.0
  C  C104  1  0.29965000  0.75996000  0.09841000  1.0
  C  C105  1  0.20766000  0.80203000  0.08993000  1.0
  C  C106  1  0.14118000  0.87390000  0.12707000  1.0
  C  C107  1  0.17051000  0.90264000  0.17194000  1.0
  C  C108  1  0.26287000  0.86187000  0.17902000  1.0
  C  C109  1  0.04324000  0.91998000  0.11887000  1.0
  C  C110  1  0.99096000  0.87458000  0.11652000  1.0
  C  C111  1  0.89930000  0.91989000  0.10609000  1.0
  C  C112  1  0.85948000  0.01135000  0.09972000  1.0
  C  C113  1  0.90934000  0.05794000  0.10366000  1.0
  C  C114  1  0.00136000  0.01159000  0.11249000  1.0
  C  C115  1  0.84664000  0.87289000  0.09887000  1.0
  C  C116  1  0.84559000  0.78909000  0.14953000  1.0
  C  C117  1  0.79805000  0.74424000  0.14079000  1.0
  C  C118  1  0.75244000  0.78117000  0.07970000  1.0
  C  C119  1  0.75338000  0.86470000  0.02862000  1.0
  C  C120  1  0.79866000  0.91046000  0.03909000  1.0
  C  C121  1  0.70643000  0.73051000  0.06801000  1.0
  C  C122  1  0.86449000  0.15404000  0.09868000  1.0
  C  C123  1  0.76475000  0.18993000  0.13858000  1.0
  C  C124  1  0.72055000  0.28034000  0.13267000  1.0
  C  C125  1  0.77401000  0.33788000  0.08676000  1.0
  C  C126  1  0.87391000  0.30270000  0.04779000  1.0
  C  C127  1  0.91854000  0.21185000  0.05418000  1.0
  C  C128  1  0.72472000  0.43491000  0.08002000  1.0
  N  N1  1  0.53628000  0.25074000  0.40795000  1.0
  N  N2  1  0.40437000  0.35364000  0.05303000  1.0
  N  N3  1  0.46372000  0.74927000  0.59204000  1.0
  N  N4  1  0.59562000  0.64636000  0.94697000  1.0
  O  O1  1  0.57167000  0.35173000  0.50262000  1.0
  O  O2  1  0.56777000  0.26606000  0.62915000  1.0
  O  O3  1  0.34135000  0.36102000  0.68452000  1.0
  O  O4  1  0.36804000  0.26191000  0.61503000  1.0
  O  O5  1  0.65394000  0.08147000  0.57036000  1.0
  O  O6  1  0.53405000  0.06998000  0.54864000  1.0
  O  O7  1  0.54912000  0.21405000  0.81816000  1.0
  O  O8  1  0.52601000  0.33333333  0.85933000  1.0
  O  O9  1  0.32201000  0.32965000  0.86754000  1.0
  O  O10  1  0.30260000  0.25788000  0.00029000  1.0
  O  O11  1  0.22463000  0.51420000  0.95663000  1.0
  O  O12  1  0.36825000  0.53505000  0.88879000  1.0
  O  O13  1  0.42833000  0.64828000  0.49738000  1.0
  O  O14  1  0.43222000  0.73395000  0.37084000  1.0
  O  O15  1  0.65865000  0.63899000  0.31548000  1.0
  O  O16  1  0.63195000  0.73809000  0.38497000  1.0
  O  O17  1  0.34605000  0.91853000  0.42963000  1.0
  O  O18  1  0.46595000  0.93002000  0.45136000  1.0
  O  O19  1  0.45088000  0.78596000  0.18184000  1.0
  O  O20  1  0.47399000  0.66666667  0.14067000  1.0
  O  O21  1  0.67799000  0.67036000  0.13245000  1.0
  O  O22  1  0.69740000  0.74212000  0.99970000  1.0
  O  O23  1  0.77536000  0.48580000  0.04337000  1.0
  O  O24  1  0.63174000  0.46496000  0.11121000  1.0
