# generated using pymatgen
data_H30C53(N3O2)2
_symmetry_space_group_name_H-M   'P 1'
_cell_length_a   36.72780000
_cell_length_b   56.10750000
_cell_length_c   56.10750000
_cell_angle_alpha   60.00000000
_cell_angle_beta   90.00260000
_cell_angle_gamma   90.00000000
_symmetry_Int_Tables_number   1
_chemical_formula_structural   H30C53(N3O2)2
_chemical_formula_sum   'H180 C318 N36 O24'
_cell_volume   100130.72995636
_cell_formula_units_Z   6
loop_
 _symmetry_equiv_pos_site_id
 _symmetry_equiv_pos_as_xyz
  1  'x, y, z'
loop_
 _atom_site_type_symbol
 _atom_site_label
 _atom_site_symmetry_multiplicity
 _atom_site_fract_x
 _atom_site_fract_y
 _atom_site_fract_z
 _atom_site_occupancy
  H  25  1  0.62524600  0.04553500  0.45815800  1
  H  26  1  0.68472100  0.02665400  0.46128000  1
  H  27  1  0.74884600  0.01357600  0.46742200  1
  H  28  1  0.81330900  0.00766800  0.47422600  1
  H  29  1  0.82460300  0.09090800  0.45320300  1
  H  30  1  0.67237400  0.12114600  0.44164100  1
  H  31  1  0.73478600  0.11877800  0.38649600  1
  H  32  1  0.78897300  0.19527700  0.35521300  1
  H  33  1  0.79981400  0.18621700  0.40101000  1
  H  34  1  0.72444300  0.08978000  0.49890800  1
  H  35  1  0.79447300  0.17433000  0.44874900  1
  H  36  1  0.77440500  0.15984200  0.49453700  1
  H  66  1  0.62525100  0.45508800  0.48426900  1
  H  67  1  0.68473800  0.45821500  0.50001200  1
  H  68  1  0.74886800  0.46434700  0.50694600  1
  H  69  1  0.81333200  0.47112900  0.50605400  1
  H  70  1  0.82459900  0.45010400  0.44383700  1
  H  71  1  0.67234600  0.43858600  0.42515600  1
  H  72  1  0.73475000  0.38343200  0.48264600  1
  H  73  1  0.78892700  0.35215300  0.43742100  1
  H  74  1  0.79982800  0.39796500  0.40070400  1
  H  75  1  0.72443200  0.49585600  0.39924900  1
  H  76  1  0.79448400  0.44570600  0.36485600  1
  H  77  1  0.77442800  0.49151000  0.33355600  1
  H  107  1  0.62527900  0.48137700  0.04850400  1
  H  108  1  0.68477300  0.49707700  0.02962500  1
  H  109  1  0.74892600  0.50397200  0.01656400  1
  H  110  1  0.81340200  0.50310600  0.01071500  1
  H  111  1  0.82462300  0.44091500  0.09396700  1
  H  112  1  0.67235700  0.42227600  0.12413900  1
  H  113  1  0.73463100  0.47964400  0.12181700  1
  H  114  1  0.78895200  0.43447400  0.19827800  1
  H  115  1  0.79997800  0.39780400  0.18914400  1
  H  116  1  0.72427400  0.39626000  0.09287600  1
  H  117  1  0.79442900  0.36190400  0.17736400  1
  H  118  1  0.77417600  0.33056900  0.16297200  1
  H  148  1  0.12526500  0.94251300  0.53588000  1
  H  149  1  0.18476200  0.96143300  0.53258300  1
  H  150  1  0.24890700  0.97452500  0.52632400  1
  H  151  1  0.31338900  0.98036600  0.51963100  1
  H  152  1  0.32462100  0.89707400  0.54083400  1
  H  153  1  0.17234700  0.86686400  0.55246400  1
  H  154  1  0.23458300  0.86922200  0.60741200  1
  H  155  1  0.28900700  0.79280100  0.63873400  1
  H  156  1  0.30001300  0.80190900  0.59293800  1
  H  157  1  0.22414600  0.89806200  0.49515500  1
  H  158  1  0.29440900  0.81363800  0.54528600  1
  H  159  1  0.27405400  0.82795100  0.49960600  1
  H  189  1  0.12529200  0.53280500  0.50959800  1
  H  190  1  0.18477600  0.52965700  0.49386400  1
  H  191  1  0.24891500  0.52349800  0.48694100  1
  H  192  1  0.31339800  0.51684100  0.48774100  1
  H  193  1  0.32466700  0.53783900  0.54997400  1
  H  194  1  0.17240400  0.54927600  0.56873100  1
  H  195  1  0.23470300  0.60440700  0.51128000  1
  H  196  1  0.28910000  0.63567700  0.55643900  1
  H  197  1  0.30001300  0.58987000  0.59314300  1
  H  198  1  0.22416600  0.49212400  0.59469700  1
  H  199  1  0.29424300  0.54225600  0.62907300  1
  H  200  1  0.27394800  0.49655200  0.66041200  1
  H  230  1  0.12522700  0.50664300  0.94544100  1
  H  231  1  0.18470800  0.49084500  0.96430700  1
  H  232  1  0.24885300  0.48390200  0.97739500  1
  H  233  1  0.31333500  0.48468500  0.98326100  1
  H  234  1  0.32461300  0.54698700  0.90006200  1
  H  235  1  0.17236000  0.56586000  0.86988700  1
  H  236  1  0.23465400  0.50834700  0.87215200  1
  H  237  1  0.28911400  0.55352200  0.79575300  1
  H  238  1  0.30007500  0.59019500  0.80489900  1
  H  239  1  0.22414100  0.59171500  0.90109000  1
  H  240  1  0.29425100  0.62612800  0.81660500  1
  H  241  1  0.27398300  0.65744300  0.83099700  1
  H  253  1  0.02087300  0.90545500  0.56335600  1
  H  260  1  0.97931200  0.98501000  0.45755200  1
  H  261  1  0.92779400  0.01312100  0.43675600  1
  H  262  1  0.91672600  0.02557300  0.50464900  1
  H  263  1  0.08575500  0.94620700  0.49234700  1
  H  264  1  0.96977000  0.99825600  0.52493200  1
  H  265  1  0.04493100  0.98440700  0.47380400  1
  H  271  1  0.06170600  0.88195400  0.54268000  1
  H  272  1  0.87213400  0.03064900  0.44348200  1
  H  279  1  0.02091400  0.56015400  0.51928600  1
  H  286  1  0.97938600  0.45436900  0.54538400  1
  H  287  1  0.92786000  0.43359000  0.53804300  1
  H  288  1  0.91667600  0.50158900  0.45777500  1
  H  289  1  0.08579600  0.48916500  0.54940900  1
  H  290  1  0.96971600  0.52185800  0.46482100  1
  H  291  1  0.04494700  0.47067500  0.52973300  1
  H  297  1  0.06176000  0.53936700  0.56349600  1
  H  298  1  0.87213300  0.44039300  0.51382800  1
  H  305  1  0.02079400  0.51649500  0.90837700  1
  H  312  1  0.97947700  0.54241500  0.98820400  1
  H  313  1  0.92798000  0.53506900  0.01633300  1
  H  314  1  0.91665900  0.45487500  0.02846000  1
  H  315  1  0.08581300  0.54648300  0.94930600  1
  H  316  1  0.96968500  0.46191200  0.00114700  1
  H  317  1  0.04503400  0.52673500  0.98751200  1
  H  323  1  0.06173800  0.56068800  0.88501400  1
  H  324  1  0.87217800  0.51094200  0.03354000  1
  H  331  1  0.52088900  0.08262500  0.43078500  1
  H  338  1  0.47938900  0.00290000  0.53651400  1
  H  339  1  0.42788000  0.97478900  0.55727500  1
  H  340  1  0.41672800  0.96251200  0.48928800  1
  H  341  1  0.58578800  0.04174100  0.50177300  1
  H  342  1  0.46978300  0.98982300  0.46903100  1
  H  343  1  0.54500400  0.00354100  0.52022800  1
  H  349  1  0.56176500  0.10601700  0.45165600  1
  H  350  1  0.37214300  0.95753300  0.55037100  1
  H  357  1  0.52087300  0.42779500  0.47452200  1
  H  364  1  0.47944100  0.53355900  0.44842500  1
  H  365  1  0.42792900  0.55436300  0.45573500  1
  H  366  1  0.41674700  0.48640900  0.53603400  1
  H  367  1  0.58585100  0.49874400  0.44442400  1
  H  368  1  0.46978300  0.46611800  0.52900500  1
  H  369  1  0.54504000  0.51725400  0.46412000  1
  H  375  1  0.56173500  0.44858400  0.43031300  1
  H  376  1  0.37222800  0.54762000  0.47995600  1
  H  383  1  0.52084300  0.47172100  0.08553000  1
  H  390  1  0.47941100  0.44546400  0.00593500  1
  H  391  1  0.42791300  0.45274600  0.97780700  1
  H  392  1  0.41663800  0.53305200  0.96542400  1
  H  393  1  0.58579100  0.44154500  0.04474700  1
  H  394  1  0.46965000  0.52606200  0.99274900  1
  H  395  1  0.54494700  0.46116300  0.00657100  1
  H  401  1  0.56172200  0.42754900  0.10900800  1
  H  402  1  0.37222000  0.47693900  0.96030200  1
  H  409  1  0.75757400  0.27167500  0.14935400  1
  H  416  1  0.67217800  0.22397200  0.24654300  1
  H  417  1  0.67346300  0.18650000  0.29294600  1
  H  418  1  0.78840100  0.18927000  0.29180100  1
  H  419  1  0.69202600  0.31513000  0.17635800  1
  H  420  1  0.78698300  0.22703400  0.24580300  1
  H  421  1  0.69555500  0.27740800  0.22255500  1
  H  427  1  0.71037800  0.31236900  0.11865800  1
  H  428  1  0.71245800  0.14925700  0.33262800  1
  H  435  1  0.75781400  0.14628700  0.56702800  1
  H  442  1  0.67229500  0.24341800  0.51752400  1
  H  443  1  0.67353100  0.28983300  0.50856100  1
  H  444  1  0.78847100  0.28875400  0.50688900  1
  H  445  1  0.69222500  0.17319200  0.49660500  1
  H  446  1  0.78709900  0.24274100  0.51515600  1
  H  447  1  0.69568800  0.21940300  0.48809300  1
  H  453  1  0.71074000  0.11551000  0.55709700  1
  H  454  1  0.71247900  0.32954300  0.50608300  1
  H  461  1  0.75769200  0.56402300  0.27457800  1
  H  468  1  0.67217800  0.51432700  0.22711400  1
  H  469  1  0.67337600  0.50537100  0.18965900  1
  H  470  1  0.78832900  0.50396900  0.19219000  1
  H  471  1  0.69228000  0.49351400  0.31819700  1
  H  472  1  0.78699400  0.51222000  0.22994500  1
  H  473  1  0.69570200  0.48499400  0.28050100  1
  H  479  1  0.71076400  0.55406900  0.31532800  1
  H  480  1  0.71212800  0.50280400  0.15245200  1
  H  487  1  0.25705900  0.71634800  0.84456600  1
  H  494  1  0.17189700  0.76387100  0.74724700  1
  H  495  1  0.17319900  0.80135000  0.70084800  1
  H  496  1  0.28815200  0.79885300  0.70218000  1
  H  497  1  0.19188800  0.67278100  0.81747900  1
  H  498  1  0.28671800  0.76107200  0.74817000  1
  H  499  1  0.19544300  0.71050300  0.77128600  1
  H  505  1  0.20987900  0.67560500  0.87518400  1
  H  506  1  0.21201900  0.83858000  0.66119600  1
  H  513  1  0.25725500  0.84152900  0.42706800  1
  H  520  1  0.17203900  0.74423200  0.47684400  1
  H  521  1  0.17332100  0.69783800  0.48576100  1
  H  522  1  0.28827200  0.69913400  0.48693500  1
  H  523  1  0.19200200  0.81446200  0.49767700  1
  H  524  1  0.28685900  0.74512100  0.47873200  1
  H  525  1  0.19556600  0.76826700  0.50615600  1
  H  531  1  0.21009700  0.87217200  0.43715300  1
  H  532  1  0.21208200  0.65815700  0.48822300  1
  H  539  1  0.25734500  0.42410600  0.71924800  1
  H  546  1  0.17205200  0.47358200  0.76699700  1
  H  547  1  0.17337300  0.48252600  0.80445900  1
  H  548  1  0.28831000  0.48417900  0.80162700  1
  H  549  1  0.19179000  0.49456700  0.67583000  1
  H  550  1  0.28685600  0.47592800  0.76387000  1
  H  551  1  0.19538400  0.50304800  0.71354400  1
  H  557  1  0.20998300  0.43412700  0.67858100  1
  H  558  1  0.21236300  0.48500800  0.84164800  1
  C  1  1  0.75320600  0.11508500  0.46212400  1
  C  2  1  0.77225300  0.13992500  0.44767800  1
  C  3  1  0.77510300  0.14671600  0.42040700  1
  C  4  1  0.75698500  0.12676800  0.41673700  1
  C  5  1  0.74964700  0.13240700  0.38955500  1
  C  6  1  0.76118900  0.15779100  0.36673800  1
  C  7  1  0.78114700  0.17663600  0.37135200  1
  C  8  1  0.78782300  0.17143900  0.39811500  1
  C  9  1  0.78099700  0.15606000  0.45961300  1
  C  10  1  0.76840100  0.14775400  0.48625700  1
  C  11  1  0.74638000  0.12400700  0.50058400  1
  C  12  1  0.74021500  0.10704300  0.48884000  1
  C  13  1  0.70989800  0.09060200  0.44633700  1
  C  14  1  0.71289300  0.06318300  0.45260300  1
  C  15  1  0.74930700  0.05587000  0.45573400  1
  C  16  1  0.77054100  0.07835300  0.45162800  1
  C  17  1  0.76468900  0.03002300  0.46374900  1
  C  18  1  0.80246000  0.02675200  0.46767100  1
  C  19  1  0.82516900  0.04900700  0.46333800  1
  C  20  1  0.80883000  0.07484000  0.45564200  1
  C  21  1  0.67476100  0.10150000  0.44512100  1
  C  22  1  0.64326200  0.08489200  0.45013800  1
  C  23  1  0.64734100  0.05772000  0.45510200  1
  C  24  1  0.68212400  0.04665100  0.45661000  1
  C  37  1  0.74682900  0.10286300  0.44414300  1
  C  42  1  0.75318200  0.45906800  0.41072200  1
  C  43  1  0.77222500  0.44462200  0.40032400  1
  C  44  1  0.77506900  0.41734700  0.42080100  1
  C  45  1  0.75694700  0.41367600  0.44441800  1
  C  46  1  0.74965900  0.38649200  0.46598000  1
  C  47  1  0.76108400  0.36368500  0.46335500  1
  C  48  1  0.78109500  0.36829200  0.43992300  1
  C  49  1  0.78775000  0.39505700  0.41835400  1
  C  50  1  0.78094200  0.45655500  0.37225000  1
  C  51  1  0.76839900  0.48321800  0.35392100  1
  C  52  1  0.74637600  0.49754100  0.36334500  1
  C  53  1  0.74019800  0.48578700  0.39205200  1
  C  54  1  0.70989000  0.44328000  0.45099600  1
  C  55  1  0.71289300  0.44955900  0.47214100  1
  C  56  1  0.74931000  0.45267400  0.47632600  1
  C  57  1  0.77053500  0.44857600  0.45794000  1
  C  58  1  0.76470100  0.46068500  0.49415900  1
  C  59  1  0.80247500  0.46458200  0.49352000  1
  C  60  1  0.82517900  0.46024000  0.47560300  1
  C  61  1  0.80883000  0.45255300  0.45746200  1
  C  62  1  0.67474500  0.44207200  0.44131900  1
  C  63  1  0.64325100  0.44708200  0.45291800  1
  C  64  1  0.64734400  0.45204600  0.47512600  1
  C  65  1  0.68213200  0.45357200  0.48466500  1
  C  78  1  0.74681400  0.44108300  0.44092500  1
  C  83  1  0.75325500  0.40777000  0.11807200  1
  C  84  1  0.77247200  0.39740700  0.14284300  1
  C  85  1  0.77512200  0.41785800  0.14969700  1
  C  86  1  0.75693500  0.44145700  0.12977300  1
  C  87  1  0.74953100  0.46297600  0.13543500  1
  C  88  1  0.76099000  0.46037100  0.16085100  1
  C  89  1  0.78105600  0.43696000  0.17965600  1
  C  90  1  0.78779700  0.41542100  0.17443300  1
  C  91  1  0.78093300  0.36929700  0.15910200  1
  C  92  1  0.76826300  0.35094400  0.15083700  1
  C  93  1  0.74623600  0.36036600  0.12709300  1
  C  94  1  0.74012000  0.38907500  0.11010400  1
  C  95  1  0.70990900  0.44800700  0.09355500  1
  C  96  1  0.71292300  0.46917200  0.06614200  1
  C  97  1  0.74934100  0.47336100  0.05885700  1
  C  98  1  0.77055900  0.45499300  0.08135500  1
  C  99  1  0.76475200  0.49119700  0.03302600  1
  C  100  1  0.80253400  0.49057500  0.02979100  1
  C  101  1  0.82523600  0.47268600  0.05207000  1
  C  102  1  0.80886100  0.45453100  0.07788400  1
  C  103  1  0.67476100  0.43839900  0.10447000  1
  C  104  1  0.64326800  0.45002500  0.08786400  1
  C  105  1  0.64736800  0.47220600  0.06068100  1
  C  106  1  0.68216200  0.48171200  0.04960500  1
  C  119  1  0.74683100  0.43796500  0.10585500  1
  C  124  1  0.25323300  0.87294300  0.53182600  1
  C  125  1  0.27248600  0.84818800  0.54623200  1
  C  126  1  0.27518100  0.84136500  0.57352800  1
  C  127  1  0.25702600  0.86130700  0.57719300  1
  C  128  1  0.24953300  0.85562100  0.60436900  1
  C  129  1  0.26105600  0.83023400  0.62719000  1
  C  130  1  0.28111700  0.81142200  0.62259300  1
  C  131  1  0.28785300  0.81663200  0.59583500  1
  C  132  1  0.28095400  0.83191500  0.53440000  1
  C  133  1  0.26817900  0.84011400  0.50782200  1
  C  134  1  0.24611400  0.86383700  0.49350000  1
  C  135  1  0.24002500  0.88085500  0.50519100  1
  C  136  1  0.20990700  0.89746600  0.54756200  1
  C  137  1  0.21291300  0.92492100  0.54117700  1
  C  138  1  0.24932900  0.93221000  0.53808700  1
  C  139  1  0.27055300  0.90969800  0.54226100  1
  C  140  1  0.26473700  0.95805400  0.53004800  1
  C  141  1  0.30252000  0.96128400  0.52620200  1
  C  142  1  0.32522500  0.93899100  0.53064100  1
  C  143  1  0.30885600  0.91316800  0.53833800  1
  C  144  1  0.17475600  0.88655400  0.54885800  1
  C  145  1  0.14326000  0.90315200  0.54389100  1
  C  146  1  0.14736000  0.93034600  0.53886100  1
  C  147  1  0.18215400  0.94144400  0.53722700  1
  C  160  1  0.24683000  0.88518400  0.54978200  1
  C  165  1  0.25341000  0.52872900  0.58315400  1
  C  166  1  0.27249100  0.54317200  0.59354600  1
  C  167  1  0.27499600  0.57049800  0.57312300  1
  C  168  1  0.25698800  0.57416200  0.54947100  1
  C  169  1  0.24956300  0.60134400  0.52796900  1
  C  170  1  0.26112900  0.62415500  0.53053800  1
  C  171  1  0.28122900  0.61954700  0.55393600  1
  C  172  1  0.28783700  0.59278000  0.57552400  1
  C  173  1  0.28085300  0.53135500  0.62166700  1
  C  174  1  0.26817600  0.50474100  0.64002100  1
  C  175  1  0.24610300  0.49044400  0.63059600  1
  C  176  1  0.24006100  0.50214200  0.60188000  1
  C  177  1  0.20994500  0.54450500  0.54293800  1
  C  178  1  0.21294000  0.53820100  0.52181100  1
  C  179  1  0.24935900  0.53518500  0.51755000  1
  C  180  1  0.27059600  0.53933800  0.53589500  1
  C  181  1  0.26475600  0.52721000  0.49969200  1
  C  182  1  0.30254200  0.52339600  0.50026900  1
  C  183  1  0.32525500  0.52777700  0.51815800  1
  C  184  1  0.30889700  0.53540400  0.53634100  1
  C  185  1  0.17480500  0.54572200  0.55261200  1
  C  186  1  0.14330300  0.54075200  0.54098800  1
  C  187  1  0.14738700  0.53579500  0.51877400  1
  C  188  1  0.18217600  0.53424400  0.50924900  1
  C  201  1  0.24687900  0.54675100  0.55297300  1
  C  206  1  0.25340500  0.58019200  0.87602300  1
  C  207  1  0.27248900  0.59058900  0.85118600  1
  C  208  1  0.27495800  0.57018800  0.84425700  1
  C  209  1  0.25685700  0.54656200  0.86419900  1
  C  210  1  0.24950600  0.52504100  0.85853200  1
  C  211  1  0.26107800  0.52762600  0.83314700  1
  C  212  1  0.28113600  0.55104800  0.81435500  1
  C  213  1  0.28780400  0.57260300  0.81957200  1
  C  214  1  0.28095600  0.61870100  0.83494900  1
  C  215  1  0.26820000  0.63705300  0.84318700  1
  C  216  1  0.24609700  0.62762500  0.86689100  1
  C  217  1  0.24002800  0.59891200  0.88388300  1
  C  218  1  0.20988800  0.54000000  0.90042600  1
  C  219  1  0.21288000  0.51883100  0.92783700  1
  C  220  1  0.24930200  0.51453300  0.93511000  1
  C  221  1  0.27054200  0.53289600  0.91262400  1
  C  222  1  0.26470200  0.49662800  0.96092700  1
  C  223  1  0.30248500  0.49722200  0.96417900  1
  C  224  1  0.32519800  0.51513100  0.94192200  1
  C  225  1  0.30884300  0.53333600  0.91611800  1
  C  226  1  0.17475300  0.54971200  0.88954700  1
  C  227  1  0.14324900  0.53808300  0.90613600  1
  C  228  1  0.14732700  0.51582800  0.93328300  1
  C  229  1  0.18211000  0.50626100  0.94434800  1
  C  242  1  0.24682100  0.55002200  0.88814600  1
  C  247  1  0.05820700  0.92264900  0.53030400  1
  C  248  1  0.06439300  0.94594400  0.50417900  1
  C  249  1  0.03996200  0.96835000  0.49317000  1
  C  250  1  0.00780900  0.96808200  0.50734200  1
  C  251  1  0.00160900  0.94473800  0.53383100  1
  C  252  1  0.02689300  0.92264300  0.54494800  1
  C  254  1  0.98024600  0.98877700  0.49338700  1
  C  255  1  0.96768800  0.99450400  0.46719400  1
  C  256  1  0.93691700  0.01115800  0.45489600  1
  C  257  1  0.91694000  0.02273300  0.46826700  1
  C  258  1  0.93054800  0.01822100  0.49383600  1
  C  259  1  0.96173300  0.00178900  0.50598700  1
  C  269  1  0.88245900  0.03388400  0.45807400  1
  C  270  1  0.07691200  0.89799500  0.53921700  1
  C  273  1  0.05829700  0.52713400  0.53506700  1
  C  274  1  0.06441700  0.50101200  0.53787200  1
  C  275  1  0.03998100  0.49003000  0.52645100  1
  C  276  1  0.00782800  0.50421700  0.51255100  1
  C  277  1  0.00163400  0.53067900  0.50947600  1
  C  278  1  0.02693100  0.54175300  0.52049000  1
  C  280  1  0.98022900  0.49027700  0.50582900  1
  C  281  1  0.96771900  0.46405600  0.52626200  1
  C  282  1  0.93693200  0.45177700  0.52190200  1
  C  283  1  0.91694900  0.46516300  0.49696000  1
  C  284  1  0.93055300  0.49073500  0.47591000  1
  C  285  1  0.96169500  0.50290200  0.48022300  1
  C  295  1  0.88246600  0.45497200  0.49600000  1
  C  296  1  0.07697700  0.53597700  0.55087100  1
  C  299  1  0.05821200  0.53221100  0.92565200  1
  C  300  1  0.06446600  0.53491300  0.94901600  1
  C  301  1  0.04003500  0.52348800  0.97141900  1
  C  302  1  0.00785300  0.50962100  0.97112500  1
  C  303  1  0.00160900  0.50659400  0.94771200  1
  C  304  1  0.02689000  0.51759800  0.92561800  1
  C  306  1  0.98028700  0.50287900  0.99181200  1
  C  307  1  0.96786700  0.52327600  0.99768400  1
  C  308  1  0.93708300  0.51891300  0.01432900  1
  C  309  1  0.91703700  0.49399700  0.02583400  1
  C  310  1  0.93058600  0.47298100  0.02123700  1
  C  311  1  0.96172100  0.47729000  0.00475400  1
  C  321  1  0.88251200  0.49307000  0.03690700  1
  C  322  1  0.07693400  0.54802900  0.90102500  1
  C  325  1  0.55822800  0.06538000  0.46382300  1
  C  326  1  0.56443400  0.04203800  0.48991500  1
  C  327  1  0.54000500  0.01963000  0.50088700  1
  C  328  1  0.50786300  0.01991300  0.48669200  1
  C  329  1  0.50165300  0.04330200  0.46023500  1
  C  330  1  0.52692000  0.06540500  0.44916700  1
  C  332  1  0.48031800  0.99920400  0.50063500  1
  C  333  1  0.46781200  0.99339700  0.52686500  1
  C  334  1  0.43701800  0.97676300  0.53913400  1
  C  335  1  0.41702800  0.96521100  0.52574100  1
  C  336  1  0.43060000  0.96979800  0.50013900  1
  C  337  1  0.46174800  0.98626800  0.48798400  1
  C  347  1  0.38249200  0.95415200  0.53588000  1
  C  348  1  0.57695500  0.09000300  0.45501100  1
  C  351  1  0.55824800  0.46081900  0.45874000  1
  C  352  1  0.56446900  0.48691500  0.45597000  1
  C  353  1  0.54004900  0.49790500  0.46738900  1
  C  354  1  0.50787200  0.48374200  0.48125600  1
  C  355  1  0.50164200  0.45727600  0.48435000  1
  C  356  1  0.52691400  0.44617900  0.47334700  1
  C  358  1  0.48031800  0.49769200  0.48800600  1
  C  359  1  0.46779300  0.52390500  0.46755300  1
  C  360  1  0.43702600  0.53620700  0.47190700  1
  C  361  1  0.41701900  0.52282000  0.49683700  1
  C  362  1  0.43059200  0.49723200  0.51788100  1
  C  363  1  0.46177300  0.48507700  0.51360300  1
  C  373  1  0.38254400  0.53302200  0.49778600  1
  C  374  1  0.57694200  0.45195100  0.44295800  1
  C  377  1  0.55825800  0.45592300  0.06832800  1
  C  378  1  0.56440100  0.45308300  0.04503300  1
  C  379  1  0.53996700  0.46446800  0.02262900  1
  C  380  1  0.50779800  0.47836100  0.02289200  1
  C  381  1  0.50158200  0.48147000  0.04625600  1
  C  382  1  0.52687600  0.47049400  0.06834500  1
  C  384  1  0.48020300  0.48504300  0.00223400  1
  C  385  1  0.46772800  0.46457900  0.99647900  1
  C  386  1  0.43695500  0.46890300  0.97983700  1
  C  387  1  0.41695100  0.49383900  0.96824300  1
  C  388  1  0.43052100  0.51491900  0.97273500  1
  C  389  1  0.46165000  0.51063900  0.98922200  1
  C  399  1  0.38249800  0.49478200  0.95705300  1
  C  400  1  0.57693600  0.44015200  0.09298400  1
  C  403  1  0.72533600  0.29721400  0.15860900  1
  C  404  1  0.70717800  0.29825300  0.18025300  1
  C  405  1  0.70901300  0.27589900  0.20739700  1
  C  406  1  0.72879900  0.25174000  0.21378900  1
  C  407  1  0.74703600  0.25049000  0.19207600  1
  C  408  1  0.74497700  0.27313700  0.16486000  1
  C  410  1  0.72945000  0.22917000  0.24148000  1
  C  411  1  0.69686700  0.21680200  0.25585000  1
  C  412  1  0.69763800  0.19443700  0.28306400  1
  C  413  1  0.73105200  0.18378400  0.29691200  1
  C  414  1  0.76364800  0.19607000  0.28243600  1
  C  415  1  0.76284200  0.21836400  0.25527000  1
  C  425  1  0.73154000  0.16371400  0.32468100  1
  C  426  1  0.72146400  0.31787000  0.13130700  1
  C  429  1  0.72555700  0.15548700  0.53225900  1
  C  430  1  0.70736600  0.17710800  0.50957400  1
  C  431  1  0.70916300  0.20426200  0.50476300  1
  C  432  1  0.72894500  0.21068900  0.52250700  1
  C  433  1  0.74720800  0.18899700  0.54547400  1
  C  434  1  0.74518000  0.16177300  0.55006900  1
  C  436  1  0.72957000  0.23838900  0.51736000  1
  C  437  1  0.69697300  0.25274500  0.51536200  1
  C  438  1  0.69772000  0.27996400  0.51049800  1
  C  439  1  0.73111900  0.29383200  0.50727500  1
  C  440  1  0.76372800  0.27937800  0.50945300  1
  C  441  1  0.76294800  0.25220400  0.51434400  1
  C  451  1  0.73156700  0.32160500  0.49956600  1
  C  452  1  0.72174500  0.12817500  0.53892100  1
  C  455  1  0.72552700  0.52921200  0.30019500  1
  C  456  1  0.70736600  0.50650600  0.30128600  1
  C  457  1  0.70914700  0.50168600  0.27894800  1
  C  458  1  0.72886000  0.51945100  0.25475000  1
  C  459  1  0.74708100  0.54244600  0.25344500  1
  C  460  1  0.74508400  0.54704400  0.27607400  1
  C  462  1  0.72946300  0.51429100  0.23220300  1
  C  463  1  0.69685100  0.51221700  0.21990700  1
  C  464  1  0.69757200  0.50734200  0.19755800  1
  C  465  1  0.73096100  0.50418600  0.18685500  1
  C  466  1  0.76358700  0.50645800  0.19905800  1
  C  467  1  0.76283100  0.51136400  0.22133200  1
  C  477  1  0.73141200  0.49654300  0.16674200  1
  C  478  1  0.72175000  0.53588400  0.32084200  1
  C  481  1  0.22502000  0.69074500  0.83527300  1
  C  482  1  0.20695200  0.68968800  0.81360600  1
  C  483  1  0.20881800  0.71203800  0.78646000  1
  C  484  1  0.22850800  0.73622900  0.78009200  1
  C  485  1  0.24662000  0.73751100  0.80183200  1
  C  486  1  0.24453400  0.71486900  0.82904500  1
  C  488  1  0.22917300  0.75879500  0.75239800  1
  C  489  1  0.19659200  0.77108800  0.73797500  1
  C  490  1  0.19737100  0.79344300  0.71075300  1
  C  491  1  0.23079500  0.80417200  0.69696300  1
  C  492  1  0.26338900  0.79198200  0.71149800  1
  C  493  1  0.26257200  0.76967900  0.73866200  1
  C  503  1  0.23132100  0.82430200  0.66921100  1
  C  504  1  0.22109200  0.67010500  0.86257300  1
  C  507  1  0.22516800  0.83224500  0.46193600  1
  C  508  1  0.20710200  0.81058300  0.48466400  1
  C  509  1  0.20895900  0.78343800  0.48945700  1
  C  510  1  0.22866600  0.77706200  0.47164600  1
  C  511  1  0.24680800  0.79879600  0.44863700  1
  C  512  1  0.24473300  0.82601000  0.44406800  1
  C  514  1  0.22932000  0.74937000  0.47676600  1
  C  515  1  0.19673100  0.73495600  0.47889100  1
  C  516  1  0.19749900  0.70774500  0.48373300  1
  C  517  1  0.23091200  0.69394100  0.48679500  1
  C  518  1  0.26351200  0.70846200  0.48447600  1
  C  519  1  0.26271100  0.73562300  0.47962000  1
  C  529  1  0.23141900  0.66618000  0.49445000  1
  C  530  1  0.22125000  0.85954600  0.45528300  1
  C  533  1  0.22508900  0.45889500  0.69373200  1
  C  534  1  0.20695500  0.48158500  0.69269600  1
  C  535  1  0.20883100  0.48637800  0.71504800  1
  C  536  1  0.22864200  0.46861300  0.73919500  1
  C  537  1  0.24686200  0.44564900  0.74043600  1
  C  538  1  0.24475200  0.44106800  0.71780000  1
  C  540  1  0.22932000  0.47373800  0.76176200  1
  C  541  1  0.19675000  0.47573200  0.77414800  1
  C  542  1  0.19754300  0.48058900  0.79650800  1
  C  543  1  0.23097000  0.48380300  0.80713200  1
  C  544  1  0.26355300  0.48162300  0.79483000  1
  C  545  1  0.26272500  0.47674000  0.77254200  1
  C  555  1  0.23146000  0.49150200  0.82720400  1
  C  556  1  0.22116500  0.45224600  0.67308300  1
  N  38  1  0.86068200  0.04369700  0.46915400  1
  N  39  1  0.73091600  0.11688200  0.52467000  1
  N  40  1  0.75276700  0.16757300  0.34056400  1
  N  41  1  0.61107400  0.09565200  0.45016400  1
  N  79  1  0.86069600  0.46604700  0.47510000  1
  N  80  1  0.73092800  0.52163600  0.34638500  1
  N  81  1  0.75273300  0.33750300  0.47978600  1
  N  82  1  0.61105500  0.44709300  0.44215000  1
  N  120  1  0.86075900  0.47216300  0.04680300  1
  N  121  1  0.73067600  0.34340600  0.12000600  1
  N  122  1  0.75267700  0.47682000  0.17058900  1
  N  123  1  0.61105800  0.43931000  0.09864200  1
  N  161  1  0.36075400  0.94424900  0.52486900  1
  N  162  1  0.23048500  0.87087400  0.46948800  1
  N  163  1  0.25265900  0.82046900  0.65336700  1
  N  164  1  0.11104400  0.89235700  0.54400300  1
  N  202  1  0.36076000  0.52194600  0.51867400  1
  N  203  1  0.23043100  0.46644600  0.64755600  1
  N  204  1  0.25277600  0.65034200  0.51411700  1
  N  205  1  0.11109600  0.54079000  0.55172000  1
  N  243  1  0.36069700  0.51565900  0.94725000  1
  N  244  1  0.23038400  0.64458200  0.87391600  1
  N  245  1  0.25269200  0.51123800  0.82335000  1
  N  246  1  0.11105500  0.54885300  0.89537600  1
  N  266  1  0.96871000  0.94239900  0.54804600  1
  N  292  1  0.96873200  0.54490600  0.49762800  1
  N  318  1  0.96866700  0.49479100  0.94532800  1
  N  344  1  0.46875700  0.04566800  0.44600700  1
  N  370  1  0.46872400  0.44307700  0.49619100  1
  N  396  1  0.46866100  0.49331100  0.04861300  1
  N  422  1  0.76560400  0.22612500  0.19758100  1
  N  448  1  0.76577900  0.19453500  0.56431200  1
  N  474  1  0.76558100  0.56130800  0.22904300  1
  N  500  1  0.26509100  0.76190400  0.79635300  1
  N  526  1  0.26528700  0.79331400  0.42972900  1
  N  552  1  0.26546900  0.42679800  0.76478300  1
  O  267  1  0.97458600  0.93982100  0.57128900  1
  O  268  1  0.94976000  0.92242100  0.55105200  1
  O  293  1  0.97459900  0.56816900  0.47699100  1
  O  294  1  0.94979600  0.54787200  0.51463200  1
  O  319  1  0.97447200  0.47416900  0.94266300  1
  O  320  1  0.94973200  0.51183200  0.92538100  1
  O  345  1  0.47463500  0.04831000  0.42273800  1
  O  346  1  0.44979000  0.06561800  0.44305400  1
  O  371  1  0.47457000  0.41981100  0.51683300  1
  O  372  1  0.44977700  0.44011800  0.47918900  1
  O  397  1  0.47449900  0.51397100  0.05120900  1
  O  398  1  0.44973300  0.47631400  0.06859100  1
  O  423  1  0.79874400  0.23064200  0.19135200  1
  O  424  1  0.75169000  0.21532500  0.18478500  1
  O  449  1  0.79892600  0.18832300  0.56601500  1
  O  450  1  0.75188600  0.18174600  0.58791700  1
  O  475  1  0.79873300  0.56305600  0.23350800  1
  O  476  1  0.75163100  0.58489100  0.21824300  1
  O  501  1  0.29822100  0.75743400  0.80263700  1
  O  502  1  0.25105500  0.77268900  0.80912200  1
  O  527  1  0.29842000  0.79958300  0.42793200  1
  O  528  1  0.25126800  0.80609100  0.40616800  1
  O  553  1  0.29860000  0.42509300  0.76023500  1
  O  554  1  0.25156700  0.40319700  0.77560500  1
