# generated using pymatgen
data_H7C14N4O7
_symmetry_space_group_name_H-M   'P 1'
_cell_length_a   24.07845000
_cell_length_b   24.07845000
_cell_length_c   27.56040000
_cell_angle_alpha   90.00000000
_cell_angle_beta   90.00000000
_cell_angle_gamma   120.00000000
_symmetry_Int_Tables_number   1
_chemical_formula_structural   H7C14N4O7
_chemical_formula_sum   'H42 C84 N24 O42'
_cell_volume   13837.99602489
_cell_formula_units_Z   6
loop_
 _symmetry_equiv_pos_site_id
 _symmetry_equiv_pos_as_xyz
  1  'x, y, z'
loop_
 _atom_site_type_symbol
 _atom_site_label
 _atom_site_symmetry_multiplicity
 _atom_site_fract_x
 _atom_site_fract_y
 _atom_site_fract_z
 _atom_site_occupancy
  C  1  1  0.42792400  0.48190100  0.01075900  1
  C  2  1  0.43558150  0.51524350  0.96692700  1
  C  3  1  0.41508750  0.56052950  0.96306900  1
  C  4  1  0.37835950  0.56454150  0.00133700  1
  C  5  1  0.36005950  0.52329350  0.04201700  1
  C  6  1  0.39289300  0.48867800  0.04931400  1
  C  9  1  0.45701700  0.44389500  0.01512400  1
  C  10  1  0.44448750  0.39546850  0.98067350  1
  C  11  1  0.47720600  0.36037000  0.98305000  1
  C  12  1  0.52135400  0.37425100  0.02133600  1
  C  13  1  0.53601500  0.42325300  0.05578000  1
  C  14  1  0.50231900  0.45707400  0.05217300  1
  C  29  1  0.00634050  0.52545750  0.34388200  1
  C  30  1  0.03219600  0.51877800  0.29978200  1
  C  31  1  0.09790750  0.53881950  0.29615400  1
  C  32  1  0.13849100  0.57473800  0.33474900  1
  C  33  1  0.11543850  0.59244150  0.37568400  1
  C  34  1  0.04796400  0.55964100  0.38276700  1
  C  37  1  0.93921850  0.49623150  0.34819900  1
  C  38  1  0.90334600  0.50940100  0.31416500  1
  C  39  1  0.83552850  0.47672550  0.31658900  1
  C  40  1  0.80522800  0.43198300  0.35453100  1
  C  41  1  0.83954400  0.41670000  0.38855100  1
  C  42  1  0.90704150  0.45028850  0.38484600  1
  C  57  1  0.47167250  0.94715650  0.67748000  1
  C  58  1  0.43875900  0.92087800  0.63359400  1
  C  59  1  0.39353250  0.85503750  0.63010000  1
  C  60  1  0.38919000  0.81482400  0.66886750  1
  C  61  1  0.43013350  0.83833050  0.70968700  1
  C  62  1  0.46463000  0.90586000  0.71650000  1
  C  65  1  0.50948250  0.01431950  0.68145300  1
  C  66  1  0.55822750  0.04997450  0.64716000  1
  C  67  1  0.59327800  0.11781300  0.64926500  1
  C  68  1  0.57901250  0.14835150  0.68713100  1
  C  69  1  0.52975050  0.11424350  0.72143650  1
  C  70  1  0.49593400  0.04671200  0.71805300  1
  C  85  1  0.46352850  0.16742750  0.82220600  1
  C  87  1  0.46346900  0.26802400  0.82094750  1
  C  88  1  0.45334550  0.26407250  0.87179700  1
  C  90  1  0.44362850  0.15897650  0.87142450  1
  C  91  1  0.43021700  0.10638200  0.89990250  1
  C  92  1  0.47536000  0.31982100  0.79204700  1
  C  99  1  0.47913100  0.12710800  0.79517000  1
  C  100  1  0.45696950  0.31320650  0.90202200  1
  C  103  1  0.65525800  0.48996300  0.15661300  1
  C  105  1  0.75626000  0.49075700  0.15502400  1
  C  106  1  0.76272400  0.50110000  0.20584300  1
  C  108  1  0.66691900  0.51014400  0.20577400  1
  C  109  1  0.62768050  0.52352350  0.23428200  1
  C  110  1  0.79634750  0.47943250  0.12595700  1
  C  117  1  0.59916300  0.47395000  0.12966500  1
  C  118  1  0.80854400  0.49773700  0.23588600  1
  C  121  1  0.78690700  0.29688400  0.48897000  1
  C  123  1  0.68653200  0.19602300  0.48747900  1
  C  124  1  0.69037750  0.18973750  0.53833100  1
  C  126  1  0.79533700  0.28531000  0.53815300  1
  C  127  1  0.84774600  0.32473000  0.56678500  1
  C  128  1  0.63492250  0.15610750  0.45851000  1
  C  135  1  0.82713900  0.35293000  0.46203300  1
  C  136  1  0.64111850  0.14419550  0.56846400  1
  C  139  1  0.48145600  0.75112800  0.79376500  1
  C  141  1  0.43343100  0.63579700  0.79818700  1
  C  142  1  0.46019500  0.64219500  0.84497000  1
  C  144  1  0.51602650  0.75745150  0.83700050  1
  C  145  1  0.55420650  0.81457050  0.86125550  1
  C  146  1  0.38859000  0.57829600  0.77748500  1
  C  153  1  0.48288950  0.80271850  0.76847950  1
  C  154  1  0.44360550  0.59232350  0.87857900  1
  C  157  1  0.22123350  0.47250450  0.12572400  1
  C  159  1  0.15487100  0.52152400  0.13075300  1
  C  160  1  0.13478350  0.49491550  0.17760300  1
  C  162  1  0.19321000  0.43817700  0.16909800  1
  C  163  1  0.21158450  0.39924350  0.19290400  1
  C  164  1  0.14267800  0.56684100  0.11024200  1
  C  171  1  0.27096800  0.47057100  0.10020050  1
  C  172  1  0.10178700  0.51166400  0.21134000  1
  C  175  1  0.20348000  0.73037900  0.46012100  1
  C  177  1  0.31885750  0.79674050  0.46497500  1
  C  178  1  0.31250400  0.81716700  0.51174200  1
  C  180  1  0.19729500  0.75848900  0.50348700  1
  C  181  1  0.13999200  0.74005100  0.52735100  1
  C  182  1  0.37636250  0.80939650  0.44427200  1
  C  189  1  0.15176050  0.68079550  0.43452600  1
  C  190  1  0.36237250  0.85065450  0.54531900  1
  H  7  1  0.46486900  0.51388300  0.94059200  1
  H  8  1  0.35865450  0.59335850  0.99665300  1
  H  15  1  0.54586650  0.34963350  0.02289200  1
  H  16  1  0.51575200  0.49670300  0.07320700  1
  H  19  1  0.41313450  0.49588550  0.11646100  1
  H  20  1  0.35629750  0.34160250  0.96602500  1
  H  22  1  0.61160150  0.41979450  0.08088800  1
  H  24  1  0.47994000  0.28260100  0.96220100  1
  H  26  1  0.42854350  0.64051950  0.93138700  1
  H  28  1  0.30286450  0.55460950  0.06686800  1
  H  35  1  0.00164750  0.48977050  0.27329500  1
  H  36  1  0.18700800  0.59421200  0.33019500  1
  H  43  1  0.75610150  0.40751050  0.35610200  1
  H  44  1  0.93325250  0.43652550  0.40554600  1
  H  47  1  0.03465750  0.53817250  0.44971400  1
  H  48  1  0.93772550  0.59783550  0.30042100  1
  H  50  1  0.76047000  0.34095200  0.41346700  1
  H  52  1  0.75509600  0.47442400  0.29620100  1
  H  54  1  0.16426750  0.52521850  0.26436900  1
  H  56  1  0.20387150  0.64908950  0.40088700  1
  H  63  1  0.44031600  0.95116100  0.60686700  1
  H  64  1  0.36045900  0.76623600  0.66448100  1
  H  71  1  0.60364600  0.19749100  0.68852100  1
  H  72  1  0.45610850  0.02065750  0.73892900  1
  H  75  1  0.45689000  0.91961200  0.78342500  1
  H  76  1  0.61230150  0.01561650  0.63342000  1
  H  78  1  0.53316700  0.19344000  0.74617100  1
  H  80  1  0.67124150  0.19814650  0.62852900  1
  H  82  1  0.31377650  0.78807150  0.59843100  1
  H  84  1  0.39896750  0.75012550  0.73511500  1
  H  95  1  0.48943750  0.14492450  0.95089650  1
  H  98  1  0.56462050  0.37141550  0.80142500  1
  H  113  1  0.61026250  0.46770550  0.28709700  1
  H  116  1  0.76038950  0.39042450  0.13557200  1
  H  131  1  0.80849100  0.34691300  0.61633400  1
  H  134  1  0.58194950  0.19202050  0.46877800  1
  H  149  1  0.49106500  0.83452300  0.88096200  1
  H  152  1  0.31638300  0.55971400  0.81590250  1
  H  167  1  0.29526900  0.46143000  0.21220400  1
  H  170  1  0.19822800  0.63889200  0.14811500  1
  H  185  1  0.11944250  0.65727750  0.54812400  1
  H  188  1  0.39490750  0.75574650  0.48269300  1
  N  21  1  0.58482250  0.43863350  0.08793800  1
  N  23  1  0.46800950  0.31358350  0.95074850  1
  N  25  1  0.43146600  0.60201400  0.92522600  1
  N  27  1  0.31177100  0.51947600  0.07046800  1
  N  49  1  0.80612450  0.36757250  0.42046200  1
  N  51  1  0.79797350  0.48645450  0.28459700  1
  N  53  1  0.12309650  0.52283350  0.25813200  1
  N  55  1  0.15984650  0.64020350  0.40452300  1
  N  77  1  0.51429400  0.14785300  0.75335800  1
  N  79  1  0.64040700  0.15516600  0.61710700  1
  N  81  1  0.35234550  0.82940150  0.59213600  1
  N  83  1  0.43397000  0.79425000  0.73860300  1
  N  86  1  0.47047850  0.22099950  0.79995500  1
  N  89  1  0.44199050  0.20853750  0.89333250  1
  N  104  1  0.70200200  0.48337500  0.13421100  1
  N  107  1  0.71843350  0.51218850  0.22751200  1
  N  122  1  0.73349200  0.25019700  0.46660500  1
  N  125  1  0.74578750  0.23399450  0.55997800  1
  N  140  1  0.44285700  0.69057500  0.77680250  1
  N  143  1  0.50033800  0.70264600  0.86127750  1
  N  158  1  0.19972350  0.51159650  0.10903400  1
  N  161  1  0.15458050  0.45425850  0.19363700  1
  N  176  1  0.26403550  0.75192650  0.44331000  1
  N  179  1  0.25207900  0.79729600  0.52789200  1
  O  17  1  0.39126500  0.46089800  0.09281500  1
  O  18  1  0.39382500  0.37675600  0.94980150  1
  O  45  1  0.02163800  0.56047000  0.42639100  1
  O  46  1  0.93531200  0.56056500  0.28373400  1
  O  73  1  0.49205600  0.93255500  0.75997100  1
  O  74  1  0.57728900  0.01782200  0.61680200  1
  O  93  1  0.37688850  0.05957550  0.89467100  1
  O  94  1  0.45238050  0.11217150  0.94125700  1
  O  96  1  0.43640100  0.30929600  0.75988900  1
  O  97  1  0.53107900  0.36138400  0.78255300  1
  O  101  1  0.46982650  0.07210150  0.81593700  1
  O  102  1  0.46524100  0.36778200  0.88104000  1
  O  111  1  0.63388450  0.57651150  0.22755900  1
  O  112  1  0.61382300  0.50406800  0.27645500  1
  O  114  1  0.82389950  0.51775850  0.09323600  1
  O  115  1  0.78347700  0.42402800  0.11665000  1
  O  119  1  0.55329350  0.48301050  0.15040100  1
  O  120  1  0.85495550  0.48984050  0.21468200  1
  O  129  1  0.89406000  0.31728100  0.56222400  1
  O  130  1  0.84110850  0.34184150  0.60762600  1
  O  132  1  0.64545300  0.12874000  0.42550600  1
  O  133  1  0.59230600  0.16900900  0.44963500  1
  O  137  1  0.88228600  0.39848800  0.48272200  1
  O  138  1  0.58680100  0.09765400  0.54736500  1
  O  147  1  0.60600600  0.82418700  0.87635200  1
  O  148  1  0.53026400  0.84075600  0.88521650  1
  O  150  1  0.39837100  0.56851100  0.73569300  1
  O  151  1  0.33117800  0.55333500  0.78825500  1
  O  155  1  0.53883000  0.85916200  0.77028100  1
  O  156  1  0.41970450  0.53143850  0.86228500  1
  O  165  1  0.16904800  0.34769500  0.20809600  1
  O  166  1  0.26195950  0.42245250  0.21652500  1
  O  168  1  0.12169650  0.55622050  0.06886000  1
  O  169  1  0.17654550  0.62420450  0.12064800  1
  O  173  1  0.27092750  0.41434250  0.10177000  1
  O  174  1  0.06539350  0.53644650  0.19544000  1
  O  183  1  0.13134200  0.78316300  0.54174500  1
  O  184  1  0.11371050  0.69060950  0.55200200  1
  O  186  1  0.38620450  0.82901050  0.40249100  1
  O  187  1  0.40132250  0.77695150  0.45505500  1
  O  191  1  0.09547650  0.68060550  0.43644200  1
  O  192  1  0.42338950  0.88721850  0.52918700  1
