# generated using pymatgen
data_VH17C25NO7
_symmetry_space_group_name_H-M   'P 1'
_cell_length_a   7.22476000
_cell_length_b   17.19984000
_cell_length_c   28.02702000
_cell_angle_alpha   78.66280000
_cell_angle_beta   90.19457000
_cell_angle_gamma   90.21883000
_symmetry_Int_Tables_number   1
_chemical_formula_structural   VH17C25NO7
_chemical_formula_sum   'V4 H68 C100 N4 O28'
_cell_volume   3414.77387073
_cell_formula_units_Z   4
loop_
 _symmetry_equiv_pos_site_id
 _symmetry_equiv_pos_as_xyz
  1  'x, y, z'
loop_
 _atom_site_type_symbol
 _atom_site_label
 _atom_site_symmetry_multiplicity
 _atom_site_fract_x
 _atom_site_fract_y
 _atom_site_fract_z
 _atom_site_occupancy
  V  V0  1  0.12210000  0.24517000  0.99577000  1
  V  V1  1  0.87790000  0.75483000  0.00423000  1
  V  V2  1  0.62210000  0.25483000  0.00423000  1
  V  V3  1  0.37790000  0.74517000  0.99577000  1
  H  H4  1  0.78952000  0.51192000  0.00448000  1
  H  H5  1  0.21048000  0.48808000  0.99552000  1
  H  H6  1  0.28922000  0.98750000  0.99554000  1
  H  H7  1  0.71078000  0.01250000  0.00446000  1
  H  H8  1  0.35566000  0.87135000  0.84910000  1
  H  H9  1  0.64434000  0.12865000  0.15090000  1
  H  H10  1  0.34525000  0.60974000  0.14154000  1
  H  H11  1  0.65475000  0.39026000  0.85846000  1
  H  H12  1  0.33545000  0.91287000  0.76044000  1
  H  H13  1  0.66455000  0.08713000  0.23956000  1
  H  H14  1  0.33190000  0.56463000  0.22981000  1
  H  H15  1  0.66810000  0.43537000  0.77019000  1
  H  H16  1  0.92224000  0.11458000  0.64078000  1
  H  H17  1  0.07776000  0.88543000  0.35922000  1
  H  H18  1  0.56004000  0.37466000  0.36315000  1
  H  H19  1  0.43996000  0.62534000  0.63685000  1
  H  H20  1  0.18073000  0.23768000  0.14812000  1
  H  H21  1  0.81928000  0.76232000  0.85188000  1
  H  H22  1  0.16946000  0.25141000  0.84281000  1
  H  H23  1  0.83054000  0.74859000  0.15720000  1
  H  H24  1  0.76384000  0.23306000  0.39796000  1
  H  H25  1  0.23616000  0.76694000  0.60204000  1
  H  H26  1  0.60545000  0.25465000  0.60874000  1
  H  H27  1  0.39455000  0.74535000  0.39126000  1
  H  H28  1  0.77645000  0.18411000  0.48453000  1
  H  H29  1  0.22355000  0.81589000  0.51547000  1
  H  H30  1  0.62706000  0.29954000  0.52202000  1
  H  H31  1  0.37294000  0.70046000  0.47798000  1
  H  H32  1  0.45487000  0.23109000  0.19066000  1
  H  H33  1  0.32589000  0.31519000  0.20335000  1
  H  H34  1  0.50451000  0.26969000  0.24439000  1
  H  H35  1  0.20218000  0.22930000  0.27881000  1
  H  H36  1  0.32112000  0.14515000  0.26486000  1
  H  H37  1  0.67411000  0.68481000  0.79665000  1
  H  H38  1  0.54513000  0.76891000  0.80934000  1
  H  H39  1  0.49549000  0.73031000  0.75561000  1
  H  H40  1  0.67889000  0.85485000  0.73514000  1
  H  H41  1  0.79782000  0.77070000  0.72118000  1
  H  H42  1  0.90648000  0.30793000  0.79038000  1
  H  H43  1  0.96425000  0.39042000  0.74157000  1
  H  H44  1  0.84788000  0.30414000  0.72838000  1
  H  H45  1  0.17028000  0.30095000  0.70585000  1
  H  H46  1  0.12595000  0.22142000  0.75576000  1
  H  H47  1  0.03577000  0.60958000  0.25844000  1
  H  H48  1  0.09351000  0.69207000  0.20961000  1
  H  H49  1  0.15213000  0.69588000  0.27161000  1
  H  H50  1  0.87404000  0.77859000  0.24424000  1
  H  H51  1  0.82973000  0.69905000  0.29415000  1
  H  H52  1  0.12835000  0.21580000  0.62034000  1
  H  H53  1  0.29118000  0.18754000  0.57771000  1
  H  H54  1  0.19327000  0.28599000  0.56717000  1
  H  H55  1  0.04999000  0.21303000  0.51360000  1
  H  H56  1  0.87959000  0.22891000  0.55764000  1
  H  H57  1  0.70882000  0.81246000  0.42229000  1
  H  H58  1  0.87166000  0.78420000  0.37966000  1
  H  H59  1  0.80674000  0.71401000  0.43283000  1
  H  H60  1  0.12041000  0.77109000  0.44236000  1
  H  H61  1  0.95002000  0.78697000  0.48640000  1
  H  H62  1  0.14750000  0.34244000  0.41383000  1
  H  H63  1  0.30352000  0.29514000  0.37777000  1
  H  H64  1  0.18690000  0.23688000  0.42875000  1
  H  H65  1  0.51784000  0.26103000  0.44864000  1
  H  H66  1  0.34871000  0.29730000  0.48586000  1
  H  H67  1  0.69647000  0.70487000  0.62223000  1
  H  H68  1  0.85249000  0.65756000  0.58617000  1
  H  H69  1  0.81310000  0.76312000  0.57125000  1
  H  H70  1  0.65129000  0.70270000  0.51414000  1
  H  H71  1  0.48216000  0.73897000  0.55136000  1
  C  C72  1  0.40204000  0.29102000  0.91073000  1
  C  C73  1  0.59796000  0.70898000  0.08927000  1
  C  C74  1  0.90253000  0.20966000  0.08936000  1
  C  C75  1  0.09747000  0.79034000  0.91063000  1
  C  C76  1  0.40340000  0.10554000  0.99848000  1
  C  C77  1  0.59660000  0.89446000  0.00152000  1
  C  C78  1  0.90371000  0.39437000  0.00152000  1
  C  C79  1  0.09629000  0.60563000  0.99848000  1
  C  C80  1  0.91772000  0.48035000  0.00170000  1
  C  C81  1  0.08228000  0.51965000  0.99830000  1
  C  C82  1  0.41751000  0.01946000  0.99831000  1
  C  C83  1  0.58249000  0.98054000  0.00169000  1
  C  C84  1  0.99490000  0.96551000  0.68486000  1
  C  C85  1  0.00510000  0.03449000  0.31514000  1
  C  C86  1  0.57504000  0.52646000  0.31700000  1
  C  C87  1  0.42497000  0.47354000  0.68300000  1
  C  C88  1  0.11503000  0.84271000  0.67162000  1
  C  C89  1  0.88497000  0.15729000  0.32838000  1
  C  C90  1  0.50122000  0.65775000  0.32599000  1
  C  C91  1  0.49879000  0.34225000  0.67402000  1
  C  C92  1  0.91777000  0.81795000  0.78002000  1
  C  C93  1  0.08223000  0.18205000  0.21998000  1
  C  C94  1  0.71319000  0.68411000  0.22426000  1
  C  C95  1  0.28681000  0.31589000  0.77574000  1
  C  C96  1  0.93033000  0.79514000  0.83128000  1
  C  C97  1  0.06967000  0.20486000  0.16872000  1
  C  C98  1  0.72137000  0.70856000  0.17323000  1
  C  C99  1  0.27863000  0.29144000  0.82677000  1
  C  C100  1  0.23348000  0.85579000  0.83048000  1
  C  C101  1  0.76652000  0.14421000  0.16952000  1
  C  C102  1  0.44802000  0.63129000  0.16405000  1
  C  C103  1  0.55199000  0.36871000  0.83595000  1
  C  C104  1  0.22218000  0.87962000  0.77997000  1
  C  C105  1  0.77782000  0.12038000  0.22002000  1
  C  C106  1  0.44012000  0.60555000  0.21443000  1
  C  C107  1  0.55988000  0.39445000  0.78557000  1
  C  C108  1  0.06559000  0.86159000  0.75450000  1
  C  C109  1  0.93441000  0.13841000  0.24550000  1
  C  C110  1  0.56908000  0.63234000  0.24518000  1
  C  C111  1  0.43092000  0.36766000  0.75482000  1
  C  C112  1  0.03857000  0.94641000  0.60195000  1
  C  C113  1  0.96143000  0.05359000  0.39805000  1
  C  C114  1  0.51247000  0.55196000  0.39764000  1
  C  C115  1  0.48753000  0.44804000  0.60236000  1
  C  C116  1  0.98846000  0.99549000  0.63433000  1
  C  C117  1  0.01154000  0.00451000  0.36567000  1
  C  C118  1  0.55017000  0.49809000  0.36727000  1
  C  C119  1  0.44984000  0.50191000  0.63273000  1
  C  C120  1  0.94816000  0.07508000  0.61585000  1
  C  C121  1  0.05184000  0.92492000  0.38415000  1
  C  C122  1  0.54680000  0.41681000  0.38700000  1
  C  C123  1  0.45320000  0.58319000  0.61300000  1
  C  C124  1  0.10675000  0.86992000  0.62082000  1
  C  C125  1  0.89325000  0.13008000  0.37918000  1
  C  C126  1  0.48306000  0.63223000  0.37666000  1
  C  C127  1  0.51694000  0.36777000  0.62334000  1
  C  C128  1  0.08729000  0.81392000  0.85675000  1
  C  C129  1  0.91271000  0.18608000  0.14325000  1
  C  C130  1  0.58887000  0.68290000  0.14288000  1
  C  C131  1  0.41113000  0.31710000  0.85712000  1
  C  C132  1  0.93508000  0.07781000  0.48131000  1
  C  C133  1  0.06492000  0.92219000  0.51869000  1
  C  C134  1  0.52310000  0.41852000  0.52065000  1
  C  C135  1  0.47691000  0.58148000  0.47935000  1
  C  C136  1  0.02894000  0.94587000  0.46775000  1
  C  C137  1  0.97106000  0.05413000  0.53225000  1
  C  C138  1  0.48882000  0.55703000  0.53095000  1
  C  C139  1  0.51119000  0.44297000  0.46905000  1
  C  C140  1  0.97759000  0.02587000  0.44923000  1
  C  C141  1  0.02241000  0.97414000  0.55077000  1
  C  C142  1  0.49770000  0.47463000  0.55106000  1
  C  C143  1  0.50231000  0.52537000  0.44894000  1
  C  C144  1  0.84188000  0.14896000  0.46150000  1
  C  C145  1  0.15812000  0.85104000  0.53850000  1
  C  C146  1  0.57686000  0.34112000  0.54310000  1
  C  C147  1  0.42315000  0.65888000  0.45690000  1
  C  C148  1  0.82745000  0.17604000  0.41139000  1
  C  C149  1  0.17256000  0.82397000  0.58861000  1
  C  C150  1  0.57022000  0.31564000  0.59343000  1
  C  C151  1  0.42978000  0.68436000  0.40657000  1
  C  C152  1  0.96544000  0.10694000  0.56595000  1
  C  C153  1  0.03456000  0.89306000  0.43405000  1
  C  C154  1  0.50054000  0.38919000  0.43606000  1
  C  C155  1  0.49947000  0.61081000  0.56394000  1
  C  C156  1  0.25022000  0.20138000  0.24854000  1
  C  C157  1  0.39204000  0.25787000  0.21964000  1
  C  C158  1  0.74978000  0.79862000  0.75146000  1
  C  C159  1  0.60796000  0.74213000  0.78036000  1
  C  C160  1  0.13829000  0.28698000  0.74520000  1
  C  C161  1  0.95282000  0.32485000  0.75200000  1
  C  C162  1  0.86171000  0.71302000  0.25480000  1
  C  C163  1  0.04719000  0.67516000  0.24800000  1
  C  C164  1  0.00548000  0.19557000  0.55194000  1
  C  C165  1  0.16432000  0.22221000  0.58132000  1
  C  C166  1  0.99453000  0.80443000  0.44806000  1
  C  C167  1  0.83568000  0.77779000  0.41868000  1
  C  C168  1  0.41201000  0.30715000  0.44927000  1
  C  C169  1  0.25308000  0.29527000  0.41509000  1
  C  C170  1  0.58799000  0.69285000  0.55073000  1
  C  C171  1  0.74692000  0.70473000  0.58491000  1
  N  N172  1  0.05604000  0.89004000  0.70252000  1
  N  N173  1  0.94396000  0.10996000  0.29748000  1
  N  N174  1  0.55215000  0.60539000  0.29727000  1
  N  N175  1  0.44785000  0.39461000  0.70273000  1
  O  O176  1  0.56349000  0.14208000  0.00070000  1
  O  O177  1  0.43651000  0.85792000  0.99930000  1
  O  O178  1  0.06349000  0.35792000  0.99930000  1
  O  O179  1  0.93651000  0.64208000  0.00070000  1
  O  O180  1  0.23362000  0.27811000  0.93008000  1
  O  O181  1  0.76638000  0.72189000  0.06992000  1
  O  O182  1  0.73362000  0.22189000  0.06992000  1
  O  O183  1  0.26638000  0.77811000  0.93008000  1
  O  O184  1  0.23377000  0.13769000  0.99618000  1
  O  O185  1  0.76623000  0.86231000  0.00382000  1
  O  O186  1  0.73377000  0.36231000  0.00382000  1
  O  O187  1  0.26623000  0.63769000  0.99618000  1
  O  O188  1  0.06354000  0.21650000  0.06587000  1
  O  O189  1  0.93646000  0.78350000  0.93413000  1
  O  O190  1  0.56354000  0.28350000  0.93413000  1
  O  O191  1  0.43646000  0.71650000  0.06587000  1
  O  O192  1  0.39698000  0.27602000  0.02279000  1
  O  O193  1  0.60302000  0.72398000  0.97721000  1
  O  O194  1  0.89698000  0.22398000  0.97721000  1
  O  O195  1  0.10302000  0.77602000  0.02279000  1
  O  O196  1  0.94249000  0.01174000  0.71611000  1
  O  O197  1  0.05751000  0.98826000  0.28389000  1
  O  O198  1  0.62044000  0.47539000  0.28807000  1
  O  O199  1  0.37956000  0.52461000  0.71193000  1
  O  O200  1  0.81903000  0.23038000  0.31006000  1
  O  O201  1  0.18097000  0.76962000  0.68994000  1
  O  O202  1  0.52988000  0.26555000  0.69434000  1
  O  O203  1  0.47012000  0.73445000  0.30566000  1
