# generated using pymatgen
data_VH3C12NO5
_symmetry_space_group_name_H-M   'P 1'
_cell_length_a   7.25407000
_cell_length_b   14.92523000
_cell_length_c   16.87526000
_cell_angle_alpha   85.41523000
_cell_angle_beta   90.00033000
_cell_angle_gamma   90.00026000
_symmetry_Int_Tables_number   1
_chemical_formula_structural   VH3C12NO5
_chemical_formula_sum   'V4 H12 C48 N4 O20'
_cell_volume   1821.21553772
_cell_formula_units_Z   4
loop_
 _symmetry_equiv_pos_site_id
 _symmetry_equiv_pos_as_xyz
  1  'x, y, z'
loop_
 _atom_site_type_symbol
 _atom_site_label
 _atom_site_symmetry_multiplicity
 _atom_site_fract_x
 _atom_site_fract_y
 _atom_site_fract_z
 _atom_site_occupancy
  V  V0  1  0.19699000  0.76036000  0.74946000  1
  V  V1  1  0.80301000  0.23964000  0.25054000  1
  V  V2  1  0.69699000  0.73964000  0.75054000  1
  V  V3  1  0.30301000  0.26036000  0.24946000  1
  H  H4  1  0.89867000  0.78586000  0.10001000  1
  H  H5  1  0.10133000  0.21414000  0.89999000  1
  H  H6  1  0.39836000  0.71417000  0.39998000  1
  H  H7  1  0.60163000  0.28583000  0.60001000  1
  H  H8  1  0.99180000  0.30956000  0.78502000  1
  H  H9  1  0.00820000  0.69044000  0.21498000  1
  H  H10  1  0.49209000  0.19043000  0.71499000  1
  H  H11  1  0.50791000  0.80957000  0.28501000  1
  H  H12  1  0.89396000  0.73070000  0.96912000  1
  H  H13  1  0.10604000  0.26930000  0.03088000  1
  H  H14  1  0.39379000  0.76932000  0.53088000  1
  H  H15  1  0.60621000  0.23068000  0.46912000  1
  C  C16  1  0.47697000  0.85586000  0.85374000  1
  C  C17  1  0.52303000  0.14414000  0.14626000  1
  C  C18  1  0.97697000  0.64413000  0.64626000  1
  C  C19  1  0.02303000  0.35587000  0.35374000  1
  C  C20  1  0.47609000  0.87011000  0.63897000  1
  C  C21  1  0.52391000  0.12989000  0.36103000  1
  C  C22  1  0.97609000  0.62988000  0.86102000  1
  C  C23  1  0.02391000  0.37012000  0.13898000  1
  C  C24  1  0.00530000  0.46968000  0.46900000  1
  C  C25  1  0.99470000  0.53032000  0.53100000  1
  C  C26  1  0.50529000  0.03032000  0.03100000  1
  C  C27  1  0.49470000  0.96968000  0.96901000  1
  C  C28  1  0.93049000  0.68360000  0.01870000  1
  C  C29  1  0.06951000  0.31640000  0.98130000  1
  C  C30  1  0.43032000  0.81641000  0.48130000  1
  C  C31  1  0.56968000  0.18359000  0.51870000  1
  C  C32  1  0.93198000  0.71612000  0.09345000  1
  C  C33  1  0.06802000  0.28388000  0.90655000  1
  C  C34  1  0.43174000  0.78390000  0.40654000  1
  C  C35  1  0.56826000  0.21610000  0.59345000  1
  C  C36  1  0.98960000  0.66115000  0.15875000  1
  C  C37  1  0.01040000  0.33885000  0.84125000  1
  C  C38  1  0.48936000  0.83886000  0.34125000  1
  C  C39  1  0.51064000  0.16114000  0.65875000  1
  C  C40  1  0.03711000  0.57148000  0.15079000  1
  C  C41  1  0.96289000  0.42852000  0.84922000  1
  C  C42  1  0.53695000  0.92852000  0.34921000  1
  C  C43  1  0.46305000  0.07148000  0.65079000  1
  C  C44  1  0.00904000  0.53265000  0.07712000  1
  C  C45  1  0.99096000  0.46735000  0.92288000  1
  C  C46  1  0.50896000  0.96735000  0.42288000  1
  C  C47  1  0.49104000  0.03265000  0.57712000  1
  C  C48  1  0.97213000  0.59252000  0.00856000  1
  C  C49  1  0.02787000  0.40748000  0.99144000  1
  C  C50  1  0.47205000  0.90749000  0.49144000  1
  C  C51  1  0.52796000  0.09251000  0.50856000  1
  C  C52  1  0.02297000  0.43836000  0.06872000  1
  C  C53  1  0.97704000  0.56165000  0.93127000  1
  C  C54  1  0.52297000  0.06164000  0.43127000  1
  C  C55  1  0.47703000  0.93836000  0.56873000  1
  C  C56  1  0.01394000  0.41806000  0.41642000  1
  C  C57  1  0.98606000  0.58194000  0.58358000  1
  C  C58  1  0.51394000  0.08194000  0.08357000  1
  C  C59  1  0.48606000  0.91806000  0.91643000  1
  C  C60  1  0.15646000  0.53187000  0.21204000  1
  C  C61  1  0.84354000  0.46813000  0.78796000  1
  C  C62  1  0.65631000  0.96811000  0.28795000  1
  C  C63  1  0.34369000  0.03189000  0.71205000  1
  N  N64  1  0.25761000  0.50378000  0.26079000  1
  N  N65  1  0.74239000  0.49622000  0.73921000  1
  N  N66  1  0.75745000  0.99619000  0.23919000  1
  N  N67  1  0.24255000  0.00381000  0.76081000  1
  O  O68  1  0.63824000  0.83403000  0.66346000  1
  O  O69  1  0.36176000  0.16597000  0.33654000  1
  O  O70  1  0.13824000  0.66597000  0.83654000  1
  O  O71  1  0.86176000  0.33403000  0.16346000  1
  O  O72  1  0.31013000  0.83627000  0.82710000  1
  O  O73  1  0.68987000  0.16373000  0.17290000  1
  O  O74  1  0.81013000  0.66373000  0.67290000  1
  O  O75  1  0.18987000  0.33627000  0.32710000  1
  O  O76  1  0.30863000  0.84450000  0.66349000  1
  O  O77  1  0.69137000  0.15550000  0.33651000  1
  O  O78  1  0.80863000  0.65550000  0.83651000  1
  O  O79  1  0.19137000  0.34450000  0.16349000  1
  O  O80  1  0.13668000  0.67426000  0.67177000  1
  O  O81  1  0.86332000  0.32574000  0.32823000  1
  O  O82  1  0.63668000  0.82574000  0.82823000  1
  O  O83  1  0.36332000  0.17426000  0.17177000  1
  O  O84  1  0.47120000  0.69414000  0.75291000  1
  O  O85  1  0.52880000  0.30586000  0.24709000  1
  O  O86  1  0.97120000  0.80586000  0.74709000  1
  O  O87  1  0.02880000  0.19414000  0.25291000  1
