# generated using pymatgen
data_Eu2Zn19H54C54N72(Cl2O9)4
_symmetry_space_group_name_H-M   'P 1'
_cell_length_a   18.27557875
_cell_length_b   18.32482000
_cell_length_c   24.08121000
_cell_angle_alpha   89.95738000
_cell_angle_beta   89.99988727
_cell_angle_gamma   119.72063023
_symmetry_Int_Tables_number   1
_chemical_formula_structural   Eu2Zn19H54C54N72(Cl2O9)4
_chemical_formula_sum   'Eu4 Zn38 H108 C108 N144 Cl16 O72'
_cell_volume   7003.82605757
_cell_formula_units_Z   2
loop_
 _symmetry_equiv_pos_site_id
 _symmetry_equiv_pos_as_xyz
  1  'x, y, z'
loop_
 _atom_site_type_symbol
 _atom_site_label
 _atom_site_symmetry_multiplicity
 _atom_site_fract_x
 _atom_site_fract_y
 _atom_site_fract_z
 _atom_site_occupancy
  Eu  Eu0  1  0.00032000  0.00025000  0.37070000  1
  Eu  Eu1  1  0.00038000  0.00038000  0.12912000  1
  Eu  Eu2  1  0.99979000  0.99998000  0.87085000  1
  Eu  Eu3  1  0.99994000  0.00008000  0.62903000  1
  Zn  Zn4  1  0.00004000  0.66272000  0.90839000  1
  Zn  Zn5  1  0.78848000  0.78827000  0.85713000  1
  Zn  Zn6  1  0.50144000  0.50138000  0.49889000  1
  Zn  Zn7  1  0.33191000  0.66555000  0.38155000  1
  Zn  Zn8  1  0.99987000  0.49987000  0.49893000  1
  Zn  Zn9  1  0.33763000  0.00079000  0.09063000  1
  Zn  Zn10  1  0.21158000  0.21196000  0.35732000  1
  Zn  Zn11  1  0.00007000  0.33716000  0.40722000  1
  Zn  Zn12  1  0.49871000  0.99872000  0.49871000  1
  Zn  Zn13  1  0.33772000  0.00057000  0.40684000  1
  Zn  Zn14  1  0.21155000  0.21167000  0.14086000  1
  Zn  Zn15  1  0.33393000  0.66732000  0.11818000  1
  Zn  Zn16  1  0.99979000  0.66256000  0.59060000  1
  Zn  Zn17  1  0.66639000  0.33277000  0.61805000  1
  Zn  Zn18  1  0.33792000  0.33799000  0.59033000  1
  Zn  Zn19  1  0.99981000  0.21115000  0.64094000  1
  Zn  Zn20  1  0.33434000  0.66754000  0.88187000  1
  Zn  Zn21  1  0.00020000  0.50018000  0.00122000  1
  Zn  Zn22  1  0.66561000  0.33247000  0.38178000  1
  Zn  Zn23  1  0.66452000  0.66414000  0.08992000  1
  Zn  Zn24  1  0.00022000  0.33737000  0.09269000  1
  Zn  Zn25  1  0.99971000  0.21166000  0.85902000  1
  Zn  Zn26  1  0.50130000  0.00140000  0.99892000  1
  Zn  Zn27  1  0.78869000  0.99999000  0.14053000  1
  Zn  Zn28  1  0.99999000  0.78894000  0.14102000  1
  Zn  Zn29  1  0.49876000  0.49886000  0.99883000  1
  Zn  Zn30  1  0.33429000  0.66739000  0.61798000  1
  Zn  Zn31  1  0.66230000  0.99923000  0.90716000  1
  Zn  Zn32  1  0.00003000  0.78876000  0.35749000  1
  Zn  Zn33  1  0.78868000  0.78825000  0.64074000  1
  Zn  Zn34  1  0.78852000  0.99998000  0.35743000  1
  Zn  Zn35  1  0.33795000  0.33806000  0.90711000  1
  Zn  Zn36  1  0.66878000  0.33509000  0.88177000  1
  Zn  Zn37  1  0.66196000  0.99897000  0.59046000  1
  Zn  Zn38  1  0.21132000  0.99990000  0.64068000  1
  Zn  Zn39  1  0.66238000  0.66235000  0.40724000  1
  Zn  Zn40  1  0.66545000  0.33247000  0.11811000  1
  Zn  Zn41  1  0.21128000  0.99996000  0.85743000  1
  H  H42  1  0.53378000  0.75961000  0.17770000  1
  H  H43  1  0.78984000  0.78802000  0.50829000  1
  H  H44  1  0.75731000  0.53057000  0.32013000  1
  H  H45  1  0.82485000  0.60965000  0.63530000  1
  H  H46  1  0.78721000  0.99741000  0.00865000  1
  H  H47  1  0.48560000  0.82773000  0.43002000  1
  H  H48  1  0.38813000  0.17537000  0.36164000  1
  H  H49  1  0.21107000  0.21270000  0.48970000  1
  H  H50  1  0.51413000  0.34263000  0.06589000  1
  H  H51  1  0.78415000  0.61036000  0.13427000  1
  H  H52  1  0.44575000  0.45416000  0.37161000  1
  H  H53  1  0.38161000  0.02031000  0.83566000  1
  H  H54  1  0.83002000  0.34313000  0.93417000  1
  H  H55  1  0.34188000  0.51243000  0.42920000  1
  H  H56  1  0.52659000  0.76256000  0.67484000  1
  H  H57  1  0.82838000  0.48683000  0.07119000  1
  H  H58  1  0.22831000  0.47052000  0.18008000  1
  H  H59  1  0.22646000  0.46919000  0.31964000  1
  H  H60  1  0.82835000  0.48671000  0.42887000  1
  H  H61  1  0.21479000  0.39033000  0.86356000  1
  H  H62  1  0.34154000  0.51303000  0.06974000  1
  H  H63  1  0.76786000  0.24092000  0.82622000  1
  H  H64  1  0.64111000  0.61632000  0.83537000  1
  H  H65  1  0.34339000  0.82877000  0.93366000  1
  H  H66  1  0.47078000  0.23920000  0.82185000  1
  H  H67  1  0.45441000  0.00692000  0.87198000  1
  H  H68  1  0.51411000  0.17300000  0.93081000  1
  H  H69  1  0.21121000  0.00151000  0.50844000  1
  H  H70  1  0.46792000  0.24107000  0.67820000  1
  H  H71  1  0.44543000  0.45317000  0.12610000  1
  H  H72  1  0.78518000  0.61027000  0.36413000  1
  H  H73  1  0.51356000  0.34283000  0.43172000  1
  H  H74  1  0.21003000  0.21244000  0.00819000  1
  H  H75  1  0.02349000  0.38273000  0.66236000  1
  H  H76  1  0.38754000  0.17439000  0.13761000  1
  H  H77  1  0.78888000  0.78637000  0.98916000  1
  H  H78  1  0.48681000  0.82888000  0.06897000  1
  H  H79  1  0.78819000  0.99886000  0.48952000  1
  H  H80  1  0.61177000  0.82430000  0.86365000  1
  H  H81  1  0.00142000  0.21204000  0.99109000  1
  H  H82  1  0.75573000  0.53163000  0.17893000  1
  H  H83  1  0.17469000  0.78643000  0.63404000  1
  H  H84  1  0.51280000  0.17145000  0.56802000  1
  H  H85  1  0.53178000  0.76006000  0.32135000  1
  H  H86  1  0.00869000  0.45442000  0.62644000  1
  H  H87  1  0.23779000  0.76499000  0.82563000  1
  H  H88  1  0.65862000  0.48727000  0.56989000  1
  H  H89  1  0.35881000  0.38242000  0.16231000  1
  H  H90  1  0.99118000  0.54597000  0.12759000  1
  H  H91  1  0.00216000  0.21218000  0.50893000  1
  H  H92  1  0.45450000  0.00860000  0.62584000  1
  H  H93  1  0.82428000  0.21212000  0.36527000  1
  H  H94  1  0.97622000  0.61762000  0.16332000  1
  H  H95  1  0.17152000  0.65745000  0.06698000  1
  H  H96  1  0.39000000  0.21385000  0.86506000  1
  H  H97  1  0.48655000  0.65700000  0.93152000  1
  H  H98  1  0.65668000  0.17155000  0.06725000  1
  H  H99  1  0.61180000  0.82545000  0.63591000  1
  H  H100  1  0.61030000  0.78689000  0.36637000  1
  H  H101  1  0.23922000  0.76608000  0.67309000  1
  H  H102  1  0.65832000  0.48743000  0.92898000  1
  H  H103  1  0.21196000  0.82453000  0.36281000  1
  H  H104  1  0.38902000  0.21428000  0.63345000  1
  H  H105  1  0.99849000  0.78801000  0.00923000  1
  H  H106  1  0.17563000  0.38948000  0.36382000  1
  H  H107  1  0.23203000  0.75825000  0.17305000  1
  H  H108  1  0.48629000  0.65756000  0.56662000  1
  H  H109  1  0.54526000  0.99129000  0.37147000  1
  H  H110  1  0.21212000  0.00208000  0.98980000  1
  H  H111  1  0.55516000  0.54633000  0.62632000  1
  H  H112  1  0.78622000  0.17408000  0.63489000  1
  H  H113  1  0.47336000  0.23843000  0.17590000  1
  H  H114  1  0.75753000  0.23121000  0.17329000  1
  H  H115  1  0.76598000  0.23970000  0.67304000  1
  H  H116  1  0.61745000  0.97631000  0.16254000  1
  H  H117  1  0.02399000  0.38319000  0.83759000  1
  H  H118  1  0.24341000  0.46928000  0.67877000  1
  H  H119  1  0.17514000  0.78666000  0.86558000  1
  H  H120  1  0.24297000  0.47062000  0.81984000  1
  H  H121  1  0.00957000  0.45514000  0.87344000  1
  H  H122  1  0.38245000  0.02327000  0.66179000  1
  H  H123  1  0.61677000  0.97533000  0.33586000  1
  H  H124  1  0.75810000  0.23133000  0.32679000  1
  H  H125  1  0.47481000  0.24089000  0.32427000  1
  H  H126  1  0.82807000  0.34215000  0.56521000  1
  H  H127  1  0.82481000  0.61049000  0.86570000  1
  H  H128  1  0.52636000  0.76115000  0.82491000  1
  H  H129  1  0.17209000  0.51308000  0.56945000  1
  H  H130  1  0.77544000  0.53150000  0.82095000  1
  H  H131  1  0.55393000  0.54546000  0.87096000  1
  H  H132  1  0.78742000  0.17508000  0.86464000  1
  H  H133  1  0.17592000  0.39017000  0.13665000  1
  H  H134  1  0.99785000  0.78756000  0.48983000  1
  H  H135  1  0.21258000  0.82512000  0.13544000  1
  H  H136  1  0.64198000  0.61707000  0.66228000  1
  H  H137  1  0.34229000  0.82800000  0.56634000  1
  H  H138  1  0.23115000  0.75709000  0.32569000  1
  H  H139  1  0.61167000  0.78553000  0.13239000  1
  H  H140  1  0.21575000  0.38949000  0.63488000  1
  H  H141  1  0.65628000  0.17107000  0.43284000  1
  H  H142  1  0.17059000  0.65659000  0.43281000  1
  H  H143  1  0.54568000  0.99198000  0.12716000  1
  H  H144  1  0.97681000  0.61750000  0.33594000  1
  H  H145  1  0.17232000  0.51331000  0.93075000  1
  H  H146  1  0.82403000  0.21208000  0.13515000  1
  H  H147  1  0.99139000  0.54571000  0.37192000  1
  H  H148  1  0.77399000  0.52995000  0.67938000  1
  H  H149  1  0.35878000  0.38371000  0.33584000  1
  C  C150  1  0.31785000  0.49613000  0.61136000  1
  C  C151  1  0.43344000  0.59557000  0.92235000  1
  C  C152  1  0.95207000  0.15875000  0.38789000  1
  C  C153  1  0.49446000  0.17823000  0.11261000  1
  C  C154  1  0.59667000  0.43436000  0.57838000  1
  C  C155  1  0.20761000  0.15779000  0.61256000  1
  C  C156  1  0.31735000  0.49639000  0.88710000  1
  C  C157  1  0.56689000  0.16349000  0.92172000  1
  C  C158  1  0.73519000  0.78412000  0.74928000  1
  C  C159  1  0.04723000  0.27397000  0.75000000  1
  C  C160  1  0.99919000  0.35690000  0.58113000  1
  C  C161  1  0.22834000  0.27699000  0.24956000  1
  C  C162  1  0.79290000  0.95073000  0.60945000  1
  C  C163  1  0.43411000  0.83850000  0.07808000  1
  C  C164  1  0.79380000  0.84299000  0.11084000  1
  C  C165  1  0.82060000  0.31588000  0.38784000  1
  C  C166  1  0.50484000  0.82135000  0.61101000  1
  C  C167  1  0.04825000  0.84118000  0.88673000  1
  C  C168  1  0.82056000  0.31595000  0.11235000  1
  C  C169  1  0.79212000  0.84224000  0.38426000  1
  C  C170  1  0.59651000  0.43426000  0.92058000  1
  C  C171  1  0.43288000  0.83722000  0.42067000  1
  C  C172  1  0.43350000  0.59595000  0.57594000  1
  C  C173  1  0.95057000  0.79198000  0.88515000  1
  C  C174  1  0.94980000  0.21459000  0.75006000  1
  C  C175  1  0.73329000  0.73219000  0.97289000  1
  C  C176  1  0.00081000  0.64317000  0.41720000  1
  C  C177  1  0.64324000  0.64345000  0.58102000  1
  C  C178  1  0.49472000  0.17845000  0.38681000  1
  C  C179  1  0.35671000  0.99904000  0.58056000  1
  C  C180  1  0.95202000  0.15920000  0.11197000  1
  C  C181  1  0.95059000  0.79189000  0.61461000  1
  C  C182  1  0.20752000  0.15911000  0.88583000  1
  C  C183  1  0.00103000  0.26683000  0.52494000  1
  C  C184  1  0.50509000  0.82114000  0.88824000  1
  C  C185  1  0.78542000  0.04874000  0.24954000  1
  C  C186  1  0.83848000  0.40467000  0.92467000  1
  C  C187  1  0.99961000  0.35744000  0.91884000  1
  C  C188  1  0.83755000  0.43372000  0.42034000  1
  C  C189  1  0.16280000  0.56603000  0.57789000  1
  C  C190  1  0.16301000  0.56621000  0.92208000  1
  C  C191  1  0.35718000  0.99902000  0.91746000  1
  C  C192  1  0.84072000  0.04809000  0.61061000  1
  C  C193  1  0.72276000  0.95218000  0.24948000  1
  C  C194  1  0.31684000  0.82204000  0.11203000  1
  C  C195  1  0.79269000  0.95096000  0.88776000  1
  C  C196  1  0.40519000  0.83775000  0.92381000  1
  C  C197  1  0.17923000  0.49646000  0.11292000  1
  C  C198  1  0.64294000  0.00132000  0.08139000  1
  C  C199  1  0.84138000  0.79340000  0.38480000  1
  C  C200  1  0.68281000  0.50384000  0.38747000  1
  C  C201  1  0.26652000  0.26716000  0.47346000  1
  C  C202  1  0.83689000  0.40371000  0.57509000  1
  C  C203  1  0.56671000  0.40420000  0.07551000  1
  C  C204  1  0.73322000  0.99955000  0.47338000  1
  C  C205  1  0.68395000  0.17930000  0.88794000  1
  C  C206  1  0.40361000  0.56574000  0.42077000  1
  C  C207  1  0.59472000  0.16237000  0.07687000  1
  C  C208  1  0.56559000  0.16194000  0.57707000  1
  C  C209  1  0.35769000  0.35703000  0.41695000  1
  C  C210  1  0.99891000  0.73300000  0.47360000  1
  C  C211  1  0.04959000  0.20807000  0.38471000  1
  C  C212  1  0.00098000  0.64347000  0.08214000  1
  C  C213  1  0.16290000  0.59593000  0.07683000  1
  C  C214  1  0.68264000  0.17792000  0.61109000  1
  C  C215  1  0.20785000  0.04885000  0.11240000  1
  C  C216  1  0.17910000  0.68339000  0.61079000  1
  C  C217  1  0.64197000  0.64244000  0.91652000  1
  C  C218  1  0.00082000  0.26698000  0.97508000  1
  C  C219  1  0.50444000  0.68223000  0.11173000  1
  C  C220  1  0.82119000  0.50326000  0.61157000  1
  C  C221  1  0.95246000  0.72653000  0.24969000  1
  C  C222  1  0.15962000  0.95170000  0.11234000  1
  C  C223  1  0.15951000  0.95155000  0.38595000  1
  C  C224  1  0.50358000  0.68317000  0.38756000  1
  C  C225  1  0.20793000  0.04871000  0.38598000  1
  C  C226  1  0.16182000  0.59503000  0.42299000  1
  C  C227  1  0.04961000  0.20832000  0.11440000  1
  C  C228  1  0.15827000  0.20802000  0.88573000  1
  C  C229  1  0.99949000  0.73342000  0.02553000  1
  C  C230  1  0.35712000  0.35614000  0.08098000  1
  C  C231  1  0.64274000  0.00070000  0.41692000  1
  C  C232  1  0.49670000  0.31700000  0.88728000  1
  C  C233  1  0.59446000  0.16189000  0.42278000  1
  C  C234  1  0.40358000  0.56571000  0.07831000  1
  C  C235  1  0.56666000  0.40432000  0.42259000  1
  C  C236  1  0.26499000  0.21612000  0.24951000  1
  C  C237  1  0.21606000  0.95086000  0.74950000  1
  C  C238  1  0.40431000  0.83715000  0.57566000  1
  C  C239  1  0.49605000  0.31759000  0.61186000  1
  C  C240  1  0.73274000  0.99899000  0.02486000  1
  C  C241  1  0.26582000  0.26648000  0.02448000  1
  C  C242  1  0.68205000  0.50387000  0.11118000  1
  C  C243  1  0.73438000  0.73355000  0.52455000  1
  C  C244  1  0.05012000  0.78465000  0.24965000  1
  C  C245  1  0.84359000  0.79461000  0.11127000  1
  C  C246  1  0.76998000  0.72167000  0.74953000  1
  C  C247  1  0.17825000  0.49560000  0.38697000  1
  C  C248  1  0.26696000  0.00109000  0.97369000  1
  C  C249  1  0.04810000  0.84121000  0.61124000  1
  C  C250  1  0.15846000  0.20680000  0.61196000  1
  C  C251  1  0.31583000  0.82102000  0.38656000  1
  C  C252  1  0.17922000  0.68335000  0.88870000  1
  C  C253  1  0.27555000  0.04801000  0.74953000  1
  C  C254  1  0.83759000  0.43385000  0.07976000  1
  C  C255  1  0.82219000  0.50433000  0.88876000  1
  C  C256  1  0.26617000  0.00060000  0.52438000  1
  C  C257  1  0.84084000  0.04826000  0.88855000  1
  N  N258  1  0.78536000  0.23766000  0.36456000  1
  N  N259  1  0.61472000  0.00131000  0.46849000  1
  N  N260  1  0.28318000  0.00042000  0.91865000  1
  N  N261  1  0.32470000  0.99889000  0.49329000  1
  N  N262  1  0.64735000  0.53972000  0.08110000  1
  N  N263  1  0.75940000  0.54620000  0.36090000  1
  N  N264  1  0.36437000  0.78269000  0.38944000  1
  N  N265  1  0.54104000  0.89283000  0.91688000  1
  N  N266  1  0.21709000  0.63439000  0.89041000  1
  N  N267  1  0.54757000  0.75978000  0.13670000  1
  N  N268  1  0.71713000  0.71590000  0.91782000  1
  N  N269  1  0.57274000  0.09766000  0.93765000  1
  N  N270  1  0.58103000  0.21585000  0.10978000  1
  N  N271  1  0.10750000  0.64708000  0.91753000  1
  N  N272  1  0.67429000  0.67534000  0.49363000  1
  N  N273  1  0.89171000  0.53926000  0.58157000  1
  N  N274  1  0.90324000  0.42773000  0.06348000  1
  N  N275  1  0.28228000  0.28242000  0.07964000  1
  N  N276  1  0.41825000  0.78384000  0.60860000  1
  N  N277  1  0.99869000  0.38471000  0.52950000  1
  N  N278  1  0.36692000  0.58265000  0.88903000  1
  N  N279  1  0.09811000  0.52322000  0.44015000  1
  N  N280  1  0.09885000  0.52411000  0.06002000  1
  N  N281  1  0.28260000  0.28353000  0.41833000  1
  N  N282  1  0.90307000  0.42749000  0.43678000  1
  N  N283  1  0.60229000  0.60694000  0.62981000  1
  N  N284  1  0.42576000  0.52435000  0.55826000  1
  N  N285  1  0.67312000  0.67396000  0.00381000  1
  N  N286  1  0.58122000  0.21610000  0.39029000  1
  N  N287  1  0.78769000  0.54639000  0.86191000  1
  N  N288  1  0.90088000  0.47552000  0.55803000  1
  N  N289  1  0.54758000  0.78698000  0.63643000  1
  N  N290  1  0.00095000  0.67474000  0.99474000  1
  N  N291  1  0.63549000  0.21777000  0.89041000  1
  N  N292  1  0.54608000  0.76051000  0.36226000  1
  N  N293  1  0.89227000  0.54022000  0.91910000  1
  N  N294  1  0.36566000  0.78401000  0.10949000  1
  N  N295  1  0.75857000  0.54638000  0.13790000  1
  N  N296  1  0.47508000  0.57238000  0.06077000  1
  N  N297  1  0.00066000  0.28348000  0.92001000  1
  N  N298  1  0.99496000  0.39405000  0.87007000  1
  N  N299  1  0.32592000  0.00009000  0.00470000  1
  N  N300  1  0.38537000  0.99909000  0.96909000  1
  N  N301  1  0.46080000  0.35317000  0.58200000  1
  N  N302  1  0.61498000  0.00202000  0.02981000  1
  N  N303  1  0.78516000  0.23767000  0.13564000  1
  N  N304  1  0.00171000  0.61553000  0.03064000  1
  N  N305  1  0.45869000  0.10640000  0.41525000  1
  N  N306  1  0.39870000  0.39348000  0.36809000  1
  N  N307  1  0.00046000  0.28307000  0.58001000  1
  N  N308  1  0.54032000  0.89227000  0.58143000  1
  N  N309  1  0.24136000  0.45353000  0.63803000  1
  N  N310  1  0.76196000  0.21402000  0.86406000  1
  N  N311  1  0.45427000  0.23967000  0.86215000  1
  N  N312  1  0.47549000  0.57363000  0.43854000  1
  N  N313  1  0.39346000  0.99341000  0.86889000  1
  N  N314  1  0.35141000  0.46015000  0.91748000  1
  N  N315  1  0.23784000  0.78593000  0.36283000  1
  N  N316  1  0.78710000  0.54557000  0.63856000  1
  N  N317  1  0.38544000  0.38416000  0.02943000  1
  N  N318  1  0.64858000  0.53980000  0.41786000  1
  N  N319  1  0.38428000  0.99808000  0.52891000  1
  N  N320  1  0.60113000  0.60610000  0.86767000  1
  N  N321  1  0.89304000  0.35284000  0.41587000  1
  N  N322  1  0.21663000  0.58282000  0.10997000  1
  N  N323  1  0.09788000  0.57283000  0.93901000  1
  N  N324  1  0.00573000  0.60706000  0.13101000  1
  N  N325  1  0.67431000  0.00084000  0.50426000  1
  N  N326  1  0.32565000  0.32515000  0.99361000  1
  N  N327  1  0.42712000  0.90318000  0.43617000  1
  N  N328  1  0.76039000  0.21272000  0.63529000  1
  N  N329  1  0.99967000  0.67398000  0.50451000  1
  N  N330  1  0.10766000  0.45956000  0.41689000  1
  N  N331  1  0.52463000  0.42638000  0.93830000  1
  N  N332  1  0.21301000  0.45362000  0.36043000  1
  N  N333  1  0.60630000  0.00517000  0.36801000  1
  N  N334  1  0.45180000  0.21266000  0.13791000  1
  N  N335  1  0.78279000  0.36492000  0.38947000  1
  N  N336  1  0.99976000  0.32545000  0.49386000  1
  N  N337  1  0.64593000  0.10583000  0.58281000  1
  N  N338  1  0.71667000  0.99958000  0.07995000  1
  N  N339  1  0.71827000  0.71694000  0.57967000  1
  N  N340  1  0.32669000  0.32552000  0.50428000  1
  N  N341  1  0.21393000  0.76097000  0.86435000  1
  N  N342  1  0.47703000  0.90245000  0.93989000  1
  N  N343  1  0.52513000  0.42716000  0.56047000  1
  N  N344  1  0.41782000  0.63354000  0.11044000  1
  N  N345  1  0.35388000  0.89460000  0.08410000  1
  N  N346  1  0.53938000  0.64798000  0.41721000  1
  N  N347  1  0.52264000  0.09693000  0.43859000  1
  N  N348  1  0.78357000  0.41689000  0.60858000  1
  N  N349  1  0.57508000  0.47610000  0.44045000  1
  N  N350  1  0.42490000  0.52368000  0.94016000  1
  N  N351  1  0.99971000  0.71726000  0.08064000  1
  N  N352  1  0.99986000  0.71717000  0.41851000  1
  N  N353  1  0.21694000  0.63438000  0.60937000  1
  N  N354  1  0.61318000  0.61482000  0.96809000  1
  N  N355  1  0.09769000  0.57262000  0.56085000  1
  N  N356  1  0.58319000  0.36674000  0.88843000  1
  N  N357  1  0.63332000  0.41748000  0.10884000  1
  N  N358  1  0.63333000  0.41750000  0.38929000  1
  N  N359  1  0.63384000  0.21601000  0.60869000  1
  N  N360  1  0.10738000  0.64703000  0.58197000  1
  N  N361  1  0.57437000  0.47592000  0.05807000  1
  N  N362  1  0.90181000  0.47642000  0.94225000  1
  N  N363  1  0.99436000  0.39341000  0.62986000  1
  N  N364  1  0.57182000  0.09647000  0.56084000  1
  N  N365  1  0.52316000  0.09794000  0.06020000  1
  N  N366  1  0.53956000  0.64612000  0.08239000  1
  N  N367  1  0.46075000  0.35209000  0.91688000  1
  N  N368  1  0.35310000  0.89383000  0.41408000  1
  N  N369  1  0.41705000  0.63341000  0.38869000  1
  N  N370  1  0.35255000  0.46045000  0.58108000  1
  N  N371  1  0.61453000  0.61603000  0.52945000  1
  N  N372  1  0.54748000  0.78613000  0.86316000  1
  N  N373  1  0.99892000  0.38510000  0.97047000  1
  N  N374  1  0.47586000  0.90135000  0.55857000  1
  N  N375  1  0.39827000  0.39256000  0.12971000  1
  N  N376  1  0.36674000  0.58249000  0.60923000  1
  N  N377  1  0.71683000  0.99959000  0.41832000  1
  N  N378  1  0.58259000  0.36671000  0.61074000  1
  N  N379  1  0.64681000  0.10684000  0.91584000  1
  N  N380  1  0.99961000  0.32562000  0.00613000  1
  N  N381  1  0.41857000  0.78367000  0.89139000  1
  N  N382  1  0.78269000  0.36493000  0.11058000  1
  N  N383  1  0.45243000  0.21352000  0.36178000  1
  N  N384  1  0.60679000  0.00601000  0.13038000  1
  N  N385  1  0.21376000  0.45424000  0.13950000  1
  N  N386  1  0.78536000  0.41808000  0.89114000  1
  N  N387  1  0.28286000  0.00063000  0.57942000  1
  N  N388  1  0.10837000  0.46040000  0.08330000  1
  N  N389  1  0.42809000  0.90418000  0.06211000  1
  N  N390  1  0.00585000  0.60677000  0.36846000  1
  N  N391  1  0.21523000  0.58186000  0.38963000  1
  N  N392  1  0.89315000  0.35304000  0.08443000  1
  N  N393  1  0.67409000  0.00072000  0.99399000  1
  N  N394  1  0.38647000  0.38471000  0.46845000  1
  N  N395  1  0.24086000  0.45443000  0.86050000  1
  N  N396  1  0.23881000  0.78685000  0.13576000  1
  N  N397  1  0.21383000  0.76116000  0.63479000  1
  N  N398  1  0.39338000  0.99444000  0.62927000  1
  N  N399  1  0.45323000  0.24042000  0.63735000  1
  N  N400  1  0.45883000  0.10695000  0.08339000  1
  N  N401  1  0.00078000  0.61490000  0.46876000  1
  Cl  Cl402  1  0.65233000  0.65097000  0.18389000  1
  Cl  Cl403  1  0.00118000  0.00051000  0.24967000  1
  Cl  Cl404  1  0.63410000  0.99891000  0.81227000  1
  Cl  Cl405  1  0.00158000  0.36366000  0.31260000  1
  Cl  Cl406  1  0.36167000  0.36212000  0.81374000  1
  Cl  Cl407  1  0.36806000  0.00131000  0.30997000  1
  Cl  Cl408  1  0.99852000  0.63599000  0.81435000  1
  Cl  Cl409  1  0.00071000  0.99919000  0.99993000  1
  Cl  Cl410  1  0.63506000  0.99724000  0.68600000  1
  Cl  Cl411  1  0.63933000  0.63985000  0.31408000  1
  Cl  Cl412  1  0.99968000  0.63877000  0.68510000  1
  Cl  Cl413  1  0.36527000  0.00066000  0.18810000  1
  Cl  Cl414  1  0.35541000  0.35521000  0.68448000  1
  Cl  Cl415  1  0.00191000  0.36370000  0.18721000  1
  Cl  Cl416  1  0.00064000  0.00044000  0.49834000  1
  Cl  Cl417  1  0.00075000  0.00148000  0.74984000  1
  O  O418  1  0.72080000  0.80588000  0.70235000  1
  O  O419  1  0.29974000  0.08317000  0.70246000  1
  O  O420  1  0.71587000  0.91301000  0.89964000  1
  O  O421  1  0.16412000  0.08053000  0.62795000  1
  O  O422  1  0.28340000  0.19752000  0.89971000  1
  O  O423  1  0.28510000  0.08580000  0.39710000  1
  O  O424  1  0.08378000  0.16477000  0.12941000  1
  O  O425  1  0.91628000  0.83507000  0.86938000  1
  O  O426  1  0.80791000  0.72011000  0.09509000  1
  O  O427  1  0.71616000  0.91299000  0.59745000  1
  O  O428  1  0.91960000  0.08285000  0.62156000  1
  O  O429  1  0.16329000  0.08295000  0.12409000  1
  O  O430  1  0.83744000  0.91715000  0.87562000  1
  O  O431  1  0.83786000  0.91656000  0.62010000  1
  O  O432  1  0.80732000  0.08499000  0.20275000  1
  O  O433  1  0.80755000  0.08490000  0.29643000  1
  O  O434  1  0.16337000  0.08317000  0.37544000  1
  O  O435  1  0.80354000  0.71799000  0.39930000  1
  O  O436  1  0.08375000  0.16468000  0.36952000  1
  O  O437  1  0.29819000  0.08326000  0.79675000  1
  O  O438  1  0.78013000  0.69647000  0.70258000  1
  O  O439  1  0.08048000  0.16364000  0.62609000  1
  O  O440  1  0.28016000  0.19485000  0.29639000  1
  O  O441  1  0.08536000  0.80230000  0.59736000  1
  O  O442  1  0.19627000  0.91457000  0.79641000  1
  O  O443  1  0.91689000  0.70333000  0.20267000  1
  O  O444  1  0.08583000  0.80224000  0.89985000  1
  O  O445  1  0.70031000  0.91707000  0.20230000  1
  O  O446  1  0.91481000  0.19860000  0.39953000  1
  O  O447  1  0.19985000  0.91456000  0.39711000  1
  O  O448  1  0.71696000  0.80525000  0.39961000  1
  O  O449  1  0.08750000  0.28414000  0.10066000  1
  O  O450  1  0.72004000  0.80562000  0.79602000  1
  O  O451  1  0.21727000  0.30096000  0.29678000  1
  O  O452  1  0.91752000  0.08012000  0.12121000  1
  O  O453  1  0.08634000  0.80481000  0.20274000  1
  O  O454  1  0.19611000  0.28362000  0.89968000  1
  O  O455  1  0.83541000  0.91948000  0.36882000  1
  O  O456  1  0.08095000  0.91726000  0.12344000  1
  O  O457  1  0.92046000  0.83795000  0.12786000  1
  O  O458  1  0.19621000  0.28206000  0.59721000  1
  O  O459  1  0.91363000  0.19402000  0.79706000  1
  O  O460  1  0.08027000  0.16454000  0.87180000  1
  O  O461  1  0.91291000  0.71660000  0.89993000  1
  O  O462  1  0.28296000  0.19473000  0.59760000  1
  O  O463  1  0.08281000  0.29576000  0.70280000  1
  O  O464  1  0.91982000  0.08308000  0.87810000  1
  O  O465  1  0.16425000  0.08130000  0.87197000  1
  O  O466  1  0.80048000  0.08516000  0.89990000  1
  O  O467  1  0.08249000  0.29886000  0.79704000  1
  O  O468  1  0.91955000  0.83684000  0.37120000  1
  O  O469  1  0.08064000  0.91713000  0.37540000  1
  O  O470  1  0.91358000  0.19428000  0.70312000  1
  O  O471  1  0.83621000  0.92016000  0.12653000  1
  O  O472  1  0.08249000  0.91976000  0.87534000  1
  O  O473  1  0.28465000  0.08632000  0.10026000  1
  O  O474  1  0.91743000  0.07961000  0.37898000  1
  O  O475  1  0.21631000  0.30055000  0.20250000  1
  O  O476  1  0.19508000  0.91489000  0.70257000  1
  O  O477  1  0.91661000  0.83502000  0.63098000  1
  O  O478  1  0.08744000  0.28424000  0.39739000  1
  O  O479  1  0.71897000  0.80575000  0.09486000  1
  O  O480  1  0.80018000  0.08505000  0.60011000  1
  O  O481  1  0.19974000  0.91472000  0.10044000  1
  O  O482  1  0.91464000  0.19882000  0.10006000  1
  O  O483  1  0.69666000  0.91761000  0.29659000  1
  O  O484  1  0.91698000  0.70373000  0.29687000  1
  O  O485  1  0.08263000  0.91997000  0.62193000  1
  O  O486  1  0.28031000  0.19508000  0.20268000  1
  O  O487  1  0.08638000  0.80445000  0.29659000  1
  O  O488  1  0.78121000  0.69809000  0.79689000  1
  O  O489  1  0.91259000  0.71641000  0.60024000  1
