# generated using pymatgen
data_H10C14N3O
_symmetry_space_group_name_H-M   'P 1'
_cell_length_a   15.74995000
_cell_length_b   15.74995000
_cell_length_c   47.24990000
_cell_angle_alpha   90.00000000
_cell_angle_beta   90.00000000
_cell_angle_gamma   120.00000000
_symmetry_Int_Tables_number   1
_chemical_formula_structural   H10C14N3O
_chemical_formula_sum   'H120 C168 N36 O12'
_cell_volume   10150.55723168
_cell_formula_units_Z   12
loop_
 _symmetry_equiv_pos_site_id
 _symmetry_equiv_pos_as_xyz
  1  'x, y, z'
loop_
 _atom_site_type_symbol
 _atom_site_label
 _atom_site_symmetry_multiplicity
 _atom_site_fract_x
 _atom_site_fract_y
 _atom_site_fract_z
 _atom_site_occupancy
  C  2  1  0.97010150  0.97489250  0.98236800  1
  C  3  1  0.87840750  0.88961250  0.98883300  1
  C  4  1  0.92313850  0.93473350  0.93140800  1
  C  7  1  0.98253400  0.94779000  0.33738500  1
  C  8  1  0.98443300  0.01360800  0.31570100  1
  C  10  1  0.94489900  0.00117800  0.67071900  1
  C  11  1  0.96745500  0.00767800  0.70024500  1
  C  12  1  0.90240150  0.00145350  0.72184300  1
  C  13  1  0.85297450  0.99456950  0.66443300  1
  C  16  1  0.91560850  0.96012050  0.84277700  1
  C  17  1  0.90702450  0.95701950  0.81279400  1
  C  19  1  0.95454400  0.89853500  0.14368100  1
  C  20  1  0.95205850  0.89239150  0.17336600  1
  C  21  1  0.98566700  0.97702600  0.19023600  1
  C  24  1  0.97868650  0.96873350  0.22004800  1
  C  26  1  0.97418650  0.98848350  0.46267000  1
  C  27  1  0.96672700  0.98442800  0.43270200  1
  C  57  1  0.97603550  0.96384650  0.36691100  1
  C  58  1  0.98225950  0.90501450  0.38850900  1
  C  60  1  0.98245650  0.99369650  0.28610700  1
  C  64  1  0.92363450  0.02916750  0.47701500  1
  C  65  1  0.91997450  0.03165050  0.50670000  1
  C  66  1  0.97100250  0.99804350  0.52357000  1
  C  69  1  0.96968950  0.00502350  0.55338100  1
  C  85  1  0.81094100  0.82815800  0.96806400  1
  C  86  1  0.83337900  0.85248700  0.93930800  1
  C  88  1  0.81138650  0.99123650  0.71419000  1
  C  89  1  0.78743600  0.99110700  0.68546600  1
  C  109  1  0.03592000  0.03881100  0.00405200  1
  C  110  1  0.01986450  0.01625750  0.03357800  1
  C  111  1  0.07869550  0.08130850  0.05517500  1
  C  112  1  0.15949250  0.17232450  0.04752300  1
  C  113  1  0.18331500  0.19627800  0.01879900  1
  C  114  1  0.12123750  0.13073950  0.99776600  1
  C  116  1  0.99001700  0.99282800  0.95277500  1
  C  125  1  0.99247700  0.82422000  0.38085600  1
  C  126  1  0.99260550  0.80039650  0.35213200  1
  C  127  1  0.98914350  0.86247450  0.33110000  1
  C  130  1  0.99085000  0.10530500  0.32216600  1
  C  131  1  0.99686150  0.17277250  0.30139600  1
  C  132  1  0.99875050  0.15033150  0.27264000  1
  C  133  1  0.99123750  0.06057350  0.26474200  1
  C  145  1  0.00881900  0.99928000  0.64903400  1
  C  146  1  0.09409850  0.99286150  0.65550000  1
  C  147  1  0.15555350  0.98684950  0.63473000  1
  C  148  1  0.13122450  0.98496150  0.60597400  1
  C  149  1  0.04897850  0.99247150  0.59807600  1
  C  150  1  0.99088250  0.00125850  0.61944100  1
  C  158  1  0.08517850  0.06007950  0.81034800  1
  C  159  1  0.09132200  0.06373700  0.84003400  1
  C  160  1  0.00668250  0.01270850  0.85690300  1
  C  161  1  0.99393750  0.00952550  0.79600300  1
  C  164  1  0.01497950  0.01402250  0.88671400  1
  C  166  1  0.99734400  0.01698600  0.76603600  1
  C  168  1  0.02415450  0.06810250  0.17610900  1
  C  169  1  0.02963800  0.07668800  0.14612800  1
  C  170  1  0.99523050  0.98977150  0.12933600  1
  C  175  1  0.99928200  0.98636700  0.09937000  1
  C  180  1  0.02359300  0.95955600  0.50944300  1
  C  181  1  0.02669150  0.95407350  0.47946200  1
  C  190  1  0.54417850  0.56510650  0.97052600  1
  C  191  1  0.45534750  0.47594250  0.96847200  1
  C  192  1  0.40526400  0.42350100  0.99290900  1
  C  193  1  0.44814550  0.46407250  0.01941900  1
  C  194  1  0.53811350  0.55377550  0.02212400  1
  C  195  1  0.58787250  0.60623350  0.99705300  1
  C  202  1  0.31613250  0.33372350  0.99039900  1
  C  204  1  0.67830550  0.69607250  0.99756300  1
  C  206  1  0.00057000  0.43953400  0.30385900  1
  C  207  1  0.00023550  0.52836450  0.30180400  1
  C  208  1  0.99788200  0.57844800  0.32624300  1
  C  209  1  0.99556950  0.53556850  0.35275300  1
  C  210  1  0.99530500  0.44559800  0.35545700  1
  C  211  1  0.99800350  0.39583950  0.33038600  1
  C  217  1  0.99723450  0.66758050  0.32373000  1
  C  219  1  0.99741150  0.30540850  0.33089600  1
  C  221  1  0.41860550  0.98313750  0.63719300  1
  C  222  1  0.50777000  0.98347400  0.63513800  1
  C  223  1  0.56021050  0.98583150  0.65957400  1
  C  224  1  0.51964000  0.98814300  0.68608600  1
  C  225  1  0.42993850  0.98840750  0.68879100  1
  C  226  1  0.37748050  0.98570850  0.66372000  1
  C  233  1  0.64998850  0.98647650  0.65706400  1
  C  235  1  0.28764150  0.98630250  0.66423000  1
  C  674  1  0.33517950  0.59394050  0.98236800  1
  C  675  1  0.24348550  0.50866050  0.98883300  1
  C  676  1  0.28821650  0.55378150  0.93140800  1
  C  679  1  0.34761200  0.56683800  0.33738500  1
  C  680  1  0.34951100  0.63265600  0.31570100  1
  C  682  1  0.30997700  0.62022600  0.67071900  1
  C  683  1  0.33253300  0.62672600  0.70024500  1
  C  684  1  0.26747950  0.62050150  0.72184300  1
  C  685  1  0.21805250  0.61361750  0.66443300  1
  C  688  1  0.28068650  0.57916850  0.84277700  1
  C  689  1  0.27210250  0.57606750  0.81279400  1
  C  691  1  0.31962200  0.51758250  0.14368100  1
  C  692  1  0.31713650  0.51143900  0.17336600  1
  C  693  1  0.35074500  0.59607400  0.19023600  1
  C  696  1  0.34376450  0.58778150  0.22004800  1
  C  698  1  0.33926450  0.60753150  0.46267000  1
  C  699  1  0.33180500  0.60347600  0.43270200  1
  C  729  1  0.34111350  0.58289450  0.36691100  1
  C  730  1  0.34733750  0.52406200  0.38850900  1
  C  732  1  0.34753450  0.61274450  0.28610700  1
  C  736  1  0.28871250  0.64821550  0.47701500  1
  C  737  1  0.28505250  0.65069850  0.50670000  1
  C  738  1  0.33608050  0.61709150  0.52357000  1
  C  741  1  0.33476750  0.62407150  0.55338100  1
  C  757  1  0.17601900  0.44720600  0.96806400  1
  C  758  1  0.19845700  0.47153500  0.93930800  1
  C  760  1  0.17646450  0.61028450  0.71419000  1
  C  761  1  0.15251400  0.61015500  0.68546600  1
  C  781  1  0.40099800  0.65785900  0.00405200  1
  C  782  1  0.38494250  0.63530550  0.03357800  1
  C  783  1  0.44377350  0.70035650  0.05517500  1
  C  784  1  0.52457050  0.79137250  0.04752300  1
  C  785  1  0.54839300  0.81532600  0.01879900  1
  C  786  1  0.48631550  0.74978750  0.99776600  1
  C  788  1  0.35509500  0.61187600  0.95277500  1
  C  797  1  0.35755500  0.44326750  0.38085600  1
  C  798  1  0.35768350  0.41944400  0.35213200  1
  C  799  1  0.35422150  0.48152200  0.33110000  1
  C  802  1  0.35592800  0.72435300  0.32216600  1
  C  803  1  0.36193950  0.79182050  0.30139600  1
  C  804  1  0.36382850  0.76937950  0.27264000  1
  C  805  1  0.35631550  0.67962150  0.26474200  1
  C  817  1  0.37389700  0.61832800  0.64903400  1
  C  818  1  0.45917650  0.61190900  0.65550000  1
  C  819  1  0.52063150  0.60589700  0.63473000  1
  C  820  1  0.49630250  0.60400900  0.60597400  1
  C  821  1  0.41405650  0.61151900  0.59807600  1
  C  822  1  0.35596050  0.62030650  0.61944100  1
  C  830  1  0.45025650  0.67912750  0.81034800  1
  C  831  1  0.45640000  0.68278500  0.84003400  1
  C  832  1  0.37176050  0.63175650  0.85690300  1
  C  833  1  0.35901550  0.62857350  0.79600300  1
  C  836  1  0.38005750  0.63307050  0.88671400  1
  C  838  1  0.36242200  0.63603400  0.76603600  1
  C  840  1  0.38923250  0.68715050  0.17610900  1
  C  841  1  0.39471600  0.69573600  0.14612800  1
  C  842  1  0.36030850  0.60881950  0.12933600  1
  C  847  1  0.36436000  0.60541500  0.09937000  1
  C  852  1  0.38867100  0.57860350  0.50944300  1
  C  853  1  0.39176950  0.57312100  0.47946200  1
  C  862  1  0.90925620  0.18415420  0.97052600  1
  C  863  1  0.82042520  0.09499020  0.96847200  1
  C  864  1  0.77034200  0.04254900  0.99290900  1
  C  865  1  0.81322320  0.08312020  0.01941900  1
  C  866  1  0.90319120  0.17282320  0.02212400  1
  C  867  1  0.95295020  0.22528120  0.99705300  1
  C  874  1  0.68121050  0.95277150  0.99039900  1
  C  876  1  0.04338350  0.31512050  0.99756300  1
  C  878  1  0.36564800  0.05858200  0.30385900  1
  C  879  1  0.36531350  0.14741250  0.30180400  1
  C  880  1  0.36296000  0.19749600  0.32624300  1
  C  881  1  0.36064750  0.15461650  0.35275300  1
  C  882  1  0.36038300  0.06464600  0.35545700  1
  C  883  1  0.36308150  0.01488750  0.33038600  1
  C  889  1  0.36231250  0.28662850  0.32373000  1
  C  891  1  0.36248950  0.92445650  0.33089600  1
  C  893  1  0.78368350  0.60218550  0.63719300  1
  C  894  1  0.87284770  0.60252170  0.63513800  1
  C  895  1  0.92528820  0.60487920  0.65957400  1
  C  896  1  0.88471770  0.60719070  0.68608600  1
  C  897  1  0.79501650  0.60745550  0.68879100  1
  C  898  1  0.74255850  0.60475650  0.66372000  1
  C  905  1  0.01506650  0.60552450  0.65706400  1
  C  907  1  0.65271950  0.60535050  0.66423000  1
  H  1  1  0.96327250  0.95130750  0.04028200  1
  H  5  1  0.85677650  0.87114050  0.00919900  1
  H  9  1  0.93998900  0.19902600  0.24727500  1
  H  14  1  0.93368200  0.00838500  0.61257100  1
  H  18  1  0.85337050  0.92203350  0.85467700  1
  H  22  1  0.92901250  0.83438950  0.13259800  1
  H  23  1  0.92283000  0.82458800  0.18254900  1
  H  25  1  0.95549800  0.90201100  0.22933700  1
  H  28  1  0.93802300  0.02207400  0.42269100  1
  H  59  1  0.96767900  0.02043900  0.37361600  1
  H  61  1  0.97532600  0.92936500  0.27923700  1
  H  63  1  0.96163650  0.92001550  0.08935800  1
  H  67  1  0.88502000  0.05470100  0.46593200  1
  H  68  1  0.88140450  0.06088250  0.51588300  1
  H  70  1  0.92615700  0.02821400  0.56267000  1
  H  87  1  0.78468350  0.74503050  0.91394200  1
  H  90  1  0.82987750  0.98974150  0.64413100  1
  H  92  1  0.80505950  0.87955750  0.78226400  1
  H  103  1  0.75923700  0.86128700  0.81431600  1
  H  107  1  0.99068350  0.44888650  0.39876500  1
  H  117  1  0.05434300  0.05002800  0.94590300  1
  H  118  1  0.19552700  0.28154300  0.07145500  1
  H  119  1  0.13950650  0.15383450  0.97746300  1
  H  137  1  0.06565950  0.78818350  0.40478900  1
  H  138  1  0.99397050  0.84420350  0.31079700  1
  H  139  1  0.99400700  0.12693500  0.34253200  1
  H  144  1  0.03240050  0.01603350  0.70695000  1
  H  152  1  0.70216800  0.91805200  0.73812200  1
  H  153  1  0.23868050  0.04372250  0.58060900  1
  H  154  1  0.11257100  0.98970300  0.67586600  1
  H  162  1  0.14932300  0.09869200  0.79926500  1
  H  163  1  0.15912050  0.10230850  0.84921700  1
  H  165  1  0.08170000  0.05755300  0.89600400  1
  H  167  1  0.06369500  0.04568800  0.75602500  1
  H  171  1  0.04830650  0.13034150  0.18801000  1
  H  173  1  0.08169350  0.22447550  0.14765000  1
  H  174  1  0.05413950  0.17865150  0.11559700  1
  H  184  1  0.06167800  0.93540500  0.52134300  1
  H  186  1  0.12242650  0.90201750  0.48098300  1
  H  187  1  0.10415350  0.92957250  0.44893100  1
  H  196  1  0.57677750  0.59944250  0.95196700  1
  H  197  1  0.42747100  0.44969400  0.94876500  1
  H  198  1  0.41308750  0.42698950  0.03744000  1
  H  200  1  0.53482600  0.54586400  0.06543200  1
  H  201  1  0.63136150  0.64422950  0.05307800  1
  H  203  1  0.28875300  0.30626400  0.97077100  1
  H  205  1  0.71174550  0.72575250  0.01628900  1
  H  212  1  0.00231050  0.40693550  0.28530100  1
  H  213  1  0.00186450  0.55624050  0.28209900  1
  H  214  1  0.99354350  0.57062450  0.37077400  1
  H  216  1  0.99251350  0.35235150  0.38641200  1
  H  218  1  0.99715600  0.69495800  0.30410300  1
  H  220  1  0.99365050  0.27196850  0.34962200  1
  H  227  1  0.38426950  0.98140350  0.61863400  1
  H  228  1  0.53401850  0.98184750  0.61543200  1
  H  229  1  0.55672200  0.99016600  0.70410800  1
  H  231  1  0.43784700  0.99303000  0.73209700  1
  H  232  1  0.33948300  0.99120000  0.71974600  1
  H  234  1  0.67744650  0.98655650  0.63743700  1
  H  236  1  0.25795850  0.99005750  0.68295600  1
  H  673  1  0.32835050  0.57035550  0.04028200  1
  H  677  1  0.22185450  0.49018850  0.00919900  1
  H  681  1  0.30506700  0.81807400  0.24727500  1
  H  686  1  0.29876000  0.62743300  0.61257100  1
  H  690  1  0.21844850  0.54108150  0.85467700  1
  H  694  1  0.29409050  0.45343700  0.13259800  1
  H  695  1  0.28790800  0.44363550  0.18254900  1
  H  697  1  0.32057600  0.52105900  0.22933700  1
  H  700  1  0.30310100  0.64112200  0.42269100  1
  H  731  1  0.33275700  0.63948700  0.37361600  1
  H  733  1  0.34040400  0.54841300  0.27923700  1
  H  735  1  0.32671450  0.53906350  0.08935800  1
  H  739  1  0.25009800  0.67374900  0.46593200  1
  H  740  1  0.24648250  0.67993050  0.51588300  1
  H  742  1  0.29123500  0.64726200  0.56267000  1
  H  759  1  0.14976150  0.36407850  0.91394200  1
  H  762  1  0.19495550  0.60878950  0.64413100  1
  H  764  1  0.17013750  0.49860550  0.78226400  1
  H  775  1  0.12431500  0.48033500  0.81431600  1
  H  779  1  0.35576150  0.06793450  0.39876500  1
  H  789  1  0.41942100  0.66907600  0.94590300  1
  H  790  1  0.56060500  0.90059100  0.07145500  1
  H  791  1  0.50458450  0.77288250  0.97746300  1
  H  809  1  0.43073750  0.40723150  0.40478900  1
  H  810  1  0.35904850  0.46325100  0.31079700  1
  H  811  1  0.35908500  0.74598300  0.34253200  1
  H  816  1  0.39747850  0.63508150  0.70695000  1
  H  824  1  0.06724600  0.53710000  0.73812200  1
  H  825  1  0.60375850  0.66277000  0.58060900  1
  H  826  1  0.47764900  0.60875050  0.67586600  1
  H  834  1  0.51440100  0.71774000  0.79926500  1
  H  835  1  0.52419850  0.72135600  0.84921700  1
  H  837  1  0.44677800  0.67660100  0.89600400  1
  H  839  1  0.42877300  0.66473600  0.75602500  1
  H  843  1  0.41338450  0.74938950  0.18801000  1
  H  845  1  0.44677150  0.84352350  0.14765000  1
  H  846  1  0.41921750  0.79769950  0.11559700  1
  H  856  1  0.42675600  0.55445250  0.52134300  1
  H  858  1  0.48750450  0.52106500  0.48098300  1
  H  859  1  0.46923150  0.54862000  0.44893100  1
  H  868  1  0.94185520  0.21849020  0.95196700  1
  H  869  1  0.79254900  0.06874200  0.94876500  1
  H  870  1  0.77816550  0.04603750  0.03744000  1
  H  872  1  0.89990370  0.16491170  0.06543200  1
  H  873  1  0.99643917  0.26327717  0.05307800  1
  H  875  1  0.65383100  0.92531200  0.97077100  1
  H  877  1  0.07682350  0.34480050  0.01628900  1
  H  884  1  0.36738850  0.02598350  0.28530100  1
  H  885  1  0.36694250  0.17528850  0.28209900  1
  H  886  1  0.35862150  0.18967250  0.37077400  1
  H  888  1  0.35759150  0.97139950  0.38641200  1
  H  890  1  0.36223400  0.31400600  0.30410300  1
  H  892  1  0.35872850  0.89101650  0.34962200  1
  H  899  1  0.74934750  0.60045150  0.61863400  1
  H  900  1  0.89909620  0.60089520  0.61543200  1
  H  901  1  0.92179970  0.60921370  0.70410800  1
  H  903  1  0.80292470  0.61207770  0.73209700  1
  H  904  1  0.70456100  0.61024800  0.71974600  1
  H  906  1  0.04252450  0.60560450  0.63743700  1
  H  908  1  0.62303650  0.60910550  0.68295600  1
  N  6  1  0.93906650  0.95175950  0.90322700  1
  N  15  1  0.92003850  0.00172150  0.74997600  1
  N  62  1  0.98199150  0.92238650  0.41664300  1
  N  91  1  0.81551300  0.89822100  0.80198200  1
  N  120  1  0.72520650  0.74494650  0.97378200  1
  N  121  1  0.26627850  0.28235950  0.01348000  1
  N  122  1  0.06132400  0.06367300  0.08330900  1
  N  140  1  0.99233450  0.04464550  0.23656000  1
  N  141  1  0.99938550  0.25850550  0.30711400  1
  N  142  1  0.99572400  0.71743400  0.34681400  1
  N  155  1  0.03195150  0.99137450  0.56989400  1
  N  156  1  0.23876200  0.98432700  0.64044800  1
  N  157  1  0.70135300  0.98798600  0.68014800  1
  N  172  1  0.06235200  0.16819900  0.13531500  1
  N  185  1  0.08548850  0.92135950  0.46864900  1
  N  199  1  0.57126050  0.58407750  0.04899800  1
  N  215  1  0.99245950  0.41245150  0.38233100  1
  N  230  1  0.39963400  0.99125300  0.71566500  1
  N  678  1  0.30414450  0.57080750  0.90322700  1
  N  687  1  0.28511650  0.62076950  0.74997600  1
  N  734  1  0.34706950  0.54143400  0.41664300  1
  N  763  1  0.18059100  0.51726900  0.80198200  1
  N  792  1  0.09028450  0.36399450  0.97378200  1
  N  793  1  0.63135650  0.90140750  0.01348000  1
  N  794  1  0.42640200  0.68272100  0.08330900  1
  N  812  1  0.35741250  0.66369350  0.23656000  1
  N  813  1  0.36446350  0.87755350  0.30711400  1
  N  814  1  0.36080200  0.33648200  0.34681400  1
  N  827  1  0.39702950  0.61042250  0.56989400  1
  N  828  1  0.60384000  0.60337500  0.64044800  1
  N  829  1  0.06643100  0.60703400  0.68014800  1
  N  844  1  0.42743000  0.78724700  0.13531500  1
  N  857  1  0.45056650  0.54040700  0.46864900  1
  N  871  1  0.93633820  0.20312520  0.04899800  1
  N  887  1  0.35753750  0.03149950  0.38233100  1
  N  902  1  0.76471200  0.61030100  0.71566500  1
  O  101  1  0.76791650  0.79549250  0.91896800  1
  O  102  1  0.74892100  0.98790500  0.73478900  1
  O  115  1  0.21862350  0.23479050  0.06812400  1
  O  129  1  0.99581050  0.76508550  0.40145700  1
  O  135  1  0.00721800  0.21579400  0.25230000  1
  O  151  1  0.18822150  0.97649250  0.58563300  1
  O  773  1  0.13299450  0.41454050  0.91896800  1
  O  774  1  0.11399900  0.60695300  0.73478900  1
  O  787  1  0.58370150  0.85383850  0.06812400  1
  O  801  1  0.36088850  0.38413300  0.40145700  1
  O  807  1  0.37229600  0.83484200  0.25230000  1
  O  823  1  0.55329950  0.59554000  0.58563300  1
