# generated using pymatgen
data_H16C28N7O2
_symmetry_space_group_name_H-M   'P 1'
_cell_length_a   9.87086667
_cell_length_b   50.39030000
_cell_length_c   50.39030000
_cell_angle_alpha   60.00000000
_cell_angle_beta   89.95130000
_cell_angle_gamma   90.00000000
_symmetry_Int_Tables_number   1
_chemical_formula_structural   H16C28N7O2
_chemical_formula_sum   'H96 C168 N42 O12'
_cell_volume   21705.98987126
_cell_formula_units_Z   6
loop_
 _symmetry_equiv_pos_site_id
 _symmetry_equiv_pos_as_xyz
  1  'x, y, z'
loop_
 _atom_site_type_symbol
 _atom_site_label
 _atom_site_symmetry_multiplicity
 _atom_site_fract_x
 _atom_site_fract_y
 _atom_site_fract_z
 _atom_site_occupancy
  C  1  1  0.01199800  0.34521933  0.60067133  1
  C  2  1  0.00896000  0.36098233  0.61659467  1
  C  3  1  0.00719500  0.39235200  0.59536967  1
  C  5  1  0.01126400  0.36656867  0.56932900  1
  C  6  1  0.01293500  0.35925300  0.54544133  1
  C  7  1  0.01031200  0.38123467  0.51360967  1
  C  9  1  0.00583800  0.42582800  0.46911967  1
  C  10  1  0.00538800  0.40205733  0.46242867  1
  C  11  1  0.00800200  0.37467200  0.48975133  1
  C  12  1  0.00442600  0.45768767  0.44723667  1
  C  13  1  0.00714100  0.48144167  0.45473367  1
  C  15  1  0.01130500  0.50722400  0.48077167  1
  C  16  1  0.01198400  0.52857233  0.44942900  1
  C  17  1  0.00882200  0.51281067  0.43350800  1
  C  18  1  0.01296400  0.51454367  0.50465367  1
  C  19  1  0.01036700  0.49256200  0.53648700  1
  C  21  1  0.00588400  0.44796800  0.58097800  1
  C  22  1  0.00532600  0.47174033  0.58766700  1
  C  23  1  0.00793100  0.49912633  0.56034333  1
  C  24  1  0.00456800  0.41610633  0.60286500  1
  C  25  1  0.00248100  0.40784333  0.63445333  1
  C  26  1  0.87937900  0.40764733  0.64889900  1
  C  27  1  0.87917200  0.40412200  0.67846067  1
  C  28  1  0.00150300  0.40099133  0.69429667  1
  C  29  1  0.12443000  0.40044067  0.68004400  1
  C  30  1  0.12498100  0.40398633  0.65047600  1
  C  31  1  0.01523500  0.54608933  0.49652233  1
  C  32  1  0.89296500  0.56256800  0.49116367  1
  C  33  1  0.89266600  0.59215433  0.48755167  1
  C  34  1  0.01446000  0.60604567  0.48937800  1
  C  35  1  0.13662200  0.58964567  0.49423533  1
  C  36  1  0.13732600  0.56007100  0.49779467  1
  C  37  1  0.00225800  0.46596200  0.41564500  1
  C  38  1  0.12471500  0.47010267  0.39948100  1
  C  39  1  0.12416800  0.47377000  0.36986433  1
  C  40  1  0.00130000  0.47314433  0.35567233  1
  C  41  1  0.87900500  0.46972100  0.37166167  1
  C  42  1  0.87919900  0.46603800  0.40128733  1
  C  43  1  0.01526600  0.32770900  0.55356067  1
  C  44  1  0.13739700  0.31374600  0.55227633  1
  C  45  1  0.89292400  0.31125767  0.55882900  1
  C  46  1  0.89260000  0.28171833  0.56232200  1
  C  47  1  0.01441000  0.26787900  0.56040800  1
  C  48  1  0.13667300  0.28422000  0.55571867  1
  C  79  1  0.01300100  0.51364967  0.04053800  1
  C  80  1  0.01000700  0.52956700  0.00885200  1
  C  81  1  0.00838700  0.50833767  0.99871400  1
  C  83  1  0.01236300  0.48230667  0.05053600  1
  C  84  1  0.01400000  0.45842400  0.08174067  1
  C  85  1  0.01145600  0.42658900  0.09159800  1
  C  87  1  0.00709500  0.38209367  0.09150367  1
  C  88  1  0.00667900  0.37540533  0.12196400  1
  C  89  1  0.00916700  0.40273300  0.12202100  1
  C  90  1  0.00573800  0.36020533  0.08153233  1
  C  91  1  0.00832000  0.36769900  0.05028167  1
  C  93  1  0.01241300  0.39373000  0.99846067  1
  C  94  1  0.01298600  0.36238667  0.00845867  1
  C  95  1  0.00988100  0.34646967  0.04014233  1
  C  96  1  0.01414600  0.41761000  0.96725467  1
  C  97  1  0.01163000  0.44944300  0.95739800  1
  C  99  1  0.00724100  0.49393833  0.95749400  1
  C  100  1  0.00672100  0.50062167  0.92703400  1
  C  101  1  0.00926300  0.47329567  0.92697600  1
  C  102  1  0.00583900  0.51582633  0.96746500  1
  C  103  1  0.00377800  0.54741400  0.94413233  1
  C  104  1  0.88065700  0.56181600  0.92993667  1
  C  105  1  0.88049400  0.59136933  0.90388633  1
  C  106  1  0.00282000  0.60726167  0.89116833  1
  C  107  1  0.12574200  0.59304400  0.90593100  1
  C  108  1  0.12629400  0.56348300  0.93196133  1
  C  109  1  0.01627900  0.40946933  0.94384600  1
  C  110  1  0.89388700  0.40408600  0.93279300  1
  C  111  1  0.89335000  0.40048267  0.90681333  1
  C  112  1  0.01501700  0.40235367  0.89101467  1
  C  113  1  0.13731200  0.40721567  0.90249933  1
  C  114  1  0.13824000  0.41076767  0.92851800  1
  C  115  1  0.00358400  0.32861433  0.10485133  1
  C  116  1  0.12605100  0.31249800  0.11684033  1
  C  117  1  0.12551000  0.28287967  0.14278633  1
  C  118  1  0.00263800  0.26863633  0.15763467  1
  C  119  1  0.88034200  0.28458300  0.14510767  1
  C  120  1  0.88052000  0.31420567  0.11915900  1
  C  121  1  0.01614100  0.46655000  0.10516067  1
  C  122  1  0.13819400  0.46534533  0.12037467  1
  C  123  1  0.89368900  0.47174933  0.11636900  1
  C  124  1  0.89317800  0.47525033  0.14241000  1
  C  125  1  0.01491100  0.47342333  0.15812967  1
  C  126  1  0.13724600  0.46874767  0.14648233  1
  C  157  1  0.01369600  0.95351500  0.43225900  1
  C  158  1  0.01054500  0.92182900  0.44802333  1
  C  159  1  0.00890400  0.91168400  0.47939300  1
  C  161  1  0.01306200  0.96350700  0.45361000  1
  C  162  1  0.01481900  0.99470967  0.44629400  1
  C  163  1  0.01219000  0.00455800  0.46827800  1
  C  165  1  0.00758600  0.00445200  0.51287433  1
  C  166  1  0.00718700  0.03491300  0.48910633  1
  C  167  1  0.00984000  0.03497833  0.46171800  1
  C  168  1  0.00613300  0.99447333  0.54473500  1
  C  169  1  0.00883800  0.96322300  0.56848700  1
  C  171  1  0.01308200  0.91140400  0.59426633  1
  C  172  1  0.01369500  0.92139600  0.61561700  1
  C  173  1  0.01047500  0.95307900  0.59985533  1
  C  174  1  0.01484600  0.88020100  0.60158433  1
  C  175  1  0.01223200  0.87035000  0.57960467  1
  C  177  1  0.00774400  0.87045567  0.53501000  1
  C  178  1  0.00725700  0.83999400  0.55878000  1
  C  179  1  0.00985100  0.83993000  0.58616800  1
  C  180  1  0.00629900  0.88043300  0.50314933  1
  C  181  1  0.00409200  0.85710600  0.49488700  1
  C  182  1  0.88085800  0.84289400  0.49474233  1
  C  183  1  0.88042900  0.81686000  0.49121167  1
  C  184  1  0.00262800  0.80414200  0.48799567  1
  C  185  1  0.12567700  0.81889567  0.48742633  1
  C  186  1  0.12646700  0.84492900  0.49095100  1
  C  187  1  0.01708900  0.85678600  0.63313133  1
  C  188  1  0.89474300  0.84569300  0.64962633  1
  C  189  1  0.89433300  0.81974600  0.67923133  1
  C  190  1  0.01604500  0.80399000  0.69309067  1
  C  191  1  0.13827400  0.81550500  0.67666800  1
  C  192  1  0.13912100  0.84152433  0.64709833  1
  C  193  1  0.00385400  0.01778700  0.55301333  1
  C  194  1  0.12618800  0.02987300  0.55708067  1
  C  195  1  0.12541400  0.05580233  0.56077933  1
  C  196  1  0.00242400  0.07057633  0.56020367  1
  C  197  1  0.88024600  0.05796867  0.55682700  1
  C  198  1  0.88068200  0.03203633  0.55312567  1
  C  199  1  0.01704300  0.01813567  0.41475000  1
  C  200  1  0.13910900  0.03340867  0.40073100  1
  C  201  1  0.89464700  0.02929200  0.39835467  1
  C  202  1  0.89420200  0.05535767  0.36882967  1
  C  203  1  0.01596900  0.07110733  0.35490733  1
  C  204  1  0.13825400  0.05950167  0.37121200  1
  C  235  1  0.96679000  0.47734200  0.22798133  1
  C  237  1  0.14073000  0.47311767  0.26320400  1
  C  238  1  0.04425000  0.47536400  0.28270667  1
  C  240  1  0.86900600  0.47965600  0.24742700  1
  C  245  1  0.93319400  0.47783900  0.20090867  1
  C  247  1  0.08087300  0.47401933  0.30995700  1
  C  249  1  0.96800000  0.14094800  0.28115033  1
  C  251  1  0.14199200  0.17621367  0.25009800  1
  C  252  1  0.04554200  0.19569100  0.22837933  1
  C  254  1  0.87024300  0.16036933  0.25942000  1
  C  259  1  0.93434900  0.11387167  0.30774000  1
  C  261  1  0.08220000  0.22294533  0.20245500  1
  C  263  1  0.96681900  0.19409733  0.56433900  1
  C  265  1  0.14105500  0.16313800  0.56009267  1
  C  266  1  0.04475600  0.14135433  0.56237733  1
  C  268  1  0.86920900  0.17230333  0.56669000  1
  C  273  1  0.93297800  0.22068200  0.56480800  1
  C  275  1  0.08161200  0.11545300  0.56103567  1
  C  277  1  0.96693100  0.39781733  0.82151600  1
  C  279  1  0.14080200  0.40196400  0.78625067  1
  C  280  1  0.04437600  0.39943267  0.76693567  1
  C  282  1  0.86919800  0.39521600  0.80226167  1
  C  287  1  0.93334200  0.39750000  0.84851300  1
  C  289  1  0.08099000  0.40060900  0.73975033  1
  C  291  1  0.96815500  0.73447800  0.76715600  1
  C  293  1  0.14206800  0.69927500  0.79820467  1
  C  294  1  0.04567300  0.67992700  0.82009000  1
  C  296  1  0.87045400  0.71518700  0.78905233  1
  C  301  1  0.93451700  0.76146300  0.74049200  1
  C  303  1  0.08231200  0.65275400  0.84608333  1
  C  305  1  0.96698200  0.68009667  0.48485700  1
  C  307  1  0.14113600  0.71116000  0.48894267  1
  C  308  1  0.04488800  0.73304267  0.48643367  1
  C  310  1  0.86943100  0.70198833  0.48228033  1
  C  315  1  0.93316000  0.65342033  0.48456700  1
  C  317  1  0.08173400  0.75904600  0.48758567  1
  H  49  1  0.22627600  0.27510167  0.55375800  1
  H  50  1  0.22700500  0.32548333  0.54760333  1
  H  51  1  0.80163600  0.27094267  0.56523033  1
  H  52  1  0.80254800  0.32115600  0.55897233  1
  H  53  1  0.01394400  0.32187967  0.61069667  1
  H  54  1  0.00867100  0.35084933  0.63994700  1
  H  55  1  0.00709100  0.41345133  0.54844800  1
  H  56  1  0.00714600  0.46034000  0.50165633  1
  H  57  1  0.00764300  0.35358333  0.49147867  1
  H  58  1  0.00370100  0.40388267  0.44130000  1
  H  59  1  0.21556700  0.46934067  0.40962500  1
  H  60  1  0.21492900  0.47609500  0.35916067  1
  H  61  1  0.78925700  0.46229367  0.41275900  1
  H  62  1  0.78849100  0.46886567  0.36220633  1
  H  63  1  0.00836200  0.52294633  0.41015500  1
  H  64  1  0.01375600  0.55191433  0.43939900  1
  H  65  1  0.00354900  0.46991767  0.60879467  1
  H  66  1  0.00745400  0.52021667  0.55861267  1
  H  67  1  0.80262500  0.55266767  0.49100233  1
  H  68  1  0.80176400  0.60298000  0.48451067  1
  H  69  1  0.22689400  0.54832833  0.50251267  1
  H  70  1  0.22623000  0.59880500  0.49612200  1
  H  71  1  0.21584600  0.40481933  0.64027467  1
  H  72  1  0.21522300  0.39834200  0.69062767  1
  H  73  1  0.78862900  0.40497167  0.68793967  1
  H  74  1  0.78939800  0.41126867  0.63750200  1
  H  127  1  0.22680800  0.46685833  0.15753167  1
  H  128  1  0.22786100  0.46068533  0.11331800  1
  H  129  1  0.80213800  0.47810167  0.15030033  1
  H  130  1  0.80336900  0.47183267  0.10635233  1
  H  131  1  0.01487000  0.52367967  0.05384833  1
  H  132  1  0.00972400  0.55291933  0.99562933  1
  H  133  1  0.00841300  0.46141667  0.02454200  1
  H  134  1  0.00852800  0.41462000  0.02445567  1
  H  135  1  0.00890800  0.40446300  0.14138067  1
  H  136  1  0.00509000  0.35427733  0.14127000  1
  H  137  1  0.21690400  0.32268167  0.10744100  1
  H  138  1  0.21627700  0.27221833  0.15115467  1
  H  139  1  0.79058300  0.32565567  0.11148433  1
  H  140  1  0.78983900  0.27510467  0.15546400  1
  H  141  1  0.00950500  0.32311667  0.05336367  1
  H  142  1  0.01480400  0.35235467  0.99514933  1
  H  143  1  0.00493700  0.52174667  0.90772833  1
  H  144  1  0.00877100  0.47156133  0.90761900  1
  H  145  1  0.80359700  0.40394733  0.94287700  1
  H  146  1  0.80233900  0.39747067  0.89905567  1
  H  147  1  0.22789700  0.41550267  0.93549267  1
  H  148  1  0.22684300  0.40912400  0.89140067  1
  H  149  1  0.21714200  0.55330733  0.94130500  1
  H  150  1  0.21652000  0.60368500  0.89745133  1
  H  151  1  0.78994400  0.60083867  0.89360867  1
  H  152  1  0.79069500  0.55037800  0.93772867  1
  H  205  1  0.22784500  0.07057267  0.36203367  1
  H  206  1  0.22875200  0.02635867  0.41242500  1
  H  207  1  0.80321500  0.06319033  0.35808200  1
  H  208  1  0.80431200  0.01924333  0.40830533  1
  H  209  1  0.01564600  0.96682967  0.40892000  1
  H  210  1  0.01029700  0.90860900  0.43789000  1
  H  211  1  0.00900100  0.93750400  0.50049433  1
  H  212  1  0.00903000  0.93740433  0.54738367  1
  H  213  1  0.00954300  0.05434067  0.44063100  1
  H  214  1  0.00548800  0.05421667  0.49093267  1
  H  215  1  0.21710800  0.02049567  0.55632500  1
  H  216  1  0.21609900  0.06422033  0.56305767  1
  H  217  1  0.79081600  0.02429100  0.54939967  1
  H  218  1  0.78966700  0.06827967  0.55594967  1
  H  219  1  0.01008300  0.96629600  0.60999200  1
  H  220  1  0.01556400  0.90808300  0.63895700  1
  H  221  1  0.00548500  0.82068933  0.55695867  1
  H  222  1  0.00947600  0.82056900  0.60725733  1
  H  223  1  0.80444700  0.85577400  0.63974633  1
  H  224  1  0.80337300  0.81195900  0.69005500  1
  H  225  1  0.22870700  0.84850333  0.63532767  1
  H  226  1  0.22780500  0.80442100  0.68580367  1
  H  227  1  0.21740100  0.85427000  0.49175667  1
  H  228  1  0.21637900  0.81041000  0.48524667  1
  H  229  1  0.78979400  0.80656800  0.49208100  1
  H  230  1  0.79096300  0.85068700  0.49841000  1
  H  241  1  0.24174000  0.47057233  0.26836500  1
  H  246  1  0.83672300  0.48041567  0.19459700  1
  H  248  1  0.17828600  0.47164233  0.31563500  1
  H  255  1  0.24301700  0.18139400  0.24744467  1
  H  260  1  0.83784800  0.10755267  0.31151533  1
  H  262  1  0.17965900  0.22860867  0.19907800  1
  H  269  1  0.24210500  0.16054433  0.55753400  1
  H  274  1  0.83640500  0.22444467  0.56729833  1
  H  276  1  0.17909700  0.11214333  0.55870533  1
  H  283  1  0.24176600  0.40458967  0.78099967  1
  H  288  1  0.83691800  0.39486100  0.85490500  1
  H  290  1  0.17836600  0.40305667  0.73399367  1
  H  297  1  0.24303200  0.69405933  0.80078433  1
  H  302  1  0.83811700  0.76784600  0.73680867  1
  H  304  1  0.17966800  0.64700733  0.84933233  1
  H  311  1  0.24213500  0.71375367  0.49153200  1
  H  316  1  0.83669800  0.64970433  0.48194867  1
  H  318  1  0.17915800  0.76233367  0.48997800  1
  N  4  1  0.00849200  0.39437233  0.56748000  1
  N  8  1  0.00883200  0.41215900  0.50004900  1
  N  14  1  0.00857900  0.47941867  0.48262267  1
  N  20  1  0.00894500  0.46163733  0.55004833  1
  N  75  1  0.02187600  0.63313267  0.48817367  1
  N  76  1  0.99257300  0.47471900  0.32843667  1
  N  77  1  0.02180000  0.24086900  0.56144700  1
  N  78  1  0.99274500  0.39962867  0.72143933  1
  N  82  1  0.00970400  0.48045033  0.02458467  1
  N  86  1  0.01001200  0.41302400  0.07423900  1
  N  92  1  0.00973900  0.39558600  0.02441100  1
  N  98  1  0.01021000  0.46300800  0.97475900  1
  N  153  1  0.02221100  0.40114733  0.86513000  1
  N  154  1  0.99391500  0.24141367  0.18331733  1
  N  155  1  0.02210800  0.47443367  0.18411700  1
  N  156  1  0.99407100  0.63441333  0.86540667  1
  N  160  1  0.01031200  0.93755100  0.48141467  1
  N  164  1  0.01064600  0.98719400  0.49920233  1
  N  170  1  0.01031300  0.93735800  0.56646233  1
  N  176  1  0.01076800  0.88771500  0.54868000  1
  N  231  1  0.02331500  0.77810100  0.72017367  1
  N  232  1  0.99347400  0.09625400  0.56174567  1
  N  233  1  0.02323800  0.09709133  0.32790467  1
  N  234  1  0.99364700  0.77836100  0.48664467  1
  N  236  1  0.09862200  0.47413267  0.23707100  1
  N  239  1  0.91253800  0.47851500  0.27368567  1
  N  242  1  0.72968200  0.48291067  0.24027233  1
  N  250  1  0.09984700  0.15006833  0.27522900  1
  N  253  1  0.91381500  0.18663800  0.23428767  1
  N  256  1  0.73090700  0.15318067  0.26336067  1
  N  264  1  0.09871900  0.18825067  0.56110400  1
  N  267  1  0.91296800  0.14719000  0.56555467  1
  N  270  1  0.72983300  0.17616400  0.56998033  1
  N  278  1  0.09870700  0.40111367  0.81232067  1
  N  281  1  0.91271500  0.39619267  0.77606267  1
  N  284  1  0.72993500  0.39184433  0.80954200  1
  N  292  1  0.09993500  0.72532933  0.77300000  1
  N  295  1  0.91400700  0.68900667  0.81425533  1
  N  298  1  0.73118500  0.72241500  0.78519967  1
  N  306  1  0.09881900  0.68595200  0.48811267  1
  N  309  1  0.91316600  0.72719967  0.48323500  1
  N  312  1  0.73012100  0.69812533  0.47895433  1
  O  243  1  0.66392800  0.46100833  0.26101200  1
  O  244  1  0.68535500  0.50738500  0.23784367  1
  O  257  1  0.66518900  0.17390467  0.26454067  1
  O  258  1  0.68657600  0.15073833  0.24132933  1
  O  271  1  0.66419100  0.17729367  0.54810200  1
  O  272  1  0.68556700  0.15411267  0.59447300  1
  O  285  1  0.66377500  0.41358600  0.78876733  1
  O  286  1  0.68606900  0.36723533  0.81220833  1
  O  299  1  0.66503000  0.70161533  0.78425900  1
  O  300  1  0.68734000  0.72506433  0.80715867  1
  O  313  1  0.66403300  0.69718800  0.50071167  1
  O  314  1  0.68634700  0.72007833  0.45435500  1
