# generated using pymatgen
data_NiH10C16(NO)4
_symmetry_space_group_name_H-M   'P 1'
_cell_length_a   8.46616000
_cell_length_b   15.10963000
_cell_length_c   15.10963000
_cell_angle_alpha   89.99641000
_cell_angle_beta   90.00000000
_cell_angle_gamma   90.00000000
_symmetry_Int_Tables_number   1
_chemical_formula_structural   NiH10C16(NO)4
_chemical_formula_sum   'Ni4 H40 C64 N16 O16'
_cell_volume   1932.83210238
_cell_formula_units_Z   4
loop_
 _symmetry_equiv_pos_site_id
 _symmetry_equiv_pos_as_xyz
  1  'x, y, z'
loop_
 _atom_site_type_symbol
 _atom_site_label
 _atom_site_symmetry_multiplicity
 _atom_site_fract_x
 _atom_site_fract_y
 _atom_site_fract_z
 _atom_site_occupancy
  Ni  Ni0  1  0.00000000  0.25320000  0.25320000  1
  Ni  Ni1  1  0.50000000  0.74680000  0.74680000  1
  Ni  Ni2  1  0.25000000  0.24720000  0.75280000  1
  Ni  Ni3  1  0.75000000  0.75280000  0.24721000  1
  H  H4  1  0.19510000  0.27863000  0.07658000  1
  H  H5  1  0.08855000  0.26729000  0.92345000  1
  H  H6  1  0.76362000  0.26124000  0.84744000  1
  H  H7  1  0.42266000  0.21986000  0.05522000  1
  H  H8  1  0.63416000  0.22901000  0.17100000  1
  H  H9  1  0.69511000  0.72137000  0.92343000  1
  H  H10  1  0.58855000  0.73271000  0.07655000  1
  H  H11  1  0.26362000  0.73876000  0.15256000  1
  H  H12  1  0.92266000  0.78014000  0.94478000  1
  H  H13  1  0.13416000  0.77099000  0.82900000  1
  H  H14  1  0.44579000  0.42398000  0.77806000  1
  H  H15  1  0.33837000  0.57708000  0.76753000  1
  H  H16  1  0.01391000  0.65277000  0.76123000  1
  H  H17  1  0.67310000  0.44481000  0.72017000  1
  H  H18  1  0.88494000  0.32915000  0.72940000  1
  H  H19  1  0.94579000  0.57602000  0.22194000  1
  H  H20  1  0.83837000  0.42292000  0.23247000  1
  H  H21  1  0.51391000  0.34723000  0.23877000  1
  H  H22  1  0.17310000  0.55519000  0.27983000  1
  H  H23  1  0.38494000  0.67085000  0.27060000  1
  H  H24  1  0.05421000  0.22194000  0.57602000  1
  H  H25  1  0.16163000  0.23247000  0.42292000  1
  H  H26  1  0.48609000  0.23877000  0.34723000  1
  H  H27  1  0.82690000  0.27983000  0.55519000  1
  H  H28  1  0.61507000  0.27060000  0.67085000  1
  H  H29  1  0.55421000  0.77806000  0.42398000  1
  H  H30  1  0.66164000  0.76753000  0.57708000  1
  H  H31  1  0.98609000  0.76123000  0.65277000  1
  H  H32  1  0.32690000  0.72017000  0.44481000  1
  H  H33  1  0.11507000  0.72940000  0.32915000  1
  H  H34  1  0.80490000  0.07658000  0.27863000  1
  H  H35  1  0.91145000  0.92345000  0.26729000  1
  H  H36  1  0.23638000  0.84744000  0.26124000  1
  H  H37  1  0.57734000  0.05522000  0.21986000  1
  H  H38  1  0.36584000  0.17100000  0.22901000  1
  H  H39  1  0.30490000  0.92342000  0.72137000  1
  H  H40  1  0.41145000  0.07655000  0.73271000  1
  H  H41  1  0.73638000  0.15256000  0.73876000  1
  H  H42  1  0.07734000  0.94478000  0.78014000  1
  H  H43  1  0.86584000  0.82900000  0.77099000  1
  C  C44  1  0.45069000  0.24234000  0.87857000  1
  C  C45  1  0.57972000  0.24184000  0.94541000  1
  C  C46  1  0.54445000  0.23191000  0.03651000  1
  C  C47  1  0.66105000  0.23601000  0.10113000  1
  C  C48  1  0.81725000  0.25014000  0.07354000  1
  C  C49  1  0.85252000  0.25695000  0.98186000  1
  C  C50  1  0.73593000  0.25380000  0.91709000  1
  C  C51  1  0.07152000  0.26952000  0.06124000  1
  C  C52  1  0.95069000  0.75766000  0.12144000  1
  C  C53  1  0.07972000  0.75816000  0.05459000  1
  C  C54  1  0.04445000  0.76809000  0.96349000  1
  C  C55  1  0.16105000  0.76399000  0.89887000  1
  C  C56  1  0.31725000  0.74986000  0.92646000  1
  C  C57  1  0.35252000  0.74305000  0.01814000  1
  C  C58  1  0.23593000  0.74620000  0.08291000  1
  C  C59  1  0.57152000  0.73048000  0.93877000  1
  C  C60  1  0.70135000  0.62166000  0.74239000  1
  C  C61  1  0.83010000  0.55471000  0.74173000  1
  C  C62  1  0.79492000  0.46362000  0.73185000  1
  C  C63  1  0.91163000  0.39907000  0.73598000  1
  C  C64  1  0.06776000  0.42677000  0.74997000  1
  C  C65  1  0.10286000  0.51843000  0.75691000  1
  C  C66  1  0.98623000  0.58313000  0.75373000  1
  C  C67  1  0.32201000  0.43916000  0.76946000  1
  C  C68  1  0.20135000  0.37834000  0.25761000  1
  C  C69  1  0.33010000  0.44529000  0.25828000  1
  C  C70  1  0.29492000  0.53638000  0.26815000  1
  C  C71  1  0.41163000  0.60093000  0.26402000  1
  C  C72  1  0.56776000  0.57323000  0.25003000  1
  C  C73  1  0.60286000  0.48157000  0.24309000  1
  C  C74  1  0.48623000  0.41687000  0.24627000  1
  C  C75  1  0.82201000  0.56084000  0.23055000  1
  C  C76  1  0.79865000  0.25761000  0.37834000  1
  C  C77  1  0.66990000  0.25827000  0.44529000  1
  C  C78  1  0.70508000  0.26815000  0.53638000  1
  C  C79  1  0.58837000  0.26402000  0.60093000  1
  C  C80  1  0.43224000  0.25003000  0.57324000  1
  C  C81  1  0.39714000  0.24309000  0.48157000  1
  C  C82  1  0.51377000  0.24627000  0.41687000  1
  C  C83  1  0.17799000  0.23054000  0.56084000  1
  C  C84  1  0.29865000  0.74239000  0.62166000  1
  C  C85  1  0.16990000  0.74173000  0.55471000  1
  C  C86  1  0.20508000  0.73185000  0.46363000  1
  C  C87  1  0.08837000  0.73598000  0.39908000  1
  C  C88  1  0.93224000  0.74997000  0.42677000  1
  C  C89  1  0.89714000  0.75691000  0.51843000  1
  C  C90  1  0.01377000  0.75373000  0.58313000  1
  C  C91  1  0.67799000  0.76946000  0.43917000  1
  C  C92  1  0.54931000  0.87857000  0.24235000  1
  C  C93  1  0.42028000  0.94541000  0.24184000  1
  C  C94  1  0.45556000  0.03651000  0.23191000  1
  C  C95  1  0.33895000  0.10113000  0.23601000  1
  C  C96  1  0.18275000  0.07354000  0.25014000  1
  C  C97  1  0.14748000  0.98186000  0.25695000  1
  C  C98  1  0.26407000  0.91709000  0.25380000  1
  C  C99  1  0.92848000  0.06124000  0.26952000  1
  C  C100  1  0.04931000  0.12143000  0.75766000  1
  C  C101  1  0.92028000  0.05459000  0.75816000  1
  C  C102  1  0.95556000  0.96349000  0.76810000  1
  C  C103  1  0.83895000  0.89887000  0.76400000  1
  C  C104  1  0.68275000  0.92646000  0.74986000  1
  C  C105  1  0.64748000  0.01814000  0.74305000  1
  C  C106  1  0.76407000  0.08291000  0.74620000  1
  C  C107  1  0.42848000  0.93876000  0.73048000  1
  N  N108  1  0.95757000  0.25907000  0.12121000  1
  N  N109  1  0.01509000  0.26883000  0.97729000  1
  N  N110  1  0.45757000  0.74093000  0.87879000  1
  N  N111  1  0.51509000  0.73117000  0.02272000  1
  N  N112  1  0.20808000  0.37917000  0.75891000  1
  N  N113  1  0.26532000  0.52308000  0.76896000  1
  N  N114  1  0.70809000  0.62083000  0.24110000  1
  N  N115  1  0.76532000  0.47692000  0.23105000  1
  N  N116  1  0.29192000  0.24109000  0.62083000  1
  N  N117  1  0.23468000  0.23104000  0.47692000  1
  N  N118  1  0.79192000  0.75891000  0.37917000  1
  N  N119  1  0.73468000  0.76896000  0.52308000  1
  N  N120  1  0.04243000  0.12121000  0.25907000  1
  N  N121  1  0.98492000  0.97729000  0.26884000  1
  N  N122  1  0.54243000  0.87879000  0.74094000  1
  N  N123  1  0.48491000  0.02271000  0.73117000  1
  O  O124  1  0.30602000  0.24098000  0.90218000  1
  O  O125  1  0.48607000  0.24580000  0.79548000  1
  O  O126  1  0.80602000  0.75902000  0.09782000  1
  O  O127  1  0.98608000  0.75420000  0.20452000  1
  O  O128  1  0.55641000  0.59832000  0.74097000  1
  O  O129  1  0.73770000  0.70457000  0.74600000  1
  O  O130  1  0.05641000  0.40168000  0.25903000  1
  O  O131  1  0.23770000  0.29543000  0.25400000  1
  O  O132  1  0.94360000  0.25903000  0.40168000  1
  O  O133  1  0.76230000  0.25400000  0.29543000  1
  O  O134  1  0.44359000  0.74097000  0.59832000  1
  O  O135  1  0.26230000  0.74600000  0.70457000  1
  O  O136  1  0.69398000  0.90218000  0.24098000  1
  O  O137  1  0.51393000  0.79548000  0.24580000  1
  O  O138  1  0.19398000  0.09782000  0.75902000  1
  O  O139  1  0.01392000  0.20452000  0.75420000  1
