# generated using pymatgen
data_Cu2H16C37O8
_symmetry_space_group_name_H-M   'P 1'
_cell_length_a   11.34004000
_cell_length_b   12.17765716
_cell_length_c   17.26273001
_cell_angle_alpha   72.45925518
_cell_angle_beta   87.50409814
_cell_angle_gamma   81.74195899
_symmetry_Int_Tables_number   1
_chemical_formula_structural   Cu2H16C37O8
_chemical_formula_sum   'Cu2 H16 C37 O8'
_cell_volume   2249.48546461
_cell_formula_units_Z   1
loop_
 _symmetry_equiv_pos_site_id
 _symmetry_equiv_pos_as_xyz
  1  'x, y, z'
loop_
 _atom_site_type_symbol
 _atom_site_label
 _atom_site_symmetry_multiplicity
 _atom_site_fract_x
 _atom_site_fract_y
 _atom_site_fract_z
 _atom_site_occupancy
  Cu  Cu0  1  0.43438000  0.68868000  0.49178000  1
  Cu  Cu1  1  0.55433000  0.83625000  0.49617000  1
  H  H2  1  0.24218000  0.30713000  0.24609000  1
  H  H3  1  0.35285000  0.15032000  0.35838000  1
  H  H4  1  0.72463000  0.85539000  0.25256000  1
  H  H5  1  0.83610000  0.80071000  0.13813000  1
  H  H6  1  0.13978000  0.77068000  0.64639000  1
  H  H7  1  0.04598000  0.68735000  0.78111000  1
  H  H8  1  0.38475000  0.64271000  0.89823000  1
  H  H9  1  0.47504000  0.73710000  0.76398000  1
  H  H10  1  0.21745000  0.89092000  0.27874000  1
  H  H11  1  0.10890000  0.04680000  0.16474000  1
  H  H12  1  0.77763000  0.44518000  0.24713000  1
  H  H13  1  0.66085000  0.50181000  0.35874000  1
  H  H14  1  0.85215000  0.62471000  0.63942000  1
  H  H15  1  0.95450000  0.54511000  0.77386000  1
  H  H16  1  0.63338000  0.41615000  0.88286000  1
  H  H17  1  0.53511000  0.48655000  0.74684000  1
  C  C18  1  0.29335000  0.01153000  0.32432000  1
  C  C19  1  0.17033000  0.18688000  0.19735000  1
  C  C20  1  0.23832000  0.21593000  0.25318000  1
  C  C21  1  0.29943000  0.12906000  0.31557000  1
  C  C22  1  0.73688000  0.76605000  0.25068000  1
  C  C23  1  0.79920000  0.73552000  0.18718000  1
  C  C24  1  0.31321000  0.75738000  0.69711000  1
  C  C25  1  0.19159000  0.74500000  0.70201000  1
  C  C26  1  0.13995000  0.69751000  0.77661000  1
  C  C27  1  0.21002000  0.65648000  0.84807000  1
  C  C28  1  0.33082000  0.67337000  0.84338000  1
  C  C29  1  0.38131000  0.72557000  0.76839000  1
  C  C30  1  0.22298000  0.98212000  0.27051000  1
  C  C31  1  0.16247000  0.06879000  0.20726000  1
  C  C32  1  0.68738000  0.68169000  0.31267000  1
  C  C33  1  0.81518000  0.61894000  0.18598000  1
  C  C34  1  0.76504000  0.53461000  0.24862000  1
  C  C35  1  0.70069000  0.56596000  0.31081000  1
  C  C36  1  0.68727000  0.56093000  0.68509000  1
  C  C37  1  0.80602000  0.57658000  0.69259000  1
  C  C38  1  0.86233000  0.53377000  0.76734000  1
  C  C39  1  0.79952000  0.47873000  0.83750000  1
  C  C40  1  0.68182000  0.45951000  0.82937000  1
  C  C41  1  0.62673000  0.49905000  0.75329000  1
  C  C42  1  0.00435000  0.47238000  0.02583000  1
  C  C43  1  0.88107000  0.58152000  0.12466000  1
  C  C44  1  0.93711000  0.53738000  0.07716000  1
  C  C45  1  0.92179000  0.45225000  0.96877000  1
  C  C46  1  0.85843000  0.45501000  0.91303000  1
  C  C47  1  0.15388000  0.59452000  0.92008000  1
  C  C48  1  0.09157000  0.54047000  0.97312000  1
  C  C49  1  0.11161000  0.27821000  0.13344000  1
  C  C50  1  0.06477000  0.36327000  0.08120000  1
  C  C51  1  0.62414000  0.62214000  0.60694000  1
  C  C52  1  0.61845000  0.71236000  0.38038000  1
  C  C53  1  0.36485000  0.91948000  0.38886000  1
  C  C54  1  0.37137000  0.78396000  0.61555000  1
  O  O55  1  0.53040000  0.58677000  0.59056000  1
  O  O56  1  0.66817000  0.71227000  0.56274000  1
  O  O57  1  0.54992000  0.63871000  0.41967000  1
  O  O58  1  0.63087000  0.80713000  0.39450000  1
  O  O59  1  0.35319000  0.81343000  0.39757000  1
  O  O60  1  0.43517000  0.95396000  0.43045000  1
  O  O61  1  0.32371000  0.74370000  0.56520000  1
  O  O62  1  0.46401000  0.83520000  0.60201000  1
