# generated using pymatgen
data_H24C45(N4O)2
_symmetry_space_group_name_H-M   'P 1'
_cell_length_a   32.50560000
_cell_length_b   39.65110000
_cell_length_c   61.31260000
_cell_angle_alpha   90.00000000
_cell_angle_beta   90.00000000
_cell_angle_gamma   90.00220000
_symmetry_Int_Tables_number   1
_chemical_formula_structural   H24C45(N4O)2
_chemical_formula_sum   'H192 C360 N64 O16'
_cell_volume   79024.75526958
_cell_formula_units_Z   8
loop_
 _symmetry_equiv_pos_site_id
 _symmetry_equiv_pos_as_xyz
  1  'x, y, z'
loop_
 _atom_site_type_symbol
 _atom_site_label
 _atom_site_symmetry_multiplicity
 _atom_site_fract_x
 _atom_site_fract_y
 _atom_site_fract_z
 _atom_site_occupancy
  H  25  1  0.36591600  0.02448600  0.18389700  1
  H  26  1  0.29415100  0.02031200  0.19073900  1
  H  27  1  0.21979200  0.02160200  0.19086300  1
  H  28  1  0.14809100  0.02865000  0.18485400  1
  H  29  1  0.17083500  0.12116200  0.15204500  1
  H  30  1  0.34746200  0.11789200  0.15145000  1
  H  31  1  0.26174800  0.14186500  0.20207600  1
  H  32  1  0.26770400  0.24485500  0.18360300  1
  H  33  1  0.26497200  0.22903000  0.14610600  1
  H  34  1  0.25850200  0.08046100  0.11699700  1
  H  35  1  0.26244500  0.20275000  0.10960500  1
  H  36  1  0.26173200  0.16847200  0.07762800  1
  H  42  1  0.41298500  0.08175700  0.14673300  1
  H  43  1  0.09773400  0.10058400  0.16019600  1
  H  44  1  0.25893200  0.07588100  0.07674800  1
  H  45  1  0.27435500  0.18803100  0.23004400  1
  H  70  1  0.15443900  0.02930900  0.83348800  1
  H  71  1  0.22699400  0.02123600  0.83080500  1
  H  72  1  0.30132200  0.02024700  0.83298900  1
  H  73  1  0.37325700  0.02745900  0.83828600  1
  H  74  1  0.35155700  0.12156200  0.86931400  1
  H  75  1  0.17358700  0.12191800  0.86671700  1
  H  76  1  0.26091600  0.14086000  0.81933900  1
  H  77  1  0.25435000  0.24443900  0.83645500  1
  H  78  1  0.25710500  0.22991100  0.87406700  1
  H  79  1  0.26260600  0.08290600  0.90589900  1
  H  80  1  0.25995000  0.20555100  0.91050900  1
  H  81  1  0.26011600  0.17316400  0.94316300  1
  H  87  1  0.10061300  0.10086500  0.85108400  1
  H  88  1  0.42454000  0.10061900  0.86021800  1
  H  89  1  0.26179100  0.08081800  0.94670400  1
  H  90  1  0.24765100  0.18653200  0.79072200  1
  H  115  1  0.87297600  0.02978800  0.83795000  1
  H  116  1  0.80106900  0.03642800  0.83204800  1
  H  117  1  0.72663300  0.03498800  0.82960300  1
  H  118  1  0.65409400  0.02676000  0.83233500  1
  H  119  1  0.67362600  0.93444100  0.86582700  1
  H  120  1  0.85136700  0.93605800  0.86944800  1
  H  121  1  0.76669500  0.91434100  0.81930800  1
  H  122  1  0.76832900  0.81129900  0.83795000  1
  H  123  1  0.76464500  0.82730200  0.87538300  1
  H  124  1  0.75992600  0.97592000  0.90439300  1
  H  125  1  0.76082800  0.85359800  0.91174100  1
  H  126  1  0.75851000  0.88782400  0.94370700  1
  H  132  1  0.92426000  0.95685200  0.86000600  1
  H  133  1  0.60024800  0.95565600  0.85011700  1
  H  134  1  0.75513700  0.98027600  0.94470000  1
  H  135  1  0.77799800  0.86773700  0.79145600  1
  H  160  1  0.64835100  0.02801000  0.18312500  1
  H  161  1  0.72004600  0.03480800  0.18919400  1
  H  162  1  0.79436200  0.03484000  0.19018600  1
  H  163  1  0.86634000  0.02897500  0.18516900  1
  H  164  1  0.84747500  0.93570700  0.15250300  1
  H  165  1  0.67054300  0.93474600  0.15107100  1
  H  166  1  0.75541400  0.91504400  0.20193900  1
  H  167  1  0.75353500  0.81132200  0.18489200  1
  H  168  1  0.75730400  0.82584600  0.14728400  1
  H  169  1  0.76053500  0.97300800  0.11548100  1
  H  170  1  0.76141300  0.85034000  0.11078600  1
  H  171  1  0.76285400  0.88281100  0.07815900  1
  H  177  1  0.59781200  0.95550500  0.15887100  1
  H  178  1  0.91669200  0.96393600  0.15228000  1
  H  179  1  0.76265800  0.97518900  0.07470500  1
  H  180  1  0.74364100  0.86912900  0.23055900  1
  H  205  1  0.86639800  0.52822500  0.68643300  1
  H  206  1  0.79443100  0.52270200  0.69173900  1
  H  207  1  0.72006900  0.52264900  0.69064600  1
  H  208  1  0.64838300  0.52912800  0.68432900  1
  H  209  1  0.67053100  0.62199800  0.65184300  1
  H  210  1  0.84756800  0.62078500  0.65296200  1
  H  211  1  0.75899400  0.64353400  0.70233500  1
  H  212  1  0.76004200  0.74667300  0.68397500  1
  H  213  1  0.75982900  0.73078200  0.64644800  1
  H  214  1  0.76030800  0.58210500  0.61722100  1
  H  215  1  0.76077200  0.70441700  0.60988100  1
  H  216  1  0.76195800  0.67015600  0.57788600  1
  H  222  1  0.91736100  0.59383500  0.65399900  1
  H  223  1  0.59768500  0.60091900  0.65946800  1
  H  224  1  0.76335900  0.57760800  0.57695500  1
  H  225  1  0.76709600  0.68922500  0.73041300  1
  H  250  1  0.65519700  0.52839900  0.33624700  1
  H  251  1  0.72713500  0.52271200  0.33108200  1
  H  252  1  0.80128300  0.52265700  0.33203000  1
  H  253  1  0.87304900  0.52922600  0.33797800  1
  H  254  1  0.85140500  0.62249200  0.37009700  1
  H  255  1  0.67403500  0.62139800  0.36921600  1
  H  256  1  0.76318400  0.64251200  0.31943400  1
  H  257  1  0.76172100  0.74626700  0.33639600  1
  H  258  1  0.76149600  0.73166500  0.37405500  1
  H  259  1  0.76175100  0.58445600  0.40594300  1
  H  260  1  0.76038800  0.70710100  0.41062000  1
  H  261  1  0.75951200  0.67464200  0.44325800  1
  H  267  1  0.60446800  0.59373400  0.36884900  1
  H  268  1  0.92425300  0.60134800  0.36182400  1
  H  269  1  0.76006500  0.58227400  0.44676300  1
  H  270  1  0.75672000  0.68735100  0.29059400  1
  H  295  1  0.37329800  0.52696400  0.33709900  1
  H  296  1  0.30159500  0.53354200  0.33088800  1
  H  297  1  0.22722200  0.53341800  0.32962600  1
  H  298  1  0.15509500  0.52742100  0.33437800  1
  H  299  1  0.17393000  0.43515600  0.36817200  1
  H  300  1  0.35113200  0.43409900  0.36959300  1
  H  301  1  0.26362700  0.41261200  0.31920400  1
  H  302  1  0.25989600  0.30953000  0.33760800  1
  H  303  1  0.25898900  0.32548200  0.37511700  1
  H  304  1  0.26254500  0.47413600  0.40431500  1
  H  305  1  0.25898900  0.35186400  0.41167100  1
  H  306  1  0.25914900  0.38613300  0.44366400  1
  H  312  1  0.42407700  0.45518300  0.36176100  1
  H  313  1  0.10272200  0.45906700  0.36361900  1
  H  314  1  0.26165800  0.47869100  0.44458700  1
  H  315  1  0.26975000  0.36674200  0.29112900  1
  H  340  1  0.14844200  0.52667700  0.68377500  1
  H  341  1  0.22017200  0.53345600  0.68967700  1
  H  342  1  0.29431200  0.53394500  0.69021700  1
  H  343  1  0.36616400  0.52897900  0.68436000  1
  H  344  1  0.34768000  0.43561500  0.65179900  1
  H  345  1  0.17042800  0.43353900  0.65156300  1
  H  346  1  0.25868900  0.41382000  0.70214300  1
  H  347  1  0.26188000  0.31008500  0.68518200  1
  H  348  1  0.26230800  0.32469000  0.64753100  1
  H  349  1  0.25907900  0.47184300  0.61560800  1
  H  350  1  0.26222400  0.34921600  0.61096900  1
  H  351  1  0.26210600  0.38164700  0.57831800  1
  H  357  1  0.09758000  0.45465100  0.65932800  1
  H  358  1  0.41549100  0.46704700  0.64945500  1
  H  359  1  0.26019000  0.47400000  0.57478600  1
  H  360  1  0.25409700  0.36885800  0.73100100  1
  H  371  1  0.26091200  0.00262600  0.98548300  1
  H  372  1  0.26064000  0.16452700  0.03208100  1
  H  373  1  0.26096100  0.16785700  0.99339000  1
  H  375  1  0.26066300  0.04630500  0.04600300  1
  H  388  1  0.76107400  0.05350400  0.03595700  1
  H  389  1  0.76064800  0.89167600  0.98926200  1
  H  390  1  0.76113700  0.88827800  0.02794900  1
  H  392  1  0.76118900  0.00988700  0.97541800  1
  H  405  1  0.76075000  0.50402900  0.48575500  1
  H  406  1  0.76077600  0.66604500  0.53216300  1
  H  407  1  0.76068400  0.66927100  0.49347400  1
  H  409  1  0.76051500  0.54788400  0.54620100  1
  H  422  1  0.26082700  0.55222200  0.53581600  1
  H  423  1  0.26077000  0.39021900  0.48939000  1
  H  424  1  0.26069400  0.38698800  0.52808100  1
  H  426  1  0.26075300  0.50838700  0.47536600  1
  H  439  1  0.92740600  0.08728400  0.11621500  1
  H  440  1  0.06265800  0.00411100  0.18765300  1
  H  441  1  0.99477500  0.98112600  0.19024500  1
  H  443  1  0.04952400  0.08908900  0.13297600  1
  H  456  1  0.59240900  0.09261700  0.90663600  1
  H  457  1  0.46137600  0.00217200  0.83674000  1
  H  458  1  0.52946800  0.97957500  0.83575200  1
  H  460  1  0.47101800  0.09138100  0.88857800  1
  H  473  1  0.09150400  0.96345400  0.90670400  1
  H  474  1  0.96147900  0.05516500  0.83694400  1
  H  475  1  0.02980900  0.07732000  0.83607000  1
  H  477  1  0.97010500  0.96567600  0.88869300  1
  H  490  1  0.42557200  0.97043300  0.11670800  1
  H  491  1  0.56352300  0.05088700  0.18801200  1
  H  492  1  0.49603100  0.07417600  0.19145300  1
  H  494  1  0.54808900  0.96753000  0.13252500  1
  H  507  1  0.42656600  0.58637500  0.61625700  1
  H  508  1  0.56310800  0.50462900  0.68766800  1
  H  509  1  0.49555800  0.48113900  0.69041300  1
  H  511  1  0.54872000  0.58920500  0.63285000  1
  H  524  1  0.09402500  0.58901000  0.40612500  1
  H  525  1  0.95979900  0.50464500  0.33474800  1
  H  526  1  0.02787400  0.48185600  0.33245200  1
  H  528  1  0.97197900  0.59008200  0.38921700  1
  H  541  1  0.59449400  0.46902900  0.40563800  1
  H  542  1  0.45901100  0.55183400  0.33417400  1
  H  543  1  0.52673600  0.57519200  0.33175900  1
  H  545  1  0.47248500  0.46667600  0.38871500  1
  H  558  1  0.92679400  0.46877400  0.61584100  1
  H  559  1  0.06251900  0.55097100  0.68747700  1
  H  560  1  0.99475000  0.57423200  0.69010000  1
  H  562  1  0.04888400  0.46637600  0.63259300  1
  H  575  1  0.18618800  0.33081800  0.20394700  1
  H  576  1  0.28912300  0.26123900  0.29407200  1
  H  577  1  0.29045200  0.22327000  0.26377800  1
  H  579  1  0.21293200  0.35517300  0.26736100  1
  H  592  1  0.33561300  0.32853300  0.81844700  1
  H  593  1  0.23261300  0.26273400  0.72714100  1
  H  594  1  0.23182300  0.22329400  0.75667300  1
  H  596  1  0.30816900  0.35584400  0.75562400  1
  H  609  1  0.68661400  0.72627800  0.81806800  1
  H  610  1  0.78881100  0.79455600  0.72729100  1
  H  611  1  0.79151700  0.83250900  0.75755600  1
  H  613  1  0.71137400  0.70163000  0.75448300  1
  H  626  1  0.83512300  0.72853800  0.20268400  1
  H  627  1  0.73281800  0.79324900  0.29452800  1
  H  628  1  0.73054300  0.83254700  0.26494200  1
  H  630  1  0.80971700  0.70111300  0.26572200  1
  C  1  1  0.25955700  0.12661000  0.13406200  1
  C  2  1  0.26074500  0.16169800  0.13175500  1
  C  3  1  0.26147300  0.17648200  0.15224900  1
  C  4  1  0.26061000  0.15122200  0.16816400  1
  C  5  1  0.26211300  0.16045000  0.19050200  1
  C  6  1  0.26436600  0.19501500  0.19678200  1
  C  7  1  0.26539700  0.21973100  0.17997400  1
  C  8  1  0.26385400  0.21075000  0.15784300  1
  C  9  1  0.26150100  0.17709200  0.11114100  1
  C  10  1  0.26110100  0.15664200  0.09244300  1
  C  11  1  0.26000500  0.12085100  0.09394600  1
  C  12  1  0.25921800  0.10611200  0.11515300  1
  C  13  1  0.29409500  0.09515000  0.16445200  1
  C  14  1  0.27926600  0.06683700  0.17555000  1
  C  15  1  0.23683200  0.06740600  0.17539100  1
  C  16  1  0.22331500  0.09629800  0.16443300  1
  C  17  1  0.20950800  0.04278200  0.18308500  1
  C  18  1  0.16739700  0.04711100  0.17925700  1
  C  19  1  0.15211800  0.07549000  0.16758900  1
  C  20  1  0.18066300  0.10050200  0.16057500  1
  C  21  1  0.33682000  0.09794500  0.16040900  1
  C  22  1  0.36415000  0.07216100  0.16751900  1
  C  23  1  0.34767100  0.04421300  0.17915900  1
  C  24  1  0.30545400  0.04140800  0.18326900  1
  C  37  1  0.25926500  0.11726000  0.15764900  1
  C  38  1  0.11015800  0.07818500  0.16315400  1
  C  39  1  0.40513900  0.07168300  0.16100900  1
  C  40  1  0.25975700  0.10076700  0.07515900  1
  C  41  1  0.26648100  0.20474400  0.21871700  1
  C  46  1  0.26199400  0.12807100  0.88770500  1
  C  47  1  0.26127400  0.16326300  0.88932300  1
  C  48  1  0.26098200  0.17716700  0.86862900  1
  C  49  1  0.26208300  0.15131400  0.85313000  1
  C  50  1  0.26061600  0.15980800  0.83066100  1
  C  51  1  0.25815200  0.19416400  0.82392700  1
  C  52  1  0.25691900  0.21944000  0.84038500  1
  C  53  1  0.25849200  0.21123400  0.86260200  1
  C  54  1  0.26053400  0.17982200  0.90953700  1
  C  55  1  0.26064600  0.16042700  0.92865100  1
  C  56  1  0.26139500  0.12456400  0.92798900  1
  C  57  1  0.26204800  0.10863200  0.90711500  1
  C  58  1  0.22758100  0.09592400  0.85733600  1
  C  59  1  0.24230400  0.06671400  0.84719100  1
  C  60  1  0.28474500  0.06664600  0.84784900  1
  C  61  1  0.29855900  0.09606700  0.85809800  1
  C  62  1  0.31184300  0.04164700  0.84041800  1
  C  63  1  0.35409200  0.04610100  0.84377400  1
  C  64  1  0.36976700  0.07504000  0.85466300  1
  C  65  1  0.34139500  0.10038500  0.86145300  1
  C  66  1  0.18452200  0.10080600  0.85907800  1
  C  67  1  0.15693100  0.07604000  0.85082000  1
  C  68  1  0.17334600  0.04734400  0.84001500  1
  C  69  1  0.21586200  0.04235800  0.83831200  1
  C  82  1  0.26271500  0.11774400  0.86423800  1
  C  83  1  0.41200000  0.07797700  0.85836800  1
  C  84  1  0.11456300  0.07879000  0.85310200  1
  C  85  1  0.26146300  0.10581300  0.94737000  1
  C  86  1  0.25588100  0.20334200  0.80191500  1
  C  91  1  0.76126200  0.92980300  0.88728400  1
  C  92  1  0.76164500  0.89470400  0.88961000  1
  C  93  1  0.76344100  0.87990000  0.86914800  1
  C  94  1  0.76422700  0.90514300  0.85321500  1
  C  95  1  0.76622900  0.89579900  0.83090800  1
  C  96  1  0.76734400  0.86116200  0.82469000  1
  C  97  1  0.76695600  0.83648700  0.84152900  1
  C  98  1  0.76489500  0.84557100  0.86362500  1
  C  99  1  0.76057100  0.87926700  0.91020800  1
  C  100  1  0.75928000  0.89968800  0.92890200  1
  C  101  1  0.75911800  0.93548800  0.92741600  1
  C  102  1  0.75998400  0.95026400  0.90621200  1
  C  103  1  0.79844500  0.96112400  0.85775000  1
  C  104  1  0.78455700  0.99014700  0.84707600  1
  C  105  1  0.74213300  0.98956700  0.84599700  1
  C  106  1  0.72753400  0.96029200  0.85613200  1
  C  107  1  0.71558400  0.01376800  0.83703200  1
  C  108  1  0.67307800  0.00872400  0.83879800  1
  C  109  1  0.65677500  0.98012200  0.84975000  1
  C  110  1  0.68447700  0.95538600  0.85796600  1
  C  111  1  0.84120400  0.95709400  0.86143100  1
  C  112  1  0.86948300  0.98244000  0.85459800  1
  C  113  1  0.85381300  0.01116600  0.84347100  1
  C  114  1  0.81160200  0.01528300  0.83977200  1
  C  127  1  0.76282300  0.93915000  0.86369400  1
  C  128  1  0.61441900  0.97759300  0.85231900  1
  C  129  1  0.91165400  0.97951200  0.85836000  1
  C  130  1  0.75801500  0.95550200  0.94623600  1
  C  131  1  0.76936200  0.85128100  0.80278300  1
  C  136  1  0.76007800  0.92778300  0.13361400  1
  C  137  1  0.76018100  0.89258600  0.13199800  1
  C  138  1  0.75872500  0.87867200  0.15268800  1
  C  139  1  0.75798200  0.90454500  0.16817300  1
  C  140  1  0.75598800  0.89607600  0.19063300  1
  C  141  1  0.75478700  0.86168900  0.19739200  1
  C  142  1  0.75509900  0.83637100  0.18095000  1
  C  143  1  0.75724700  0.84457500  0.15873600  1
  C  144  1  0.76131500  0.87607200  0.11177500  1
  C  145  1  0.76213500  0.89551700  0.09268000  1
  C  146  1  0.76173000  0.93138400  0.09336400  1
  C  147  1  0.76084500  0.94728100  0.11423900  1
  C  148  1  0.72316000  0.95986000  0.16305900  1
  C  149  1  0.73682300  0.98877500  0.17392200  1
  C  150  1  0.77920700  0.98863400  0.17468200  1
  C  151  1  0.79392600  0.95977200  0.16415200  1
  C  152  1  0.80555000  0.01358600  0.18285300  1
  C  153  1  0.84794000  0.00978100  0.17975600  1
  C  154  1  0.86451800  0.98151700  0.16843800  1
  C  155  1  0.83684400  0.95613000  0.16100200  1
  C  156  1  0.68050500  0.95568400  0.15927000  1
  C  157  1  0.65210200  0.98084300  0.16618400  1
  C  158  1  0.66754700  0.00943300  0.17758700  1
  C  159  1  0.70966500  0.01366500  0.18140600  1
  C  172  1  0.75884500  0.93808500  0.15705900  1
  C  173  1  0.90628600  0.98053600  0.16312500  1
  C  174  1  0.61008800  0.97789300  0.16203400  1
  C  175  1  0.76200500  0.95019900  0.07401100  1
  C  176  1  0.75263300  0.85250900  0.21941300  1
  C  181  1  0.75971000  0.62823800  0.63431300  1
  C  182  1  0.75977300  0.66334600  0.63202500  1
  C  183  1  0.75922000  0.67814800  0.65253300  1
  C  184  1  0.75885300  0.65286000  0.66843500  1
  C  185  1  0.75893300  0.66214800  0.69078100  1
  C  186  1  0.75924000  0.69676300  0.69712300  1
  C  187  1  0.75939500  0.72149600  0.68032500  1
  C  188  1  0.75938200  0.71246700  0.65817300  1
  C  189  1  0.76060800  0.67874800  0.61140900  1
  C  190  1  0.76128700  0.65830500  0.59270200  1
  C  191  1  0.76113400  0.62250500  0.59417600  1
  C  192  1  0.76037700  0.60775400  0.61538700  1
  C  193  1  0.79402600  0.59716400  0.66501200  1
  C  194  1  0.77926400  0.56857200  0.67582800  1
  C  195  1  0.73682500  0.56863300  0.67531100  1
  C  196  1  0.72314300  0.59743100  0.66432200  1
  C  197  1  0.70966300  0.54374800  0.68282200  1
  C  198  1  0.66754700  0.54776300  0.67883800  1
  C  199  1  0.65208300  0.57610000  0.66720100  1
  C  200  1  0.68047600  0.60133800  0.66033400  1
  C  201  1  0.83693500  0.60054100  0.66163600  1
  C  202  1  0.86460600  0.57521300  0.66917600  1
  C  203  1  0.84800500  0.54729400  0.68083200  1
  C  204  1  0.80561800  0.54370500  0.68411100  1
  C  217  1  0.75894400  0.61886300  0.65789900  1
  C  218  1  0.61009100  0.57861700  0.66272800  1
  C  219  1  0.90643300  0.57607300  0.66388500  1
  C  220  1  0.76185900  0.60242200  0.57536600  1
  C  221  1  0.76048600  0.70637400  0.71912800  1
  C  226  1  0.76194700  0.62966500  0.38778700  1
  C  227  1  0.76164700  0.66487000  0.38940000  1
  C  228  1  0.76226300  0.67882100  0.36869400  1
  C  229  1  0.76285200  0.65294600  0.35321000  1
  C  230  1  0.76302200  0.66149800  0.33073300  1
  C  231  1  0.76271600  0.69590800  0.32391500  1
  C  232  1  0.76228000  0.72120400  0.34035900  1
  C  233  1  0.76206100  0.71293900  0.36260400  1
  C  234  1  0.76068800  0.68137100  0.40963200  1
  C  235  1  0.76017900  0.66193200  0.42873700  1
  C  236  1  0.76064800  0.62606600  0.42806900  1
  C  237  1  0.76144700  0.61018000  0.40718100  1
  C  238  1  0.72762200  0.59750700  0.35743900  1
  C  239  1  0.74232900  0.56876600  0.34676700  1
  C  240  1  0.78474600  0.56875100  0.34730400  1
  C  241  1  0.79853300  0.59767300  0.35812900  1
  C  242  1  0.81178600  0.54378800  0.33977800  1
  C  243  1  0.85395200  0.54786100  0.34354000  1
  C  244  1  0.86959000  0.57634700  0.35494700  1
  C  245  1  0.84128500  0.60164600  0.36185700  1
  C  246  1  0.68468200  0.60102800  0.36067300  1
  C  247  1  0.65697800  0.57565100  0.35321100  1
  C  248  1  0.67358600  0.54754100  0.34175200  1
  C  249  1  0.71596600  0.54384100  0.33857000  1
  C  262  1  0.76276800  0.61935000  0.36432300  1
  C  263  1  0.91170600  0.57893500  0.35906500  1
  C  264  1  0.61512400  0.57657400  0.35845200  1
  C  265  1  0.76040400  0.60727000  0.44745000  1
  C  266  1  0.76196900  0.70491400  0.30180400  1
  C  271  1  0.26170700  0.42800600  0.38722200  1
  C  272  1  0.26069100  0.39290700  0.38951700  1
  C  273  1  0.26088700  0.37809100  0.36901200  1
  C  274  1  0.26224300  0.40334800  0.35310400  1
  C  275  1  0.26265500  0.39402200  0.33076400  1
  C  276  1  0.26165900  0.35940800  0.32443300  1
  C  277  1  0.26032000  0.33471500  0.34124100  1
  C  278  1  0.25990600  0.34377600  0.36338500  1
  C  279  1  0.25971400  0.37752600  0.41013800  1
  C  280  1  0.25982800  0.39797400  0.42884700  1
  C  281  1  0.26088800  0.43376400  0.42736700  1
  C  282  1  0.26176100  0.44849700  0.40615000  1
  C  283  1  0.29848700  0.45872600  0.35719600  1
  C  284  1  0.28482400  0.48759300  0.34626300  1
  C  285  1  0.24238500  0.48771200  0.34574000  1
  C  286  1  0.22758500  0.45910500  0.35652100  1
  C  287  1  0.21602900  0.51246500  0.33730900  1
  C  288  1  0.17359200  0.50864400  0.34029500  1
  C  289  1  0.15696300  0.48068600  0.35189000  1
  C  290  1  0.18463000  0.45551100  0.35962900  1
  C  291  1  0.34117800  0.45477400  0.36112000  1
  C  292  1  0.36958600  0.48000500  0.35423900  1
  C  293  1  0.35412200  0.50835700  0.34262100  1
  C  294  1  0.31200100  0.51241000  0.33867600  1
  C  307  1  0.26261100  0.43735500  0.36363200  1
  C  308  1  0.11487100  0.47922000  0.35642600  1
  C  309  1  0.41160300  0.47752000  0.35868000  1
  C  310  1  0.26112400  0.45385100  0.44618100  1
  C  311  1  0.26275000  0.34972300  0.30243400  1
  C  316  1  0.25974900  0.42665400  0.63378200  1
  C  317  1  0.26067300  0.39145500  0.63217800  1
  C  318  1  0.26064600  0.37752100  0.65288900  1
  C  319  1  0.25958000  0.40339100  0.66836800  1
  C  320  1  0.25943900  0.39484200  0.69084700  1
  C  321  1  0.26039600  0.36044200  0.69766700  1
  C  322  1  0.26142300  0.33515400  0.68122400  1
  C  323  1  0.26158300  0.34341100  0.65897900  1
  C  324  1  0.26153900  0.37494300  0.61194900  1
  C  325  1  0.26145800  0.39436300  0.59283400  1
  C  326  1  0.26054000  0.43022500  0.59349500  1
  C  327  1  0.25972200  0.44612200  0.61437800  1
  C  328  1  0.22319700  0.45844700  0.66357500  1
  C  329  1  0.23688000  0.48742200  0.67438000  1
  C  330  1  0.27930200  0.48766900  0.67474700  1
  C  331  1  0.29409600  0.45903900  0.66398800  1
  C  332  1  0.30556000  0.51283300  0.68274100  1
  C  333  1  0.34789300  0.50953200  0.67920100  1
  C  334  1  0.36452600  0.48147000  0.66771600  1
  C  335  1  0.33698800  0.45585100  0.66046000  1
  C  336  1  0.18045600  0.45436600  0.65985100  1
  C  337  1  0.15205100  0.47958300  0.66677700  1
  C  338  1  0.16759000  0.50807400  0.67822100  1
  C  339  1  0.20974300  0.51226900  0.68196100  1
  C  352  1  0.25907200  0.43697700  0.65724500  1
  C  353  1  0.40605100  0.48124000  0.66186700  1
  C  354  1  0.10996200  0.47697300  0.66256200  1
  C  355  1  0.26045700  0.44900400  0.57410700  1
  C  356  1  0.25978700  0.35141000  0.71977500  1
  C  361  1  0.26058600  0.11107100  0.03424200  1
  C  362  1  0.26069800  0.08101500  0.02148600  1
  C  363  1  0.26087700  0.08349100  0.99817200  1
  C  364  1  0.26099200  0.11517800  0.98754100  1
  C  365  1  0.26089800  0.14448300  0.00051900  1
  C  366  1  0.26071300  0.14245300  0.02337400  1
  C  368  1  0.26085500  0.02351000  0.99522500  1
  C  369  1  0.26073700  0.02072200  0.01802200  1
  C  378  1  0.76051200  0.94513200  0.98713300  1
  C  379  1  0.76072600  0.97516400  0.99991400  1
  C  380  1  0.76093200  0.97265400  0.02322700  1
  C  381  1  0.76109700  0.94094800  0.03383500  1
  C  382  1  0.76102500  0.91166500  0.02083700  1
  C  383  1  0.76076900  0.91373300  0.99798300  1
  C  385  1  0.76097700  0.03263000  0.02620400  1
  C  386  1  0.76098700  0.03544600  0.00340700  1
  C  395  1  0.76084800  0.61260600  0.53441200  1
  C  396  1  0.76080300  0.58252100  0.52167300  1
  C  397  1  0.76077300  0.58493200  0.49834600  1
  C  398  1  0.76072500  0.61658600  0.48766500  1
  C  399  1  0.76072000  0.64591200  0.50062500  1
  C  400  1  0.76076000  0.64394700  0.52348800  1
  C  402  1  0.76076400  0.52494700  0.49547400  1
  C  403  1  0.76070200  0.52222000  0.51827500  1
  C  412  1  0.26081200  0.44366000  0.48714500  1
  C  413  1  0.26080000  0.47374000  0.49988900  1
  C  414  1  0.26076400  0.47132400  0.52321400  1
  C  415  1  0.26070600  0.43967000  0.53389400  1
  C  416  1  0.26072400  0.41034700  0.52093000  1
  C  417  1  0.26076600  0.41231700  0.49806700  1
  C  419  1  0.26081900  0.53131000  0.52609600  1
  C  420  1  0.26081200  0.53404100  0.50329500  1
  C  429  1  0.04879000  0.04083400  0.16348500  1
  C  430  1  0.01702000  0.05377600  0.14991900  1
  C  431  1  0.97688500  0.03947700  0.15160900  1
  C  432  1  0.96878000  0.01223900  0.16582900  1
  C  433  1  0.00060000  0.99962500  0.17901900  1
  C  434  1  0.04027300  0.01344400  0.17754400  1
  C  436  1  0.95158300  0.07841500  0.12517400  1
  C  437  1  0.99115600  0.09209700  0.12293400  1
  C  446  1  0.47387100  0.04143300  0.85936700  1
  C  447  1  0.50506600  0.05584100  0.87269700  1
  C  448  1  0.54561800  0.04207200  0.87177700  1
  C  449  1  0.55486500  0.01372800  0.85866700  1
  C  450  1  0.52329800  0.99929400  0.84600400  1
  C  451  1  0.48339400  0.01291100  0.84648500  1
  C  453  1  0.56886800  0.08295100  0.89754800  1
  C  454  1  0.52888500  0.09603200  0.89907100  1
  C  463  1  0.97352700  0.01573900  0.85952500  1
  C  464  1  0.00452800  0.00100700  0.87283900  1
  C  465  1  0.04521400  0.01448200  0.87195500  1
  C  466  1  0.05472500  0.04284700  0.85893100  1
  C  467  1  0.02339500  0.05756700  0.84625200  1
  C  468  1  0.98336700  0.04422200  0.84667600  1
  C  470  1  0.06806200  0.97332000  0.89763300  1
  C  471  1  0.02793400  0.96053400  0.89914600  1
  C  480  1  0.54859500  0.01510000  0.16343100  1
  C  481  1  0.51635400  0.00274200  0.14996500  1
  C  482  1  0.47643200  0.01731200  0.15208800  1
  C  483  1  0.46901600  0.04415900  0.16676500  1
  C  484  1  0.50127600  0.05591800  0.17997800  1
  C  485  1  0.54076400  0.04198500  0.17797300  1
  C  487  1  0.45007600  0.97900700  0.12553600  1
  C  488  1  0.48945300  0.96511900  0.12287100  1
  C  497  1  0.54876400  0.54102700  0.66337900  1
  C  498  1  0.51674900  0.55360400  0.64982700  1
  C  499  1  0.47679200  0.53894100  0.65156900  1
  C  500  1  0.46903500  0.51171100  0.66587300  1
  C  501  1  0.50107500  0.49960600  0.67911800  1
  C  502  1  0.54058600  0.51371400  0.67755100  1
  C  504  1  0.45089700  0.57769400  0.62517700  1
  C  505  1  0.49028400  0.59170900  0.62287900  1
  C  514  1  0.97324400  0.54184700  0.35867000  1
  C  515  1  0.00487700  0.55507700  0.37221900  1
  C  516  1  0.04516400  0.54105700  0.37058600  1
  C  517  1  0.05364600  0.51369300  0.35655800  1
  C  518  1  0.02188800  0.50057900  0.34349400  1
  C  519  1  0.98210600  0.51431400  0.34477300  1
  C  521  1  0.06998500  0.58005500  0.39710100  1
  C  522  1  0.03028000  0.59347200  0.39929500  1
  C  531  1  0.47295400  0.51503500  0.35827700  1
  C  532  1  0.50478500  0.50221100  0.37185800  1
  C  533  1  0.54483400  0.51672200  0.37025700  1
  C  534  1  0.55288400  0.54409600  0.35613900  1
  C  535  1  0.52100700  0.55657200  0.34291600  1
  C  536  1  0.48141300  0.54252700  0.34428500  1
  C  538  1  0.57029600  0.47780500  0.39665900  1
  C  539  1  0.53081900  0.46391700  0.39881900  1
  C  548  1  0.04847100  0.51436700  0.66327000  1
  C  549  1  0.01659400  0.50165300  0.64967700  1
  C  550  1  0.97652300  0.51608200  0.65141100  1
  C  551  1  0.96851900  0.54329400  0.66566300  1
  C  552  1  0.00046500  0.55575300  0.67884600  1
  C  553  1  0.04005500  0.54171500  0.67738800  1
  C  555  1  0.95101500  0.47746700  0.62483700  1
  C  556  1  0.99050900  0.46365900  0.62255600  1
  C  565  1  0.25676400  0.30070800  0.27819900  1
  C  566  1  0.23712300  0.30980700  0.25828800  1
  C  567  1  0.23841200  0.28681400  0.24034400  1
  C  568  1  0.25756700  0.25487300  0.24206400  1
  C  569  1  0.27604300  0.24603800  0.26205400  1
  C  570  1  0.27537200  0.26856000  0.27980100  1
  C  572  1  0.19980100  0.32539600  0.21854400  1
  C  573  1  0.19751400  0.34780900  0.23619300  1
  C  582  1  0.26478300  0.30159300  0.74376600  1
  C  583  1  0.28450600  0.30989300  0.76379100  1
  C  584  1  0.28356000  0.28603000  0.78124200  1
  C  585  1  0.26466100  0.25409400  0.77887100  1
  C  586  1  0.24608100  0.24605300  0.75878900  1
  C  587  1  0.24642200  0.26943800  0.74152300  1
  C  589  1  0.32191900  0.32376700  0.80377400  1
  C  590  1  0.32389200  0.34704500  0.78659000  1
  C  599  1  0.75607700  0.75549500  0.74337300  1
  C  600  1  0.73668900  0.74665600  0.76340300  1
  C  601  1  0.73883700  0.76962300  0.78133900  1
  C  602  1  0.75859800  0.80130500  0.77949700  1
  C  603  1  0.77675000  0.80991500  0.75938400  1
  C  604  1  0.77524100  0.78740600  0.74164500  1
  C  606  1  0.70002100  0.73151600  0.80339000  1
  C  607  1  0.69687600  0.70915300  0.78575200  1
  C  616  1  0.76542600  0.75477100  0.27777200  1
  C  617  1  0.78489900  0.74668800  0.25764200  1
  C  618  1  0.78306700  0.77046800  0.24015800  1
  C  619  1  0.76350500  0.80212700  0.24258000  1
  C  620  1  0.74522900  0.80998500  0.26277100  1
  C  621  1  0.74646400  0.78668500  0.28007600  1
  C  623  1  0.82169800  0.73318600  0.21744300  1
  C  624  1  0.82452100  0.70999600  0.23464300  1
  N  367  1  0.26093600  0.05464300  0.98624300  1
  N  370  1  0.26067800  0.04928500  0.03030400  1
  N  376  1  0.26038100  0.11371900  0.05591600  1
  N  377  1  0.26112200  0.12051600  0.96610300  1
  N  384  1  0.76101400  0.00148600  0.03517300  1
  N  387  1  0.76090900  0.00690100  0.99110000  1
  N  393  1  0.76003200  0.94253200  0.96545400  1
  N  394  1  0.76130300  0.93555300  0.05526500  1
  N  401  1  0.76076800  0.55605000  0.48644800  1
  N  404  1  0.76069700  0.55081500  0.53054300  1
  N  410  1  0.76094000  0.61534800  0.55610300  1
  N  411  1  0.76070000  0.62190500  0.46620900  1
  N  418  1  0.26078300  0.50020300  0.53511500  1
  N  421  1  0.26079400  0.50545200  0.49102300  1
  N  427  1  0.26083000  0.44092400  0.46545100  1
  N  428  1  0.26066700  0.43435400  0.55535100  1
  N  435  1  0.94601700  0.05262600  0.13928300  1
  N  438  1  0.02244200  0.07944000  0.13522600  1
  N  444  1  0.08710100  0.05195100  0.16470400  1
  N  445  1  0.93025200  0.00409100  0.16988200  1
  N  452  1  0.57560800  0.05643500  0.88415600  1
  N  455  1  0.49844100  0.08219500  0.88673000  1
  N  461  1  0.43505300  0.05158900  0.85786300  1
  N  462  1  0.59387300  0.00454800  0.85651200  1
  N  469  1  0.07506000  0.99985700  0.88430100  1
  N  472  1  0.99763000  0.97465200  0.88683700  1
  N  478  1  0.93461100  0.00594200  0.85799500  1
  N  479  1  0.09376900  0.05187200  0.85697700  1
  N  486  1  0.44511800  0.00455500  0.13990600  1
  N  489  1  0.52117700  0.97735800  0.13501500  1
  N  495  1  0.58682500  0.00387400  0.16414200  1
  N  496  1  0.43102600  0.05326300  0.17144800  1
  N  503  1  0.44570600  0.55184900  0.63929300  1
  N  506  1  0.52178600  0.57929800  0.63511900  1
  N  512  1  0.58698600  0.55244100  0.66452900  1
  N  513  1  0.43071800  0.50306100  0.67020300  1
  N  520  1  0.07583400  0.55433000  0.38299100  1
  N  523  1  0.99916800  0.58065800  0.38694200  1
  N  529  1  0.93471900  0.55264100  0.35753800  1
  N  530  1  0.09241200  0.50540400  0.35317200  1
  N  537  1  0.57573300  0.50368600  0.38260800  1
  N  540  1  0.49949600  0.47646900  0.38650600  1
  N  546  1  0.43465000  0.50376900  0.35704200  1
  N  547  1  0.59142500  0.55248900  0.35220700  1
  N  554  1  0.94559200  0.50316200  0.63902900  1
  N  557  1  0.02186300  0.47610100  0.63489100  1
  N  563  1  0.08680200  0.50313100  0.66436600  1
  N  564  1  0.92994200  0.55156900  0.66961900  1
  N  571  1  0.21978700  0.29582500  0.22134300  1
  N  574  1  0.21592100  0.33937300  0.25538100  1
  N  580  1  0.25701700  0.31885600  0.29654100  1
  N  581  1  0.25855900  0.23533100  0.22439800  1
  N  588  1  0.30221100  0.29421600  0.80039500  1
  N  591  1  0.30542900  0.33944100  0.76727100  1
  N  597  1  0.26424400  0.32047800  0.72579400  1
  N  598  1  0.26369400  0.23388000  0.79614100  1
  N  605  1  0.72048300  0.76083900  0.80045900  1
  N  608  1  0.71498000  0.71737000  0.76644600  1
  N  614  1  0.75570100  0.73734200  0.72503400  1
  N  615  1  0.76024800  0.82090300  0.79712700  1
  N  622  1  0.80145400  0.76246600  0.22090200  1
  N  625  1  0.80636800  0.71743100  0.25407200  1
  N  631  1  0.76550800  0.73591900  0.29577000  1
  N  632  1  0.76173700  0.82225000  0.22527300  1
  O  374  1  0.26069400  0.98989200  0.02748200  1
  O  391  1  0.76113600  0.06628700  0.99396400  1
  O  408  1  0.76062000  0.49141400  0.52776800  1
  O  425  1  0.26081600  0.56485000  0.49380600  1
  O  442  1  0.99769700  0.11755000  0.10865600  1
  O  459  1  0.52101700  0.12193100  0.91281900  1
  O  476  1  0.01980500  0.93465800  0.91286800  1
  O  493  1  0.49539800  0.93984600  0.10838400  1
  O  510  1  0.49645700  0.61724900  0.60861600  1
  O  527  1  0.02344000  0.61878800  0.41363100  1
  O  544  1  0.52440000  0.43837600  0.41304600  1
  O  561  1  0.99691200  0.43830800  0.60818800  1
  O  578  1  0.17687500  0.37724300  0.23398500  1
  O  595  1  0.34428400  0.37648200  0.78937000  1
  O  612  1  0.67572400  0.67998400  0.78808800  1
  O  629  1  0.84540500  0.68081600  0.23177100  1
