# generated using pymatgen
data_H14C18N5
_symmetry_space_group_name_H-M   'P 1'
_cell_length_a   23.59111340
_cell_length_b   23.59575000
_cell_length_c   45.02870000
_cell_angle_alpha   91.12780000
_cell_angle_beta   90.00000000
_cell_angle_gamma   119.99350000
_symmetry_Int_Tables_number   1
_chemical_formula_structural   H14C18N5
_chemical_formula_sum   'H168 C216 N60'
_cell_volume   21702.93790657
_cell_formula_units_Z   12
loop_
 _symmetry_equiv_pos_site_id
 _symmetry_equiv_pos_as_xyz
  1  'x, y, z'
loop_
 _atom_site_type_symbol
 _atom_site_label
 _atom_site_symmetry_multiplicity
 _atom_site_fract_x
 _atom_site_fract_y
 _atom_site_fract_z
 _atom_site_occupancy
  C  5  1  0.19955150  0.58683050  0.68803400  1
  C  6  1  0.21835650  0.70252950  0.84633700  1
  C  13  1  0.20318100  0.61876900  0.15733500  1
  C  14  1  0.21197450  0.50948050  0.99470150  1
  C  17  1  0.23028200  0.65521200  0.89639600  1
  C  18  1  0.22026300  0.57144200  0.94346750  1
  C  19  1  0.16330800  0.56426100  0.92924850  1
  C  20  1  0.16826750  0.60633750  0.90611350  1
  C  27  1  0.08649000  0.58486300  0.16037600  1
  C  28  1  0.07303400  0.60077000  0.18974900  1
  C  29  1  0.00862650  0.56320250  0.20115800  1
  C  30  1  0.03444200  0.53107900  0.14483900  1
  C  31  1  0.03236800  0.63078600  0.24503700  1
  C  32  1  0.09773000  0.66772400  0.23534500  1
  C  35  1  0.00528700  0.64164000  0.27300900  1
  C  38  1  0.14644800  0.72290400  0.25398200  1
  C  43  1  0.03521600  0.45721700  0.69652800  1
  C  44  1  0.08381400  0.51085400  0.68155400  1
  C  45  1  0.06949000  0.52392500  0.65270700  1
  C  46  1  0.00585550  0.48661050  0.64059600  1
  C  48  1  0.01239100  0.39110000  0.73953900  1
  C  50  1  0.03910450  0.38061550  0.76747700  1
  C  113  1  0.24752250  0.71956950  0.79145700  1
  C  114  1  0.23821850  0.65243550  0.69762600  1
  C  115  1  0.24957250  0.66957850  0.72796300  1
  C  117  1  0.24804900  0.58183700  0.11350200  1
  C  118  1  0.23801700  0.58954200  0.14410400  1
  C  120  1  0.24567800  0.52772900  0.04902000  1
  C  122  1  0.25004250  0.57644450  0.61524800  1
  C  133  1  0.29923950  0.74728150  0.76973600  1
  C  134  1  0.26380600  0.73037000  0.82261300  1
  C  135  1  0.28751200  0.73568300  0.73815200  1
  C  136  1  0.31446000  0.78609100  0.71612400  1
  C  137  1  0.30427450  0.76991400  0.68477000  1
  C  138  1  0.26654050  0.70279250  0.67654200  1
  C  139  1  0.28544550  0.55264850  0.10293500  1
  C  140  1  0.26345350  0.56207650  0.16382800  1
  C  141  1  0.30075200  0.53221500  0.15554200  1
  C  142  1  0.31254050  0.52780350  0.12453100  1
  C  143  1  0.29682450  0.55201450  0.07145800  1
  C  144  1  0.26086400  0.53327700  0.01779600  1
  C  145  1  0.28708400  0.66182100  0.91009200  1
  C  146  1  0.28192050  0.62012150  0.93337500  1
  C  148  1  0.30639950  0.63275450  0.60217100  1
  C  150  1  0.32735800  0.56384300  0.56498200  1
  C  153  1  0.31819750  0.69025450  0.24495700  1
  C  156  1  0.26945250  0.70379850  0.23174200  1
  C  159  1  0.30983350  0.42349050  0.58666500  1
  C  193  1  0.36578000  0.78403400  0.78025600  1
  C  194  1  0.38338200  0.79310500  0.81085600  1
  C  195  1  0.33094300  0.76763500  0.83083600  1
  C  201  1  0.44746750  0.82772550  0.82380100  1
  C  202  1  0.32835800  0.81837250  0.66226300  1
  C  205  1  0.47805400  0.73096300  0.43631600  1
  C  206  1  0.44936600  0.66457200  0.44630500  1
  C  207  1  0.44194300  0.64751200  0.47678900  1
  C  208  1  0.46987250  0.70113350  0.49689500  1
  C  209  1  0.49927050  0.76801850  0.48922400  1
  C  210  1  0.50355350  0.78358350  0.45834500  1
  C  213  1  0.47825150  0.74280250  0.40496700  1
  C  214  1  0.50329050  0.71660150  0.38261200  1
  C  215  1  0.49869300  0.72723000  0.35151000  1
  C  216  1  0.46942500  0.76474600  0.34372800  1
  C  217  1  0.44699450  0.79344950  0.36516700  1
  C  218  1  0.45129000  0.78168100  0.39534700  1
  C  227  1  0.42028550  0.83165650  0.35562200  1
  C  228  1  0.51789700  0.81418000  0.51336900  1
  C  229  1  0.41323650  0.58418350  0.48990400  1
  C  230  1  0.52414500  0.70370000  0.32859400  1
  C  235  1  0.32776850  0.56284750  0.01007300  1
  C  236  1  0.37882850  0.58509350  0.03152200  1
  C  237  1  0.36268450  0.57959550  0.06178400  1
  C  243  1  0.44373600  0.61166700  0.02194400  1
  C  244  1  0.32736100  0.51275200  0.17911300  1
  C  247  1  0.54370100  0.25281200  0.99422800  1
  C  248  1  0.53814900  0.23578000  0.96308000  1
  C  249  1  0.53827650  0.30287350  0.88766500  1
  C  250  1  0.54440100  0.29329900  0.85633400  1
  C  257  1  0.52515600  0.20737200  0.01778500  1
  C  258  1  0.52078400  0.31840500  0.83362200  1
  C  262  1  0.39940350  0.67269550  0.93560600  1
  C  263  1  0.40432700  0.71272000  0.91189600  1
  C  265  1  0.45639600  0.67330300  0.94880600  1
  C  269  1  0.46641150  0.76106150  0.89878900  1
  C  273  1  0.45706850  0.80087750  0.56326100  1
  C  274  1  0.40725250  0.74404450  0.57655600  1
  C  275  1  0.37058950  0.74993200  0.60002150  1
  C  276  1  0.38295200  0.81174300  0.61040600  1
  C  277  1  0.43221300  0.86852200  0.59648850  1
  C  278  1  0.46973850  0.86316450  0.57326700  1
  C  279  1  0.34144400  0.62680000  0.57825500  1
  C  286  1  0.37564750  0.57327650  0.22956100  1
  C  287  1  0.36909100  0.62383200  0.24325300  1
  C  288  1  0.41171850  0.66136050  0.26681100  1
  C  289  1  0.46086350  0.64870650  0.27685600  1
  C  290  1  0.46790100  0.59852800  0.26261000  1
  C  291  1  0.42485050  0.56032150  0.23923500  1
  C  293  1  0.35904600  0.72617800  0.26906800  1
  C  296  1  0.35933600  0.78351500  0.28221800  1
  C  308  1  0.53074550  0.94416450  0.82702500  1
  C  309  1  0.55987600  0.95837400  0.85641200  1
  C  310  1  0.55513050  0.05864650  0.82446100  1
  C  311  1  0.52872300  0.99529200  0.81186500  1
  C  316  1  0.44543350  0.49996250  0.49405400  1
  C  317  1  0.43049200  0.47148800  0.52325200  1
  C  318  1  0.46840450  0.44489250  0.53468900  1
  C  319  1  0.52263350  0.44950450  0.51991700  1
  C  320  1  0.53659100  0.47647400  0.49121900  1
  C  321  1  0.49930700  0.50200300  0.47897700  1
  C  323  1  0.40158100  0.40115300  0.57782200  1
  C  324  1  0.36445900  0.42954200  0.56821900  1
  C  327  1  0.39103800  0.36378100  0.60554300  1
  C  333  1  0.51195500  0.07527400  0.32336900  1
  C  334  1  0.48144750  0.06109650  0.35199200  1
  C  335  1  0.45499400  0.99674800  0.36284100  1
  C  336  1  0.46043150  0.94756850  0.34761100  1
  C  337  1  0.48710250  0.96071350  0.31863400  1
  C  338  1  0.51283800  0.02386100  0.30688700  1
  C  340  1  0.41109700  0.02026900  0.40632000  1
  C  341  1  0.43811950  0.08523850  0.39665100  1
  C  345  1  0.37407300  0.99378300  0.43416300  1
  C  349  1  0.43051250  0.13320950  0.41510100  1
  C  355  1  0.52017950  0.57210950  0.01441500  1
  C  356  1  0.50672400  0.54430300  0.98521500  1
  C  357  1  0.54380000  0.51754900  0.97321000  1
  C  529  1  0.56197000  0.28668400  0.94127000  1
  C  530  1  0.56143850  0.27518250  0.90973000  1
  C  533  1  0.74342650  0.27542350  0.27458600  1
  C  534  1  0.67708250  0.23848450  0.28438200  1
  C  535  1  0.65962900  0.22837500  0.31470800  1
  C  536  1  0.71188550  0.25296150  0.33521200  1
  C  537  1  0.77905800  0.28991500  0.32750300  1
  C  538  1  0.79530500  0.30189000  0.29665300  1
  C  541  1  0.75503450  0.28647850  0.24327800  1
  C  542  1  0.72813500  0.23481500  0.22086200  1
  C  543  1  0.73799300  0.24969900  0.18976700  1
  C  544  1  0.77524850  0.31642350  0.18213600  1
  C  545  1  0.80442700  0.36785100  0.20367500  1
  C  546  1  0.79348700  0.35219700  0.23385700  1
  C  555  1  0.84268300  0.43260000  0.19418100  1
  C  556  1  0.82510400  0.31693500  0.35148300  1
  C  557  1  0.59522200  0.19102100  0.32609700  1
  C  558  1  0.71348350  0.20051250  0.16664200  1
  C  563  1  0.59255800  0.35315500  0.95158000  1
  C  564  1  0.60084650  0.37131050  0.98203300  1
  C  565  1  0.57424000  0.32024800  0.00244400  1
  C  568  1  0.57400800  0.25572300  0.84830500  1
  C  569  1  0.59616050  0.22715150  0.86946100  1
  C  570  1  0.59004650  0.23778750  0.89976900  1
  C  573  1  0.62346700  0.18888700  0.86000500  1
  C  574  1  0.62839900  0.43635600  0.99329200  1
  C  577  1  0.75725100  0.46860600  0.60804600  1
  C  578  1  0.79361700  0.43867100  0.61778700  1
  C  579  1  0.80308900  0.43076900  0.64812400  1
  C  580  1  0.77819600  0.45770400  0.66889200  1
  C  581  1  0.74103450  0.48769750  0.66127700  1
  C  582  1  0.73007850  0.49306150  0.63027100  1
  C  585  1  0.74600900  0.46871500  0.57662150  1
  C  586  1  0.79690900  0.49264000  0.55459200  1
  C  587  1  0.78106350  0.48727550  0.52336150  1
  C  588  1  0.71403450  0.45812050  0.51527000  1
  C  589  1  0.66333750  0.43585050  0.53645500  1
  C  590  1  0.68003100  0.44075200  0.56668700  1
  C  599  1  0.59775800  0.40820700  0.52708600  1
  C  600  1  0.71365550  0.50596350  0.68537200  1
  C  601  1  0.83989300  0.40310400  0.65934700  1
  C  602  1  0.83000400  0.51292500  0.50088700  1
  C  607  1  0.81257250  0.36476750  0.40173500  1
  C  608  1  0.75579100  0.35835200  0.41517400  1
  C  609  1  0.76136850  0.40117950  0.43877800  1
  C  610  1  0.82328350  0.45059050  0.44896000  1
  C  611  1  0.88011500  0.45774900  0.43486300  1
  C  612  1  0.87487250  0.41444550  0.41151200  1
  C  614  1  0.64419600  0.34866000  0.44089500  1
  C  615  1  0.63894550  0.30799650  0.41660500  1
  C  619  1  0.58749450  0.34883950  0.45400400  1
  C  621  1  0.57671950  0.25880850  0.40329300  1
  C  626  1  0.58432550  0.21858450  0.06812400  1
  C  627  1  0.63511100  0.27536000  0.08195000  1
  C  628  1  0.67224350  0.27055250  0.10537900  1
  C  629  1  0.65920400  0.20888000  0.11525700  1
  C  630  1  0.60897700  0.15177700  0.10087200  1
  C  631  1  0.57124950  0.15657250  0.07762700  1
  C  633  1  0.73754450  0.38795450  0.10766000  1
  C  634  1  0.70208700  0.39217600  0.08357800  1
  C  637  1  0.79450150  0.44539850  0.12084200  1
  C  641  1  0.71466050  0.45357650  0.07055600  1
  C  646  1  0.66583650  0.44581650  0.73505100  1
  C  647  1  0.67243900  0.39594400  0.74853700  1
  C  648  1  0.63056850  0.35974450  0.77187100  1
  C  649  1  0.58163550  0.37250650  0.78217200  1
  C  650  1  0.57430300  0.42186700  0.76815200  1
  C  651  1  0.61667650  0.45883850  0.74500800  1
  C  653  1  0.68309700  0.29505500  0.77409200  1
  C  654  1  0.72290400  0.32960500  0.75020100  1
  C  657  1  0.68377100  0.23908200  0.78724100  1
  C  661  1  0.77177100  0.31638700  0.73711700  1
  C  666  1  0.58734100  0.02334100  0.86820400  1
  C  667  1  0.58311650  0.07268650  0.85341100  1
  C  669  1  0.63078750  0.00036550  0.91155300  1
  C  670  1  0.60181350  0.93447850  0.90148200  1
  C  672  1  0.66891700  0.02763800  0.93962600  1
  C  676  1  0.60835650  0.88639550  0.91973300  1
  C  681  1  0.95867700  0.50867400  0.18614100  1
  C  682  1  0.97160600  0.49408800  0.15710600  1
  C  687  1  0.59585250  0.51906250  0.98964600  1
  C  688  1  0.61179850  0.55024350  0.01846700  1
  C  689  1  0.57412650  0.57729250  0.02971200  1
  C  691  1  0.64110750  0.62092650  0.07342900  1
  C  692  1  0.67901350  0.59353650  0.06325500  1
  C  694  1  0.65201350  0.65866350  0.10162500  1
  C  698  1  0.73456050  0.60132850  0.08142600  1
  C  703  1  0.95530150  0.43494650  0.65666300  1
  C  704  1  0.97036500  0.41941200  0.68524800  1
  C  705  1  0.94691150  0.35315550  0.72945100  1
  C  708  1  0.89946650  0.29813750  0.74746900  1
  H  1  1  0.23242950  0.63241450  0.74290600  1
  H  3  1  0.16929700  0.68150600  0.76222600  1
  H  4  1  0.14723650  0.66364950  0.79647700  1
  H  7  1  0.20365000  0.57654700  0.66734800  1
  H  8  1  0.16910150  0.67671750  0.84291600  1
  H  9  1  0.23080200  0.60191500  0.09853900  1
  H  11  1  0.14511700  0.48425900  0.04448600  1
  H  12  1  0.16948400  0.48664200  0.07834900  1
  H  15  1  0.20493400  0.62270700  0.17995700  1
  H  16  1  0.16456200  0.47709500  0.99936350  1
  H  21  1  0.12674300  0.60039800  0.89600200  1
  H  22  1  0.11795450  0.53060950  0.93664700  1
  H  24  1  0.22284600  0.59681000  0.62517700  1
  H  25  1  0.21541550  0.54172250  0.59895200  1
  H  26  1  0.22158950  0.66053450  0.23446300  1
  H  34  1  0.04300950  0.51355250  0.12524700  1
  H  36  1  0.01157750  0.69073050  0.27353100  1
  H  37  1  0.03065750  0.63630250  0.29209000  1
  H  39  1  0.12578200  0.73838300  0.27183800  1
  H  40  1  0.17514100  0.76531400  0.24024800  1
  H  41  1  0.17708300  0.70745600  0.26502500  1
  H  49  1  0.10291400  0.56449800  0.64170700  1
  H  51  1  0.09130350  0.41539050  0.77026900  1
  H  52  1  0.03270850  0.33147550  0.76729300  1
  H  53  1  0.01359100  0.38640800  0.78651000  1
  H  110  1  0.99533200  0.50302200  0.62151700  1
  H  116  1  0.25276300  0.69096900  0.65481500  1
  H  119  1  0.25215800  0.56198800  0.18580400  1
  H  149  1  0.26538100  0.55128600  0.63073300  1
  H  151  1  0.28524500  0.52240000  0.57454100  1
  H  152  1  0.31654500  0.56215400  0.54140500  1
  H  155  1  0.31923600  0.76900800  0.29796400  1
  H  157  1  0.26972000  0.74612300  0.24163400  1
  H  158  1  0.27918650  0.71399550  0.20828000  1
  H  160  1  0.29513300  0.38809000  0.60428500  1
  H  161  1  0.26675300  0.40903400  0.57271500  1
  H  162  1  0.32545950  0.46991050  0.59806300  1
  H  196  1  0.40307250  0.80128150  0.76523300  1
  H  197  1  0.34250250  0.77844350  0.85294100  1
  H  199  1  0.37212750  0.88654450  0.71245200  1
  H  200  1  0.35070500  0.86311800  0.74619400  1
  H  203  1  0.45112350  0.82718850  0.84640900  1
  H  204  1  0.34149150  0.86529900  0.66785800  1
  H  211  1  0.42929050  0.62689550  0.43093100  1
  H  212  1  0.47049950  0.69068050  0.51883500  1
  H  219  1  0.47190700  0.77829900  0.32215900  1
  H  220  1  0.43121350  0.79932350  0.41055600  1
  H  223  1  0.54411050  0.86104350  0.42980000  1
  H  224  1  0.54914250  0.88415950  0.46432500  1
  H  225  1  0.54734700  0.66000200  0.37796200  1
  H  226  1  0.54434850  0.68152750  0.41202300  1
  H  231  1  0.40357750  0.82352650  0.33522900  1
  H  232  1  0.53943700  0.86328200  0.51060500  1
  H  233  1  0.40913900  0.58319300  0.51255100  1
  H  234  1  0.55613000  0.68818700  0.33345500  1
  H  238  1  0.33896050  0.56129550  0.98827500  1
  H  239  1  0.40033650  0.59961750  0.07706500  1
  H  241  1  0.35056650  0.48772050  0.09522300  1
  H  242  1  0.36784400  0.48263500  0.12955800  1
  H  245  1  0.45230600  0.62511800  0.00129800  1
  H  246  1  0.35464600  0.49087600  0.17579900  1
  H  253  1  0.49817400  0.15743500  0.93359600  1
  H  254  1  0.49363950  0.13561050  0.96786000  1
  H  255  1  0.49573500  0.36080800  0.88383200  1
  H  256  1  0.49771350  0.33901250  0.91753300  1
  H  259  1  0.50176700  0.15811300  0.01417300  1
  H  260  1  0.48779950  0.33271550  0.83872500  1
  H  266  1  0.43682950  0.62636050  0.95854700  1
  H  267  1  0.48238300  0.71459100  0.96449500  1
  H  268  1  0.49014300  0.67264200  0.93251700  1
  H  270  1  0.50841450  0.76103350  0.90852100  1
  H  271  1  0.47080250  0.80897550  0.90193200  1
  H  272  1  0.46680300  0.75066100  0.87517500  1
  H  281  1  0.50506250  0.90438350  0.56332300  1
  H  282  1  0.44348550  0.91407550  0.60425600  1
  H  283  1  0.37076600  0.55951700  0.56809900  1
  H  294  1  0.43037900  0.52437400  0.22892500  1
  H  295  1  0.50182500  0.58718100  0.27022100  1
  H  297  1  0.40734000  0.81243900  0.29179300  1
  H  298  1  0.35809050  0.81640550  0.26597800  1
  H  301  1  0.56232150  0.30868550  0.46950500  1
  H  302  1  0.55283250  0.34781050  0.43776000  1
  H  303  1  0.53525500  0.25922700  0.41336100  1
  H  304  1  0.53532350  0.11501950  0.06731300  1
  H  306  1  0.54041100  0.43347500  0.77574700  1
  H  312  1  0.50243100  0.98594000  0.79236100  1
  H  313  1  0.54814500  0.09231500  0.81352000  1
  H  314  1  0.56260100  0.85663300  0.93099100  1
  H  326  1  0.51650800  0.52760300  0.45966700  1
  H  328  1  0.42577600  0.34627800  0.60781100  1
  H  329  1  0.34183750  0.32111550  0.60545400  1
  H  330  1  0.39688350  0.39498650  0.62488200  1
  H  343  1  0.53949800  0.03354500  0.28769900  1
  H  344  1  0.49467450  0.92703350  0.30738700  1
  H  346  1  0.35708100  0.94168700  0.43625300  1
  H  347  1  0.33107400  0.99973500  0.43446300  1
  H  348  1  0.40532600  0.01977000  0.45334300  1
  H  350  1  0.39293700  0.11229500  0.43195100  1
  H  351  1  0.41920600  0.16370400  0.40121100  1
  H  352  1  0.47523300  0.16132900  0.42768600  1
  H  358  1  0.52707050  0.49013350  0.95383900  1
  H  359  1  0.46575850  0.53667550  0.97393700  1
  H  539  1  0.63973150  0.22093450  0.26903000  1
  H  540  1  0.70015800  0.24124200  0.35701700  1
  H  547  1  0.78835700  0.32723400  0.16048200  1
  H  548  1  0.81121400  0.39005700  0.24920900  1
  H  551  1  0.87286300  0.33917400  0.26783100  1
  H  552  1  0.89579350  0.35670150  0.30233100  1
  H  553  1  0.67115500  0.13411700  0.21605700  1
  H  554  1  0.69326750  0.15900050  0.25007300  1
  H  559  1  0.83507300  0.44048700  0.17375500  1
  H  560  1  0.87423950  0.34385350  0.34841300  1
  H  561  1  0.59090650  0.18978150  0.34874200  1
  H  562  1  0.69831550  0.15314850  0.17128500  1
  H  566  1  0.61231400  0.39001300  0.93652100  1
  H  567  1  0.57544300  0.33303200  0.02442500  1
  H  571  1  0.57258700  0.24260500  0.82649400  1
  H  572  1  0.61014950  0.22060950  0.91486500  1
  H  575  1  0.63680850  0.19212650  0.83932000  1
  H  576  1  0.63151500  0.44308800  0.01585900  1
  H  583  1  0.81107450  0.41885350  0.60236200  1
  H  584  1  0.78945900  0.45692400  0.69082400  1
  H  591  1  0.70251200  0.46063900  0.49370400  1
  H  592  1  0.64269650  0.42062450  0.58171800  1
  H  595  1  0.69291850  0.53359550  0.60155300  1
  H  596  1  0.67484150  0.53811950  0.63599100  1
  H  597  1  0.89751900  0.53573700  0.55065000  1
  H  598  1  0.87356250  0.53329150  0.58453200  1
  H  603  1  0.58722300  0.39191800  0.50660500  1
  H  604  1  0.68672800  0.52822100  0.68241800  1
  H  605  1  0.84247900  0.40007800  0.68190500  1
  H  606  1  0.87701700  0.54613300  0.50641700  1
  H  617  1  0.91610600  0.42010200  0.40132200  1
  H  618  1  0.92556400  0.49211600  0.44255650  1
  H  620  1  0.60721850  0.39681250  0.46386100  1
  H  622  1  0.57316000  0.21133100  0.40592300  1
  H  623  1  0.57496250  0.26781850  0.37980800  1
  H  636  1  0.59737300  0.10652300  0.10824600  1
  H  638  1  0.82321800  0.42661400  0.13034500  1
  H  639  1  0.77964650  0.47128450  0.13666200  1
  H  640  1  0.82769250  0.47917250  0.10457700  1
  H  642  1  0.75626350  0.49565850  0.08088400  1
  H  643  1  0.67048050  0.45686750  0.07327800  1
  H  644  1  0.72551050  0.45432750  0.04703400  1
  H  656  1  0.61073850  0.49418050  0.73506300  1
  H  658  1  0.63685300  0.21235000  0.79724600  1
  H  659  1  0.72504200  0.25477700  0.80272200  1
  H  660  1  0.68301050  0.20402550  0.77093300  1
  H  662  1  0.77194050  0.27509150  0.74715100  1
  H  663  1  0.81913800  0.36073500  0.74013600  1
  H  664  1  0.76200500  0.30466300  0.71351500  1
  H  673  1  0.68668850  0.07996450  0.94240200  1
  H  674  1  0.71143800  0.02086900  0.93965700  1
  H  675  1  0.63815650  0.00274750  0.95856600  1
  H  677  1  0.64477050  0.90763650  0.93751200  1
  H  678  1  0.62163500  0.85670600  0.90572200  1
  H  680  1  0.57745500  0.48335000  0.48024100  1
  H  684  1  0.93766600  0.45279200  0.14589700  1
  H  685  1  0.95305900  0.60672800  0.27507200  1
  H  695  1  0.61711600  0.67595100  0.10424600  1
  H  696  1  0.70108000  0.70149100  0.10203300  1
  H  697  1  0.64674800  0.62782500  0.12038400  1
  H  699  1  0.75137950  0.63929850  0.09870100  1
  H  700  1  0.77635650  0.61196150  0.06745500  1
  H  701  1  0.71763700  0.55697300  0.09351200  1
  H  709  1  0.92080400  0.28191500  0.76436000  1
  H  710  1  0.86818900  0.25571800  0.73330800  1
  H  711  1  0.87208300  0.31528000  0.76009700  1
  N  2  1  0.18299100  0.68413300  0.78270900  1
  N  10  1  0.18180250  0.49792950  0.05789200  1
  N  23  1  0.21843000  0.54172300  0.96924050  1
  N  33  1  0.11481450  0.65138150  0.20842900  1
  N  42  1  0.14332950  0.59953050  0.14616100  1
  N  47  1  0.05259300  0.44121800  0.72244500  1
  N  54  1  0.13916900  0.54839100  0.69807200  1
  N  109  1  0.99194500  0.58030600  0.22729000  1
  N  121  1  0.24065100  0.68822100  0.87102700  1
  N  147  1  0.32248150  0.69407850  0.61166300  1
  N  154  1  0.32473450  0.64037950  0.23340400  1
  N  198  1  0.34903550  0.85023650  0.72553700  1
  N  221  1  0.53315300  0.84795000  0.45019000  1
  N  222  1  0.53331350  0.68273650  0.39144400  1
  N  240  1  0.34775700  0.49846500  0.11581300  1
  N  251  1  0.50897150  0.17124250  0.95419500  1
  N  252  1  0.50892500  0.33755700  0.89696900  1
  N  261  1  0.33854800  0.62820700  0.94498400  1
  N  264  1  0.34800750  0.70578950  0.90048000  1
  N  280  1  0.39054050  0.68255850  0.56675025  1
  N  284  1  0.48076850  0.79119950  0.53776200  1
  N  285  1  0.35586500  0.81560300  0.63632000  1
  N  292  1  0.40397550  0.71029650  0.27859800  1
  N  299  1  0.34196650  0.54991250  0.20401700  1
  N  300  1  0.49156850  0.67696350  0.30283500  1
  N  305  1  0.56184800  0.22960800  0.04270900  1
  N  307  1  0.55231900  0.34457500  0.80801200  1
  N  315  1  0.48787600  0.88687500  0.81279300  1
  N  322  1  0.45183550  0.41124650  0.56041300  1
  N  325  1  0.38027200  0.46264100  0.54167100  1
  N  331  1  0.43116500  0.54184300  0.47952800  1
  N  332  1  0.55993250  0.43216050  0.53643800  1
  N  339  1  0.42158550  0.98002650  0.38872700  1
  N  342  1  0.47220050  0.10285850  0.37033600  1
  N  353  1  0.55616850  0.13382950  0.31189600  1
  N  354  1  0.44398500  0.89391800  0.36433600  1
  N  360  1  0.48340200  0.59032900  0.03113300  1
  N  549  1  0.85966600  0.33661300  0.28833400  1
  N  550  1  0.69421550  0.17102650  0.22958300  1
  N  593  1  0.69524400  0.52258500  0.62194800  1
  N  594  1  0.86097650  0.52227750  0.56385400  1
  N  613  1  0.70528500  0.39371500  0.45054350  1
  N  616  1  0.69469400  0.31402500  0.40510400  1
  N  624  1  0.80218300  0.33098700  0.37615200  1
  N  625  1  0.82694050  0.48193450  0.47490950  1
  N  632  1  0.72125000  0.32734100  0.11715900  1
  N  635  1  0.65210050  0.33591150  0.07214000  1
  N  645  1  0.68730550  0.20680750  0.14109800  1
  N  652  1  0.63848900  0.31161200  0.78352100  1
  N  655  1  0.71644000  0.37877700  0.73877900  1
  N  665  1  0.69932400  0.46895600  0.70973000  1
  N  668  1  0.62122350  0.04073050  0.89432900  1
  N  671  1  0.56819550  0.91681550  0.87459500  1
  N  679  1  0.60193800  0.12854500  0.86995000  1
  N  686  1  0.90466100  0.47189700  0.20296600  1
  N  690  1  0.59064550  0.61088050  0.05602200  1
  N  693  1  0.66253400  0.55919500  0.03655800  1
  N  702  1  0.60983850  0.47360450  0.97861700  1
  N  706  1  0.92883200  0.36918300  0.70312400  1
  N  712  1  0.89642300  0.42124200  0.64529200  1
