# generated using pymatgen
data_Sm2H13C25O14
_symmetry_space_group_name_H-M   'P 1'
_cell_length_a   8.44169000
_cell_length_b   10.56167000
_cell_length_c   17.70923000
_cell_angle_alpha   99.53176000
_cell_angle_beta   97.34322000
_cell_angle_gamma   99.55807000
_symmetry_Int_Tables_number   1
_chemical_formula_structural   Sm2H13C25O14
_chemical_formula_sum   'Sm4 H26 C50 O28'
_cell_volume   1515.80311119
_cell_formula_units_Z   2
loop_
 _symmetry_equiv_pos_site_id
 _symmetry_equiv_pos_as_xyz
  1  'x, y, z'
loop_
 _atom_site_type_symbol
 _atom_site_label
 _atom_site_symmetry_multiplicity
 _atom_site_fract_x
 _atom_site_fract_y
 _atom_site_fract_z
 _atom_site_occupancy
  Sm  Sm0  1  0.52661000  0.14368000  0.29974000  1
  Sm  Sm1  1  0.03151000  0.19464000  0.23644000  1
  Sm  Sm2  1  0.47707000  0.85754000  0.69855000  1
  Sm  Sm3  1  0.96927000  0.80842000  0.76156000  1
  H  H4  1  0.20134000  0.67781000  0.27003000  1
  H  H5  1  0.04242000  0.90980000  0.10698000  1
  H  H6  1  0.87242000  0.70885000  0.02193000  1
  H  H7  1  0.86068000  0.49367000  0.06410000  1
  H  H8  1  0.08616000  0.85881000  0.35650000  1
  H  H9  1  0.14719000  0.70400000  0.44349000  1
  H  H10  1  0.97900000  0.67105000  0.54781000  1
  H  H11  1  0.68746000  0.93929000  0.47357000  1
  H  H12  1  0.37458000  0.87415000  0.11254000  1
  H  H13  1  0.21614000  0.72577000  0.99223000  1
  H  H14  1  0.35147000  0.67643000  0.87711000  1
  H  H15  1  0.79367000  0.93495000  0.99939000  1
  H  H16  1  0.87356000  0.46783000  0.34947000  1
  H  H17  1  0.79110000  0.32168000  0.73244000  1
  H  H18  1  0.96189000  0.08948000  0.89256000  1
  H  H19  1  0.13045000  0.29076000  0.97772000  1
  H  H20  1  0.13857000  0.50624000  0.93618000  1
  H  H21  1  0.91868000  0.14679000  0.64292000  1
  H  H22  1  0.85502000  0.29977000  0.55470000  1
  H  H23  1  0.02118000  0.32972000  0.44908000  1
  H  H24  1  0.31353000  0.06263000  0.52368000  1
  H  H25  1  0.62904000  0.12753000  0.88786000  1
  H  H26  1  0.78569000  0.27539000  0.00874000  1
  H  H27  1  0.64875000  0.32360000  0.12332000  1
  H  H28  1  0.20808000  0.06486000  0.99941000  1
  H  H29  1  0.12435000  0.53772000  0.64883000  1
  C  C30  1  0.02255000  0.44532000  0.19551000  1
  C  C31  1  0.02781000  0.57327000  0.17021000  1
  C  C32  1  0.12715000  0.68543000  0.21663000  1
  C  C33  1  0.13137000  0.80683000  0.19404000  1
  C  C34  1  0.03807000  0.81529000  0.12417000  1
  C  C35  1  0.94205000  0.70259000  0.07685000  1
  C  C36  1  0.93602000  0.58194000  0.10004000  1
  C  C37  1  0.24361000  0.92365000  0.24258000  1
  C  C38  1  0.84114000  0.99816000  0.35569000  1
  C  C39  1  0.88107000  0.90671000  0.40856000  1
  C  C40  1  0.01190000  0.84141000  0.40092000  1
  C  C41  1  0.04643000  0.75496000  0.45020000  1
  C  C42  1  0.95331000  0.73637000  0.50837000  1
  C  C43  1  0.82493000  0.80419000  0.51782000  1
  C  C44  1  0.78780000  0.88801000  0.46700000  1
  C  C45  1  0.73376000  0.79260000  0.58409000  1
  C  C46  1  0.68261000  0.00406000  0.13625000  1
  C  C47  1  0.59427000  0.91195000  0.06408000  1
  C  C48  1  0.43120000  0.85270000  0.06140000  1
  C  C49  1  0.34359000  0.76814000  0.99435000  1
  C  C50  1  0.41882000  0.74074000  0.92976000  1
  C  C51  1  0.58176000  0.79999000  0.93174000  1
  C  C52  1  0.66888000  0.88729000  0.99874000  1
  C  C53  1  0.66153000  0.77287000  0.86211000  1
  C  C54  1  0.78012000  0.37743000  0.33840000  1
  C  C55  1  0.97641000  0.55400000  0.80479000  1
  C  C56  1  0.96967000  0.42634000  0.83049000  1
  C  C57  1  0.86894000  0.31416000  0.78478000  1
  C  C58  1  0.86765000  0.19254000  0.80673000  1
  C  C59  1  0.96422000  0.18416000  0.87579000  1
  C  C60  1  0.05993000  0.29703000  0.92303000  1
  C  C61  1  0.06377000  0.41774000  0.90015000  1
  C  C62  1  0.75587000  0.07474000  0.75882000  1
  C  C63  1  0.16113000  0.00563000  0.64247000  1
  C  C64  1  0.12129000  0.09672000  0.58963000  1
  C  C65  1  0.99092000  0.16265000  0.59756000  1
  C  C66  1  0.95514000  0.24809000  0.54779000  1
  C  C67  1  0.04682000  0.26510000  0.48898000  1
  C  C68  1  0.17472000  0.19667000  0.47941000  1
  C  C69  1  0.21311000  0.11382000  0.53053000  1
  C  C70  1  0.26497000  0.20715000  0.41284000  1
  C  C71  1  0.32156000  0.99579000  0.86330000  1
  C  C72  1  0.40878000  0.08823000  0.93571000  1
  C  C73  1  0.57164000  0.14813000  0.93882000  1
  C  C74  1  0.65823000  0.23267000  0.00612000  1
  C  C75  1  0.58208000  0.25948000  0.07047000  1
  C  C76  1  0.41929000  0.19980000  0.06800000  1
  C  C77  1  0.33302000  0.11275000  0.00069000  1
  C  C78  1  0.33917000  0.22660000  0.13752000  1
  C  C79  1  0.21838000  0.62798000  0.66218000  1
  O  O80  1  0.11135000  0.43782000  0.25810000  1
  O  O81  1  0.92813000  0.34283000  0.15474000  1
  O  O82  1  0.35787000  0.90860000  0.29193000  1
  O  O83  1  0.23009000  0.03961000  0.23119000  1
  O  O84  1  0.83280000  0.05045000  0.13969000  1
  O  O85  1  0.59892000  0.03055000  0.18964000  1
  O  O86  1  0.81541000  0.78769000  0.87132000  1
  O  O87  1  0.57135000  0.73689000  0.79558000  1
  O  O88  1  0.71214000  0.04395000  0.36350000  1
  O  O89  1  0.93566000  0.02419000  0.30764000  1
  O  O90  1  0.60113000  0.83480000  0.58369000  1
  O  O91  1  0.79429000  0.74320000  0.63991000  1
  O  O92  1  0.80807000  0.27450000  0.29552000  1
  O  O93  1  0.65126000  0.37563000  0.36723000  1
  O  O94  1  0.88851000  0.56251000  0.74210000  1
  O  O95  1  0.07127000  0.65665000  0.84498000  1
  O  O96  1  0.63598000  0.08770000  0.71193000  1
  O  O97  1  0.77676000  0.95947000  0.76878000  1
  O  O98  1  0.17116000  0.94924000  0.85961000  1
  O  O99  1  0.40589000  0.96944000  0.81033000  1
  O  O100  1  0.18517000  0.21173000  0.12786000  1
  O  O101  1  0.42872000  0.26289000  0.20417000  1
  O  O102  1  0.29214000  0.96183000  0.63638000  1
  O  O103  1  0.06493000  0.97663000  0.68931000  1
  O  O104  1  0.39607000  0.16266000  0.41269000  1
  O  O105  1  0.20466000  0.25762000  0.35756000  1
  O  O106  1  0.18942000  0.73029000  0.70483000  1
  O  O107  1  0.35018000  0.63021000  0.63571000  1
