# generated using pymatgen
data_Zn3H54C66O17
_symmetry_space_group_name_H-M   'P 1'
_cell_length_a   8.40375000
_cell_length_b   23.70764000
_cell_length_c   23.74499000
_cell_angle_alpha   88.41290000
_cell_angle_beta   80.01246000
_cell_angle_gamma   79.89473000
_symmetry_Int_Tables_number   1
_chemical_formula_structural   Zn3H54C66O17
_chemical_formula_sum   'Zn6 H108 C132 O34'
_cell_volume   4586.80017553
_cell_formula_units_Z   2
loop_
 _symmetry_equiv_pos_site_id
 _symmetry_equiv_pos_as_xyz
  1  'x, y, z'
loop_
 _atom_site_type_symbol
 _atom_site_label
 _atom_site_symmetry_multiplicity
 _atom_site_fract_x
 _atom_site_fract_y
 _atom_site_fract_z
 _atom_site_occupancy
  Zn  Zn0  1  0.78865000  0.06068000  0.95039000  1
  Zn  Zn1  1  0.14618000  0.04776000  0.06120000  1
  Zn  Zn2  1  0.80584000  0.93897000  0.04684000  1
  Zn  Zn3  1  0.25036000  0.50147000  0.49883000  1
  Zn  Zn4  1  0.25880000  0.95257000  0.93849000  1
  Zn  Zn5  1  0.49831000  0.00103000  0.00100000  1
  H  H6  1  0.38906000  0.99516000  0.72645000  1
  H  H7  1  0.42336000  0.89693000  0.37574000  1
  H  H8  1  0.47985000  0.96237000  0.20063000  1
  H  H9  1  0.58079000  0.02153000  0.18013000  1
  H  H10  1  0.32696000  0.81957000  0.60991000  1
  H  H11  1  0.87954000  0.01490000  0.73020000  1
  H  H12  1  0.31943000  0.20225000  0.03569000  1
  H  H13  1  0.78568000  0.32089000  0.49859000  1
  H  H14  1  0.10796000  0.00514000  0.27395000  1
  H  H15  1  0.14663000  0.50216000  0.25031000  1
  H  H16  1  0.16454000  0.97546000  0.79166000  1
  H  H17  1  0.69277000  0.00278000  0.36369000  1
  H  H18  1  0.85277000  0.63612000  0.84928000  1
  H  H19  1  0.89281000  0.50247000  0.31950000  1
  H  H20  1  0.22217000  0.04288000  0.46979000  1
  H  H21  1  0.87970000  0.50554000  0.11120000  1
  H  H22  1  0.25565000  0.13002000  0.40182000  1
  H  H23  1  0.70673000  0.18545000  0.02449000  1
  H  H24  1  0.89841000  0.49782000  0.75012000  1
  H  H25  1  0.61987000  0.50683000  0.18091000  1
  H  H26  1  0.50661000  0.30639000  0.88489000  1
  H  H27  1  0.51100000  0.15196000  0.63564000  1
  H  H28  1  0.18561000  0.11249000  0.30684000  1
  H  H29  1  0.01297000  0.11282000  0.49410000  1
  H  H30  1  0.81901000  0.63146000  0.50231000  1
  H  H31  1  0.00891000  0.34953000  0.55952000  1
  H  H32  1  0.60734000  0.88594000  0.69396000  1
  H  H33  1  0.68028000  0.13039000  0.35234000  1
  H  H34  1  0.62231000  0.98420000  0.27028000  1
  H  H35  1  0.81139000  0.87323000  0.31085000  1
  H  H36  1  0.18358000  0.99303000  0.36973000  1
  H  H37  1  0.35142000  0.74933000  0.50284000  1
  H  H38  1  0.61527000  0.88850000  0.50564000  1
  H  H39  1  0.73182000  0.46125000  0.01861000  1
  H  H40  1  0.67651000  0.50574000  0.36790000  1
  H  H41  1  0.61707000  0.27356000  0.99301000  1
  H  H42  1  0.02852000  0.62043000  0.10933000  1
  H  H43  1  0.55360000  0.49128000  0.62964000  1
  H  H44  1  0.87415000  0.81851000  0.50680000  1
  H  H45  1  0.14570000  0.47744000  0.01470000  1
  H  H46  1  0.49287000  0.49454000  0.88715000  1
  H  H47  1  0.95426000  0.37084000  0.49172000  1
  H  H48  1  0.16009000  0.13739000  0.59079000  1
  H  H49  1  0.46292000  0.82584000  0.40141000  1
  H  H50  1  0.69347000  0.17440000  0.59926000  1
  H  H51  1  0.20115000  0.37490000  0.10269000  1
  H  H52  1  0.85168000  0.39019000  0.81930000  1
  H  H53  1  0.92127000  0.81467000  0.97605000  1
  H  H54  1  0.16274000  0.86933000  0.64817000  1
  H  H55  1  0.54920000  0.00725000  0.63113000  1
  H  H56  1  0.13714000  0.40080000  0.17375000  1
  H  H57  1  0.88515000  0.86225000  0.40830000  1
  H  H58  1  0.05087000  0.79385000  0.02706000  1
  H  H59  1  0.80723000  0.98113000  0.46116000  1
  H  H60  1  0.86352000  0.20664000  0.97276000  1
  H  H61  1  0.43424000  0.55949000  0.65155000  1
  H  H62  1  0.61509000  0.59970000  0.13183000  1
  H  H63  1  0.60505000  0.67987000  0.50327000  1
  H  H64  1  0.70760000  0.59928000  0.82627000  1
  H  H65  1  0.73551000  0.53131000  0.04268000  1
  H  H66  1  0.81816000  0.63212000  0.99289000  1
  H  H67  1  0.26908000  0.02705000  0.81427000  1
  H  H68  1  0.39287000  0.82159000  0.02318000  1
  H  H69  1  0.88511000  0.72737000  0.00621000  1
  H  H70  1  0.31629000  0.68813000  0.87649000  1
  H  H71  1  0.69822000  0.10344000  0.62526000  1
  H  H72  1  0.65313000  0.03649000  0.80005000  1
  H  H73  1  0.19092000  0.64827000  0.13079000  1
  H  H74  1  0.69882000  0.69530000  0.11481000  1
  H  H75  1  0.92919000  0.02490000  0.20833000  1
  H  H76  1  0.55061000  0.79850000  0.96430000  1
  H  H77  1  0.30684000  0.49301000  0.81598000  1
  H  H78  1  0.25052000  0.59108000  0.86446000  1
  H  H79  1  0.75786000  0.18015000  0.39062000  1
  H  H80  1  0.63721000  0.52266000  0.98506000  1
  H  H81  1  0.30721000  0.63578000  0.00352000  1
  H  H82  1  0.06433000  0.61009000  0.18027000  1
  H  H83  1  0.71695000  0.49722000  0.67951000  1
  H  H84  1  0.63551000  0.43934000  0.34543000  1
  H  H85  1  0.29501000  0.84845000  0.36453000  1
  H  H86  1  0.99873000  0.12649000  0.68783000  1
  H  H87  1  0.37750000  0.98487000  0.47714000  1
  H  H88  1  0.10907000  0.27041000  0.01407000  1
  H  H89  1  0.23740000  0.18020000  0.97752000  1
  H  H90  1  0.75565000  0.37950000  0.89003000  1
  H  H91  1  0.05939000  0.99664000  0.63658000  1
  H  H92  1  0.86472000  0.10921000  0.37971000  1
  H  H93  1  0.70798000  0.40872000  0.13593000  1
  H  H94  1  0.88072000  0.31149000  0.12373000  1
  H  H95  1  0.25271000  0.01838000  0.53918000  1
  H  H96  1  0.78746000  0.86863000  0.59886000  1
  H  H97  1  0.34160000  0.36421000  0.15075000  1
  H  H98  1  0.10743000  0.97381000  0.18512000  1
  H  H99  1  0.83968000  0.01504000  0.52269000  1
  H  H100  1  0.60336000  0.25039000  0.49897000  1
  H  H101  1  0.39196000  0.72984000  0.98563000  1
  H  H102  1  0.34253000  0.40159000  0.86808000  1
  H  H103  1  0.20891000  0.53967000  0.98177000  1
  H  H104  1  0.30839000  0.47017000  0.95687000  1
  H  H105  1  0.44390000  0.36905000  0.00652000  1
  H  H106  1  0.94633000  0.36403000  0.99632000  1
  H  H107  1  0.78756000  0.97601000  0.82067000  1
  H  H108  1  0.67586000  0.62530000  0.89729000  1
  H  H109  1  0.92750000  0.65573000  0.43740000  1
  H  H110  1  0.96705000  0.35208000  0.86893000  1
  H  H111  1  0.35292000  0.89051000  0.62067000  1
  H  H112  1  0.73348000  0.95728000  0.53092000  1
  H  H113  1  0.20058000  0.18389000  0.49265000  1
  C  C114  1  0.99737000  0.93329000  0.50358000  1
  C  C115  1  0.30665000  0.86414000  0.50385000  1
  C  C116  1  0.46846000  0.08545000  0.54857000  1
  C  C117  1  0.80666000  0.90097000  0.62746000  1
  C  C118  1  0.14858000  0.01994000  0.80676000  1
  C  C119  1  0.02811000  0.60476000  0.92738000  1
  C  C120  1  0.97259000  0.98062000  0.19270000  1
  C  C121  1  0.73198000  0.95115000  0.71801000  1
  C  C122  1  0.00660000  0.25677000  0.49477000  1
  C  C123  1  0.06940000  0.35201000  0.97190000  1
  C  C124  1  0.91038000  0.44409000  0.88209000  1
  C  C125  1  0.49953000  0.50346000  0.06662000  1
  C  C126  1  0.54165000  0.01634000  0.29858000  1
  C  C127  1  0.76981000  0.60532000  0.86195000  1
  C  C128  1  0.43148000  0.51308000  0.65088000  1
  C  C129  1  0.70955000  0.49587000  0.82369000  1
  C  C130  1  0.29359000  0.45115000  0.11942000  1
  C  C131  1  0.79451000  0.17650000  0.49611000  1
  C  C132  1  0.42772000  0.50150000  0.38427000  1
  C  C133  1  0.96541000  0.69805000  0.97495000  1
  C  C134  1  0.48029000  0.06791000  0.38961000  1
  C  C135  1  0.31858000  0.28223000  0.94983000  1
  C  C136  1  0.07015000  0.61420000  0.49964000  1
  C  C137  1  0.29530000  0.08853000  0.32028000  1
  C  C138  1  0.44911000  0.45148000  0.08512000  1
  C  C139  1  0.38431000  0.32001000  0.90922000  1
  C  C140  1  0.73593000  0.50619000  0.19560000  1
  C  C141  1  0.93412000  0.89346000  0.37882000  1
  C  C142  1  0.05049000  0.91642000  0.55577000  1
  C  C143  1  0.03168000  0.44472000  0.91624000  1
  C  C144  1  0.20823000  0.67493000  0.90173000  1
  C  C145  1  0.56172000  0.39569000  0.07255000  1
  C  C146  1  0.65975000  0.50427000  0.02660000  1
  C  C147  1  0.05882000  0.97369000  0.30286000  1
  C  C148  1  0.82619000  0.49662000  0.86434000  1
  C  C149  1  0.24035000  0.39491000  0.13809000  1
  C  C150  1  0.68807000  0.37904000  0.10475000  1
  C  C151  1  0.29186000  0.37302000  0.90028000  1
  C  C152  1  0.85872000  0.98277000  0.70183000  1
  C  C153  1  0.31720000  0.50046000  0.61214000  1
  C  C154  1  0.89229000  0.89921000  0.32457000  1
  C  C155  1  0.74121000  0.13543000  0.38861000  1
  C  C156  1  0.78488000  0.32499000  0.09833000  1
  C  C157  1  0.44128000  0.70182000  0.01775000  1
  C  C158  1  0.18924000  0.49649000  0.97335000  1
  C  C159  1  0.73422000  0.23552000  0.49754000  1
  C  C160  1  0.88693000  0.50348000  0.27415000  1
  C  C161  1  0.86077000  0.54917000  0.88071000  1
  C  C162  1  0.21008000  0.10634000  0.62059000  1
  C  C163  1  0.61436000  0.68127000  0.09052000  1
  C  C164  1  0.42838000  0.03342000  0.64304000  1
  C  C165  1  0.75864000  0.80385000  0.50631000  1
  C  C166  1  0.36762000  0.07357000  0.60420000  1
  C  C167  1  0.92809000  0.64384000  0.96733000  1
  C  C168  1  0.23945000  0.55620000  0.11789000  1
  C  C169  1  0.54201000  0.49446000  0.84161000  1
  C  C170  1  0.10441000  0.71403000  0.94112000  1
  C  C171  1  0.39392000  0.64823000  0.02791000  1
  C  C172  1  0.18322000  0.38808000  0.49903000  1
  C  C173  1  0.43697000  0.49369000  0.80210000  1
  C  C174  1  0.96370000  0.15846000  0.49436000  1
  C  C175  1  0.83799000  0.27560000  0.49725000  1
  C  C176  1  0.59310000  0.48624000  0.34616000  1
  C  C177  1  0.75837000  0.28617000  0.05865000  1
  C  C178  1  0.76879000  0.49671000  0.76481000  1
  C  C179  1  0.03147000  0.50324000  0.23482000  1
  C  C180  1  0.10124000  0.96673000  0.35738000  1
  C  C181  1  0.04184000  0.92637000  0.39591000  1
  C  C182  1  0.04968000  0.80785000  0.98249000  1
  C  C183  1  0.18411000  0.06115000  0.71348000  1
  C  C184  1  0.87031000  0.38837000  0.86395000  1
  C  C185  1  0.25528000  0.88013000  0.45146000  1
  C  C186  1  0.43672000  0.06636000  0.49673000  1
  C  C187  1  0.52661000  0.81272000  0.00918000  1
  C  C188  1  0.92219000  0.65345000  0.48423000  1
  C  C189  1  0.91792000  0.97456000  0.13579000  1
  C  C190  1  0.63760000  0.30262000  0.02454000  1
  C  C191  1  0.17045000  0.62098000  0.89539000  1
  C  C192  1  0.49900000  0.49437000  0.74341000  1
  C  C193  1  0.13158000  0.38971000  0.93080000  1
  C  C194  1  0.62478000  0.13887000  0.60513000  1
  C  C195  1  0.16123000  0.29865000  0.98196000  1
  C  C196  1  0.39492000  0.55571000  0.08384000  1
  C  C197  1  0.46435000  0.82393000  0.50451000  1
  C  C198  1  0.33790000  0.02648000  0.69726000  1
  C  C199  1  0.03199000  0.50420000  0.17575000  1
  C  C200  1  0.06958000  0.19794000  0.49366000  1
  C  C201  1  0.59244000  0.86833000  0.01231000  1
  C  C202  1  0.03083000  0.02642000  0.86327000  1
  C  C203  1  0.88194000  0.50557000  0.15689000  1
  C  C204  1  0.35042000  0.18843000  0.99066000  1
  C  C205  1  0.93705000  0.93133000  0.61078000  1
  C  C206  1  0.61310000  0.84273000  0.50575000  1
  C  C207  1  0.11038000  0.86464000  0.97428000  1
  C  C208  1  0.05604000  0.34970000  0.51308000  1
  C  C209  1  0.12571000  0.61184000  0.13572000  1
  C  C210  1  0.61003000  0.72531000  0.50402000  1
  C  C211  1  0.66548000  0.49630000  0.72469000  1
  C  C212  1  0.06718000  0.49705000  0.93345000  1
  C  C213  1  0.94455000  0.13555000  0.02479000  1
  C  C214  1  0.58082000  0.02685000  0.35181000  1
  C  C215  1  0.55005000  0.71878000  0.04990000  1
  C  C216  1  0.75702000  0.74489000  0.50569000  1
  C  C217  1  0.54272000  0.98685000  0.86811000  1
  C  C218  1  0.73824000  0.50542000  0.25447000  1
  C  C219  1  0.96003000  0.97241000  0.64853000  1
  C  C220  1  0.20542000  0.88218000  0.55633000  1
  C  C221  1  0.95670000  0.93887000  0.28592000  1
  C  C222  1  0.83610000  0.97333000  0.50420000  1
  C  C223  1  0.66225000  0.99113000  0.81249000  1
  C  C224  1  0.46567000  0.76476000  0.50374000  1
  C  C225  1  0.33543000  0.09789000  0.37314000  1
  C  C226  1  0.64610000  0.11746000  0.44413000  1
  C  C227  1  0.53982000  0.35695000  0.03224000  1
  C  C228  1  0.98294000  0.54896000  0.91499000  1
  C  C229  1  0.36498000  0.86138000  0.39542000  1
  C  C230  1  0.09907000  0.91434000  0.45172000  1
  C  C231  1  0.39943000  0.04799000  0.28241000  1
  C  C232  1  0.83465000  0.19234000  0.01733000  1
  C  C233  1  0.52488000  0.08306000  0.44458000  1
  C  C234  1  0.59006000  0.11983000  0.54896000  1
  C  C235  1  0.47265000  0.13231000  0.98654000  1
  C  C236  1  0.26403000  0.86428000  0.61185000  1
  C  C237  1  0.19029000  0.50361000  0.13568000  1
  C  C238  1  0.56703000  0.62805000  0.09959000  1
  C  C239  1  0.46053000  0.00778000  0.18804000  1
  C  C240  1  0.11921000  0.10064000  0.67454000  1
  C  C241  1  0.39285000  0.01287000  0.13210000  1
  C  C242  1  0.31527000  0.02646000  0.49610000  1
  C  C243  1  0.67732000  0.13578000  0.49663000  1
  C  C244  1  0.45375000  0.61085000  0.06914000  1
  C  C245  1  0.70566000  0.91025000  0.68039000  1
  O  O246  1  0.34937000  0.04274000  0.23128000  1
  O  O247  1  0.06251000  0.99132000  0.90283000  1
  O  O248  1  0.90417000  0.06539000  0.86874000  1
  O  O249  1  0.43623000  0.95473000  0.86883000  1
  O  O250  1  0.34191000  0.52249000  0.56348000  1
  O  O251  1  0.85794000  0.23376000  0.05669000  1
  O  O252  1  0.41898000  0.23090000  0.95466000  1
  O  O253  1  0.08675000  0.05975000  0.76590000  1
  O  O254  1  0.03378000  0.13102000  0.06329000  1
  O  O255  1  0.38786000  0.49172000  0.70685000  1
  O  O256  1  0.56277000  0.01717000  0.90852000  1
  O  O257  1  0.72774000  0.00026000  0.99992000  1
  O  O258  1  0.58720000  0.50822000  0.29020000  1
  O  O259  1  0.70195000  0.86881000  0.04303000  1
  O  O260  1  0.27097000  0.00025000  0.00015000  1
  O  O261  1  0.84091000  0.93442000  0.12887000  1
  O  O262  1  0.12008000  0.29341000  0.49184000  1
  O  O263  1  0.48377000  0.98290000  0.09169000  1
  O  O264  1  0.94534000  0.09465000  0.99132000  1
  O  O265  1  0.25539000  0.04511000  0.13127000  1
  O  O266  1  0.42230000  0.47996000  0.43312000  1
  O  O267  1  0.42168000  0.09236000  0.01708000  1
  O  O268  1  0.15137000  0.76626000  0.94311000  1
  O  O269  1  0.14173000  0.43650000  0.52230000  1
  O  O270  1  0.90519000  0.70879000  0.50840000  1
  O  O271  1  0.10320000  0.56677000  0.47435000  1
  O  O272  1  0.95010000  0.01114000  0.09728000  1
  O  O273  1  0.03986000  0.90535000  0.00846000  1
  O  O274  1  0.61082000  0.13106000  0.95439000  1
  O  O275  1  0.23017000  0.86946000  0.93473000  1
  O  O276  1  0.62603000  0.95704000  0.76895000  1
  O  O277  1  0.91136000  0.94018000  0.23311000  1
  O  O278  1  0.53088000  0.90876000  0.98268000  1
  O  O279  1  0.60248000  0.77044000  0.04514000  1
