# generated using pymatgen
data_H9C14
_symmetry_space_group_name_H-M   'P 1'
_cell_length_a   9.96700000
_cell_length_b   37.69835000
_cell_length_c   37.69830000
_cell_angle_alpha   119.99986838
_cell_angle_beta   90.00000000
_cell_angle_gamma   90.00000000
_symmetry_Int_Tables_number   1
_chemical_formula_structural   H9C14
_chemical_formula_sum   'H54 C84'
_cell_volume   12267.03980109
_cell_formula_units_Z   6
loop_
 _symmetry_equiv_pos_site_id
 _symmetry_equiv_pos_as_xyz
  1  'x, y, z'
loop_
 _atom_site_type_symbol
 _atom_site_label
 _atom_site_symmetry_multiplicity
 _atom_site_fract_x
 _atom_site_fract_y
 _atom_site_fract_z
 _atom_site_occupancy
  C  1  1  0.99501600  0.70892100  0.35487500  1
  C  2  1  0.99501400  0.68529600  0.31139300  1
  C  3  1  0.99501600  0.64181300  0.28776700  1
  C  4  1  0.99501400  0.62195900  0.31139300  1
  C  5  1  0.99501600  0.64181400  0.35487600  1
  C  6  1  0.99501400  0.68529600  0.37473000  1
  C  7  1  0.99509400  0.61924000  0.24261700  1
  C  8  1  0.99514500  0.63918300  0.21883500  1
  C  9  1  0.99527300  0.61780500  0.17571000  1
  C  10  1  0.99535500  0.57476300  0.15366500  1
  C  11  1  0.99526500  0.55376700  0.17571000  1
  C  12  1  0.99514500  0.57551200  0.21883500  1
  C  13  1  0.99509400  0.75407200  0.37744900  1
  C  14  1  0.99514500  0.77785300  0.35750500  1
  C  15  1  0.99526900  0.82097800  0.37888300  1
  C  16  1  0.99535500  0.84302400  0.42192600  1
  C  17  1  0.99527300  0.82097900  0.44292200  1
  C  18  1  0.99514500  0.77785400  0.42117700  1
  C  19  1  0.99509400  0.61923900  0.37744900  1
  C  20  1  0.99514500  0.63918300  0.42117800  1
  C  21  1  0.99526900  0.61780400  0.44292300  1
  C  22  1  0.99535500  0.57476300  0.42192600  1
  C  23  1  0.99527600  0.55376600  0.37888500  1
  C  24  1  0.99514500  0.57551100  0.35750600  1
  C  40  1  0.99505500  0.28611000  0.64346800  1
  C  41  1  0.99505500  0.30973900  0.68695100  1
  C  42  1  0.99505500  0.35321900  0.71057700  1
  C  43  1  0.99505500  0.37307400  0.68694900  1
  C  44  1  0.99505500  0.35322000  0.64347000  1
  C  45  1  0.99505500  0.30973700  0.62361200  1
  C  46  1  0.99497500  0.37579300  0.75572500  1
  C  47  1  0.99492400  0.35584900  0.77950900  1
  C  48  1  0.99479900  0.37722600  0.82263300  1
  C  49  1  0.99471300  0.42027000  0.84468000  1
  C  50  1  0.99479800  0.44126700  0.82263300  1
  C  51  1  0.99492400  0.41952200  0.77951100  1
  C  52  1  0.99497500  0.24096200  0.62089400  1
  C  53  1  0.99492400  0.21717800  0.64083800  1
  C  54  1  0.99479500  0.17405300  0.61946000  1
  C  55  1  0.99471200  0.15200900  0.57641900  1
  C  56  1  0.99479800  0.17405700  0.55542300  1
  C  57  1  0.99492400  0.21717900  0.57716800  1
  C  58  1  0.99497500  0.37579400  0.62089500  1
  C  59  1  0.99492400  0.35584900  0.57716700  1
  C  60  1  0.99479500  0.37722800  0.55542200  1
  C  61  1  0.99471200  0.42027100  0.57641900  1
  C  62  1  0.99479500  0.44126800  0.61946200  1
  C  63  1  0.99492400  0.41952000  0.64083800  1
  C  79  1  0.99529500  0.55310600  0.11034900  1
  C  80  1  0.11648800  0.54208100  0.08829500  1
  C  81  1  0.11574300  0.52051700  0.04516700  1
  C  82  1  0.99509400  0.50873700  0.02161600  1
  C  83  1  0.87455600  0.52053500  0.04521900  1
  C  84  1  0.87400500  0.54210000  0.08834400  1
  C  87  1  0.99497500  0.48629300  0.97672900  1
  C  88  1  0.11551300  0.47449000  0.95312400  1
  C  89  1  0.11606400  0.45292800  0.90999900  1
  C  90  1  0.99477300  0.44192700  0.88799200  1
  C  91  1  0.87357900  0.45295800  0.91005000  1
  C  92  1  0.87432600  0.47451900  0.95317500  1
  C  99  1  0.99529500  0.55310600  0.44358300  1
  C  100  1  0.11649100  0.54207500  0.45460900  1
  C  101  1  0.11574300  0.52051100  0.47617200  1
  C  102  1  0.99509400  0.50873800  0.48795000  1
  C  103  1  0.87455600  0.52054300  0.47615200  1
  C  104  1  0.87400600  0.54210600  0.45458800  1
  C  107  1  0.99497500  0.48629600  0.51039400  1
  C  108  1  0.11551300  0.47449700  0.52219900  1
  C  109  1  0.11606300  0.45293300  0.54376100  1
  C  110  1  0.99477300  0.44192800  0.55476100  1
  C  111  1  0.87357500  0.45295600  0.54373400  1
  C  112  1  0.87432600  0.47451900  0.52217000  1
  C  119  1  0.99529500  0.88633900  0.44358200  1
  C  120  1  0.11649100  0.90839400  0.45461400  1
  C  121  1  0.11574300  0.95152100  0.47617700  1
  C  122  1  0.99509400  0.97507400  0.48795000  1
  C  123  1  0.87455600  0.95147100  0.47614500  1
  C  124  1  0.87400500  0.90834400  0.45458200  1
  C  127  1  0.99497500  0.01995900  0.51039200  1
  C  128  1  0.11551300  0.04356100  0.52219200  1
  C  129  1  0.11606300  0.08668900  0.54375700  1
  C  130  1  0.99477300  0.10869500  0.55476000  1
  C  131  1  0.87357900  0.08663800  0.54373300  1
  C  132  1  0.87432600  0.04351300  0.52217200  1
  H  25  1  0.99526500  0.83619800  0.36272900  1
  H  26  1  0.99507500  0.76475700  0.32652100  1
  H  27  1  0.99527600  0.83619800  0.47429600  1
  H  28  1  0.99507500  0.76475700  0.43906200  1
  H  29  1  0.99507500  0.67016600  0.43906300  1
  H  30  1  0.99526500  0.63396000  0.47429600  1
  H  31  1  0.99507500  0.55762500  0.32652200  1
  H  32  1  0.99527600  0.52239300  0.36272900  1
  H  33  1  0.99507500  0.55762600  0.23193100  1
  H  34  1  0.99526500  0.52239300  0.16049100  1
  H  35  1  0.99527600  0.63396000  0.16049100  1
  H  36  1  0.99507800  0.67016700  0.23193100  1
  H  37  1  0.99502500  0.70064200  0.29604700  1
  H  38  1  0.99502600  0.70064200  0.40542100  1
  H  39  1  0.99502600  0.59126700  0.29604600  1
  H  64  1  0.99479500  0.15883500  0.63561300  1
  H  65  1  0.99499400  0.23027500  0.67182300  1
  H  66  1  0.99479900  0.15883600  0.52404700  1
  H  67  1  0.99499400  0.23027600  0.55928000  1
  H  68  1  0.99499400  0.32486700  0.55928200  1
  H  69  1  0.99479500  0.36107500  0.52404900  1
  H  70  1  0.99499400  0.43740800  0.67182300  1
  H  71  1  0.99479900  0.47264000  0.63561500  1
  H  72  1  0.99499300  0.43740600  0.76641300  1
  H  73  1  0.99479500  0.47264000  0.83785100  1
  H  74  1  0.99479900  0.36107400  0.83785200  1
  H  75  1  0.99499400  0.32486500  0.76641300  1
  H  76  1  0.99504500  0.29439100  0.70229800  1
  H  77  1  0.99504500  0.29439300  0.59292300  1
  H  78  1  0.99504500  0.40376600  0.70229700  1
  H  85  1  0.78247300  0.51384200  0.03183900  1
  H  86  1  0.78416900  0.54971600  0.10358100  1
  H  93  1  0.20759600  0.48117900  0.96650600  1
  H  94  1  0.20590200  0.44531000  0.89476300  1
  H  95  1  0.78367200  0.44535600  0.89484900  1
  H  96  1  0.20639500  0.54968200  0.10349500  1
  H  97  1  0.78231200  0.48123200  0.96659600  1
  H  98  1  0.20775800  0.51380900  0.03174800  1
  H  105  1  0.78247400  0.51385500  0.48284600  1
  H  106  1  0.78416900  0.54972600  0.44697200  1
  H  113  1  0.20759600  0.48118900  0.51551100  1
  H  114  1  0.20590200  0.44531500  0.55137900  1
  H  115  1  0.78366900  0.44535400  0.55133100  1
  H  116  1  0.20639800  0.54967200  0.44700700  1
  H  117  1  0.78231200  0.48122700  0.51545700  1
  H  118  1  0.20775800  0.51379800  0.48287800  1
  H  125  1  0.78247400  0.96485000  0.48283200  1
  H  126  1  0.78416900  0.89310700  0.44696300  1
  H  133  1  0.20759600  0.03018300  0.51550100  1
  H  134  1  0.20590200  0.10192700  0.55137400  1
  H  135  1  0.78367200  0.10183900  0.55133500  1
  H  136  1  0.20639800  0.89319500  0.44701700  1
  H  137  1  0.78231200  0.03009100  0.51546100  1
  H  138  1  0.20775800  0.96494200  0.48289000  1
