# generated using pymatgen
data_TbH2C7(NO3)2
_symmetry_space_group_name_H-M   'P 1'
_cell_length_a   4.18919000
_cell_length_b   8.64539980
_cell_length_c   12.60695972
_cell_angle_alpha   88.31510293
_cell_angle_beta   80.51512685
_cell_angle_gamma   88.96763027
_symmetry_Int_Tables_number   1
_chemical_formula_structural   TbH2C7(NO3)2
_chemical_formula_sum   'Tb2 H4 C14 N4 O12'
_cell_volume   450.11221186
_cell_formula_units_Z   2
loop_
 _symmetry_equiv_pos_site_id
 _symmetry_equiv_pos_as_xyz
  1  'x, y, z'
loop_
 _atom_site_type_symbol
 _atom_site_label
 _atom_site_symmetry_multiplicity
 _atom_site_fract_x
 _atom_site_fract_y
 _atom_site_fract_z
 _atom_site_occupancy
  Tb  Tb0  1  0.83279000  0.34407000  0.79130000  1
  Tb  Tb1  1  0.15958000  0.65411000  0.20256000  1
  H  H2  1  0.48278000  0.84574000  0.94113000  1
  H  H3  1  0.37197000  0.71159000  0.45230000  1
  H  H4  1  0.51129000  0.15474000  0.05311000  1
  H  H5  1  0.62152000  0.28733000  0.54143000  1
  C  C6  1  0.39074000  0.08125000  0.80020000  1
  C  C7  1  0.17617000  0.03615000  0.90215000  1
  C  C8  1  0.27783000  0.92025000  0.97033000  1
  C  C9  1  0.39224000  0.57922000  0.64989000  1
  C  C10  1  0.16940000  0.54155000  0.57281000  1
  C  C11  1  0.19979000  0.61804000  0.47181000  1
  C  C12  1  0.63676000  0.55420000  0.99177000  1
  C  C13  1  0.60195000  0.91705000  0.19355000  1
  C  C14  1  0.81580000  0.96305000  0.09165000  1
  C  C15  1  0.71469000  0.07943000  0.02369000  1
  C  C16  1  0.60164000  0.41987000  0.34370000  1
  C  C17  1  0.82365000  0.45759000  0.42093000  1
  C  C18  1  0.79328000  0.38108000  0.52190000  1
  C  C19  1  0.35311000  0.44550000  0.00081000  1
  N  N20  1  0.90659000  0.11962000  0.93011000  1
  N  N21  1  0.96373000  0.42294000  0.59677000  1
  N  N22  1  0.08531000  0.87958000  0.06367000  1
  N  N23  1  0.02953000  0.57609000  0.39692000  1
  O  O24  1  0.29083000  0.19356000  0.74319000  1
  O  O25  1  0.66896000  0.02307000  0.78060000  1
  O  O26  1  0.36081000  0.48604000  0.73521000  1
  O  O27  1  0.59923000  0.67933000  0.62503000  1
  O  O28  1  0.85999000  0.54034000  0.91198000  1
  O  O29  1  0.62301000  0.65292000  0.06502000  1
  O  O30  1  0.70411000  0.80537000  0.25046000  1
  O  O31  1  0.32239000  0.97368000  0.21345000  1
  O  O32  1  0.63325000  0.51319000  0.25841000  1
  O  O33  1  0.39491000  0.31961000  0.36824000  1
  O  O34  1  0.12976000  0.45954000  0.08061000  1
  O  O35  1  0.36676000  0.34680000  0.92756000  1
