# generated using pymatgen
data_CuH8C12N3O2
_symmetry_space_group_name_H-M   'P 1'
_cell_length_a   17.43030000
_cell_length_b   17.43379000
_cell_length_c   20.99064000
_cell_angle_alpha   65.54424000
_cell_angle_beta   65.53174000
_cell_angle_gamma   89.97475000
_symmetry_Int_Tables_number   1
_chemical_formula_structural   CuH8C12N3O2
_chemical_formula_sum   'Cu12 H96 C144 N36 O24'
_cell_volume   5170.99953627
_cell_formula_units_Z   12
loop_
 _symmetry_equiv_pos_site_id
 _symmetry_equiv_pos_as_xyz
  1  'x, y, z'
loop_
 _atom_site_type_symbol
 _atom_site_label
 _atom_site_symmetry_multiplicity
 _atom_site_fract_x
 _atom_site_fract_y
 _atom_site_fract_z
 _atom_site_occupancy
  Cu  Cu0  1  0.30376000  0.87789000  0.23063000  1
  Cu  Cu1  1  0.27598000  0.06532000  0.13466000  1
  Cu  Cu2  1  0.39923000  0.96611000  0.04405000  1
  Cu  Cu3  1  0.46518000  0.89174000  0.23071000  1
  Cu  Cu4  1  0.59021000  0.79966000  0.13473000  1
  Cu  Cu5  1  0.55630000  0.98915000  0.04467000  1
  Cu  Cu6  1  0.10859000  0.69616000  0.76876000  1
  Cu  Cu7  1  0.20063000  0.72379000  0.86512000  1
  Cu  Cu8  1  0.01105000  0.60157000  0.95486000  1
  Cu  Cu9  1  0.12149000  0.53487000  0.76996000  1
  Cu  Cu10  1  0.93506000  0.40949000  0.86545000  1
  Cu  Cu11  1  0.03380000  0.44310000  0.95666000  1
  H  H12  1  0.80821000  0.77629000  0.98812000  1
  H  H13  1  0.75200000  0.73545000  0.95154000  1
  H  H14  1  0.70047000  0.71398000  0.05233000  1
  H  H15  1  0.21418000  0.78011000  0.39570000  1
  H  H16  1  0.12285000  0.78923000  0.47035000  1
  H  H17  1  0.22857000  0.83245000  0.44798000  1
  H  H18  1  0.35298000  0.64190000  0.31811000  1
  H  H19  1  0.26730000  0.60859000  0.30376000  1
  H  H20  1  0.26568000  0.69598000  0.32677000  1
  H  H21  1  0.15504000  0.96003000  0.60886000  1
  H  H22  1  0.05105000  0.93591000  0.74495000  1
  H  H23  1  0.82195000  0.92899000  0.53004000  1
  H  H24  1  0.17546000  0.16519000  0.21676000  1
  H  H25  1  0.11438000  0.13973000  0.31786000  1
  H  H26  1  0.06787000  0.10286000  0.27213000  1
  H  H27  1  0.22461000  0.47583000  0.14996000  1
  H  H28  1  0.46620000  0.86934000  0.95371000  1
  H  H29  1  0.45624000  0.75685000  0.98293000  1
  H  H30  1  0.54592000  0.81610000  0.97471000  1
  H  H31  1  0.71883000  0.91563000  0.66343000  1
  H  H32  1  0.61399000  0.52172000  0.14091000  1
  H  H33  1  0.65922000  0.05047000  0.81216000  1
  H  H34  1  0.74900000  0.09772000  0.81290000  1
  H  H35  1  0.64243000  0.09186000  0.88059000  1
  H  H36  1  0.20399000  0.23564000  0.98825000  1
  H  H37  1  0.29664000  0.31293000  0.95180000  1
  H  H38  1  0.24758000  0.23389000  0.05254000  1
  H  H39  1  0.38943000  0.82421000  0.39618000  1
  H  H40  1  0.40654000  0.74057000  0.47054000  1
  H  H41  1  0.32346000  0.71951000  0.44782000  1
  H  H42  1  0.32896000  0.04084000  0.31783000  1
  H  H43  1  0.42859000  0.08821000  0.30430000  1
  H  H44  1  0.40739000  0.97796000  0.32706000  1
  H  H45  1  0.23595000  0.43155000  0.60864000  1
  H  H46  1  0.20394000  0.31961000  0.74466000  1
  H  H47  1  0.64761000  0.54067000  0.53006000  1
  H  H48  1  0.60766000  0.61824000  0.21662000  1
  H  H49  1  0.56783000  0.54261000  0.31761000  1
  H  H50  1  0.65994000  0.62497000  0.27215000  1
  H  H51  1  0.62564000  0.37466000  0.14961000  1
  H  H52  1  0.57989000  0.17646000  0.95398000  1
  H  H53  1  0.56074000  0.26000000  0.98298000  1
  H  H54  1  0.47949000  0.20908000  0.97450000  1
  H  H55  1  0.61738000  0.42083000  0.66329000  1
  H  H56  1  0.24480000  0.33730000  0.14149000  1
  H  H57  1  0.52860000  0.13757000  0.81181000  1
  H  H58  1  0.43829000  0.08955000  0.81223000  1
  H  H59  1  0.47731000  0.02791000  0.87987000  1
  H  H60  1  0.76439000  0.19222000  0.01152000  1
  H  H61  1  0.68737000  0.24861000  0.04823000  1
  H  H62  1  0.76621000  0.30003000  0.94741000  1
  H  H63  1  0.17591000  0.78627000  0.60327000  1
  H  H64  1  0.25971000  0.87743000  0.52901000  1
  H  H65  1  0.28067000  0.77168000  0.55190000  1
  H  H66  1  0.95919000  0.64724000  0.68159000  1
  H  H67  1  0.91156000  0.73298000  0.69576000  1
  H  H68  1  0.02193000  0.73465000  0.67272000  1
  H  H69  1  0.56916000  0.84501000  0.39103000  1
  H  H70  1  0.68028000  0.94894000  0.25491000  1
  H  H71  1  0.45905000  0.17786000  0.47006000  1
  H  H72  1  0.38185000  0.82462000  0.78323000  1
  H  H73  1  0.45731000  0.88555000  0.68220000  1
  H  H74  1  0.37503000  0.93229000  0.72791000  1
  H  H75  1  0.62542000  0.77529000  0.85019000  1
  H  H76  1  0.82394000  0.53399000  0.04575000  1
  H  H77  1  0.74026000  0.54377000  0.01692000  1
  H  H78  1  0.79153000  0.45427000  0.02484000  1
  H  H79  1  0.57897000  0.28078000  0.33696000  1
  H  H80  1  0.66268000  0.38619000  0.85875000  1
  H  H81  1  0.86231000  0.34023000  0.18864000  1
  H  H82  1  0.91030000  0.25039000  0.18786000  1
  H  H83  1  0.97200000  0.35685000  0.12047000  1
  H  H84  1  0.22366000  0.79636000  0.01198000  1
  H  H85  1  0.26457000  0.70367000  0.04845000  1
  H  H86  1  0.28611000  0.75280000  0.94765000  1
  H  H87  1  0.21936000  0.61019000  0.60485000  1
  H  H88  1  0.21048000  0.59345000  0.53002000  1
  H  H89  1  0.16674000  0.67658000  0.55272000  1
  H  H90  1  0.35751000  0.67088000  0.68260000  1
  H  H91  1  0.39130000  0.57126000  0.69610000  1
  H  H92  1  0.30377000  0.59253000  0.67335000  1
  H  H93  1  0.03997000  0.76423000  0.39121000  1
  H  H94  1  0.06392000  0.79614000  0.25510000  1
  H  H95  1  0.07111000  0.35265000  0.46981000  1
  H  H96  1  0.83486000  0.39227000  0.78320000  1
  H  H97  1  0.86035000  0.43220000  0.68210000  1
  H  H98  1  0.89723000  0.34001000  0.72766000  1
  H  H99  1  0.52408000  0.37452000  0.85038000  1
  H  H100  1  0.13078000  0.41988000  0.04649000  1
  H  H101  1  0.24330000  0.43916000  0.01725000  1
  H  H102  1  0.18380000  0.52034000  0.02595000  1
  H  H103  1  0.08411000  0.38265000  0.33663000  1
  H  H104  1  0.47838000  0.75519000  0.85878000  1
  H  H105  1  0.95027000  0.47195000  0.18706000  1
  H  H106  1  0.90224000  0.56198000  0.18695000  1
  H  H107  1  0.90847000  0.52330000  0.11893000  1
  C  C108  1  0.42655000  0.79012000  0.07611000  1
  C  C109  1  0.42308000  0.46822000  0.14506000  1
  C  C110  1  0.18641000  0.90571000  0.36269000  1
  C  C111  1  0.68396000  0.97227000  0.90877000  1
  C  C112  1  0.33469000  0.58021000  0.15321000  1
  C  C113  1  0.16192000  0.03500000  0.29732000  1
  C  C114  1  0.48513000  0.60336000  0.13711000  1
  C  C115  1  0.99222000  0.95029000  0.46783000  1
  C  C116  1  0.74427000  0.76218000  0.99242000  1
  C  C117  1  0.18795000  0.82253000  0.42258000  1
  C  C118  1  0.70989000  0.84231000  0.97121000  1
  C  C119  1  0.39739000  0.71089000  0.14366000  1
  C  C120  1  0.34703000  0.49889000  0.14784000  1
  C  C121  1  0.73298000  0.91136000  0.89693000  1
  C  C122  1  0.90780000  0.93147000  0.67400000  1
  C  C123  1  0.93331000  0.94100000  0.54670000  1
  C  C124  1  0.88032000  0.92010000  0.80543000  1
  C  C125  1  0.30770000  0.66477000  0.29371000  1
  C  C126  1  0.49060000  0.51654000  0.14243000  1
  C  C127  1  0.08598000  0.95108000  0.62750000  1
  C  C128  1  0.02800000  0.93815000  0.70342000  1
  C  C129  1  0.93995000  0.92962000  0.72640000  1
  C  C130  1  0.35267000  0.72625000  0.20857000  1
  C  C131  1  0.75740000  0.91744000  0.77281000  1
  C  C132  1  0.81858000  0.92366000  0.69583000  1
  C  C133  1  0.84502000  0.93034000  0.57054000  1
  C  C134  1  0.12825000  0.11538000  0.27448000  1
  C  C135  1  0.28306000  0.45188000  0.14715000  1
  C  C136  1  0.47648000  0.80923000  0.99234000  1
  C  C137  1  0.13989000  0.96870000  0.37261000  1
  C  C138  1  0.96619000  0.94184000  0.59792000  1
  C  C139  1  0.11758000  0.96871000  0.49462000  1
  C  C140  1  0.05589000  0.95328000  0.57488000  1
  C  C141  1  0.78781000  0.92239000  0.64469000  1
  C  C142  1  0.56306000  0.48329000  0.14297000  1
  C  C143  1  0.68360000  0.05771000  0.85041000  1
  C  C144  1  0.49739000  0.13378000  0.07626000  1
  C  C145  1  0.43180000  0.38695000  0.14516000  1
  C  C146  1  0.45084000  0.73204000  0.36262000  1
  C  C147  1  0.40742000  0.11914000  0.90836000  1
  C  C148  1  0.51201000  0.26686000  0.15332000  1
  C  C149  1  0.54077000  0.66791000  0.29739000  1
  C  C150  1  0.37722000  0.25927000  0.13797000  1
  C  C151  1  0.53900000  0.58255000  0.46797000  1
  C  C152  1  0.26362000  0.24545000  0.99259000  1
  C  C153  1  0.38921000  0.75507000  0.42267000  1
  C  C154  1  0.31917000  0.18653000  0.97121000  1
  C  C155  1  0.45901000  0.14563000  0.14383000  1
  C  C156  1  0.50515000  0.35359000  0.14778000  1
  C  C157  1  0.37050000  0.19206000  0.89674000  1
  C  C158  1  0.41794000  0.39485000  0.67387000  1
  C  C159  1  0.51952000  0.51265000  0.54658000  1
  C  C160  1  0.31444000  0.27489000  0.80535000  1
  C  C161  1  0.39853000  0.04217000  0.29391000  1
  C  C162  1  0.36674000  0.34106000  0.14285000  1
  C  C163  1  0.28632000  0.42176000  0.62740000  1
  C  C164  1  0.26844000  0.35878000  0.70328000  1
  C  C165  1  0.33355000  0.34431000  0.72631000  1
  C  C166  1  0.43883000  0.06557000  0.20876000  1
  C  C167  1  0.46972000  0.31040000  0.77281000  1
  C  C168  1  0.48533000  0.38085000  0.69574000  1
  C  C169  1  0.58405000  0.49913000  0.57040000  1
  C  C170  1  0.59720000  0.61028000  0.27446000  1
  C  C171  1  0.56994000  0.40136000  0.14688000  1
  C  C172  1  0.53110000  0.19821000  0.99246000  1
  C  C173  1  0.48670000  0.65870000  0.37264000  1
  C  C174  1  0.43559000  0.46059000  0.59781000  1
  C  C175  1  0.38710000  0.53675000  0.49462000  1
  C  C176  1  0.36883000  0.47214000  0.57484000  1
  C  C177  1  0.56714000  0.43297000  0.64453000  1
  C  C178  1  0.29375000  0.37377000  0.14340000  1
  C  C179  1  0.46613000  0.09213000  0.84985000  1
  C  C180  1  0.86648000  0.57389000  0.92342000  1
  C  C181  1  0.61307000  0.57699000  0.85487000  1
  C  C182  1  0.26796000  0.81410000  0.63707000  1
  C  C183  1  0.88074000  0.31570000  0.09187000  1
  C  C184  1  0.73326000  0.66548000  0.84640000  1
  C  C185  1  0.33197000  0.83849000  0.70255000  1
  C  C186  1  0.74057000  0.51510000  0.86241000  1
  C  C187  1  0.41744000  0.00768000  0.53180000  1
  C  C188  1  0.75480000  0.25619000  0.00728000  1
  C  C189  1  0.24504000  0.81241000  0.57695000  1
  C  C190  1  0.81375000  0.29020000  0.02874000  1
  C  C191  1  0.85453000  0.60297000  0.85589000  1
  C  C192  1  0.64647000  0.65301000  0.85208000  1
  C  C193  1  0.80807000  0.26699000  0.10330000  1
  C  C194  1  0.60524000  0.09203000  0.32609000  1
  C  C195  1  0.48747000  0.06651000  0.45331000  1
  C  C196  1  0.72492000  0.11972000  0.19446000  1
  C  C197  1  0.95779000  0.69264000  0.70584000  1
  C  C198  1  0.65890000  0.50954000  0.85732000  1
  C  C199  1  0.57861000  0.91403000  0.37247000  1
  C  C200  1  0.64126000  0.97201000  0.29649000  1
  C  C201  1  0.65564000  0.06003000  0.27353000  1
  C  C202  1  0.93454000  0.64778000  0.79094000  1
  C  C203  1  0.68971000  0.24242000  0.22735000  1
  C  C204  1  0.61919000  0.18118000  0.30432000  1
  C  C205  1  0.50079000  0.15474000  0.42960000  1
  C  C206  1  0.38967000  0.87188000  0.72549000  1
  C  C207  1  0.59868000  0.71692000  0.85293000  1
  C  C208  1  0.80218000  0.52371000  0.00722000  1
  C  C209  1  0.34102000  0.86023000  0.62720000  1
  C  C210  1  0.53965000  0.03368000  0.40213000  1
  C  C211  1  0.46334000  0.88231000  0.50534000  1
  C  C212  1  0.52818000  0.94401000  0.42515000  1
  C  C213  1  0.56696000  0.21187000  0.35557000  1
  C  C214  1  0.62621000  0.43708000  0.85683000  1
  C  C215  1  0.90774000  0.31583000  0.15043000  1
  C  C216  1  0.20984000  0.50263000  0.92424000  1
  C  C217  1  0.53179000  0.56824000  0.85495000  1
  C  C218  1  0.09401000  0.54923000  0.63767000  1
  C  C219  1  0.02779000  0.59318000  0.09092000  1
  C  C220  1  0.41970000  0.48796000  0.84709000  1
  C  C221  1  0.96508000  0.45908000  0.70273000  1
  C  C222  1  0.39673000  0.62271000  0.86251000  1
  C  C223  1  0.04968000  0.46098000  0.53219000  1
  C  C224  1  0.23784000  0.73676000  0.00758000  1
  C  C225  1  0.17702000  0.61074000  0.57790000  1
  C  C226  1  0.15777000  0.68124000  0.02869000  1
  C  C227  1  0.28897000  0.54096000  0.85659000  1
  C  C228  1  0.50106000  0.49490000  0.85237000  1
  C  C229  1  0.08874000  0.62998000  0.10294000  1
  C  C230  1  0.06854000  0.58216000  0.32596000  1
  C  C231  1  0.05900000  0.48063000  0.45333000  1
  C  C232  1  0.07974000  0.68569000  0.19457000  1
  C  C233  1  0.33488000  0.60134000  0.70656000  1
  C  C234  1  0.48352000  0.63327000  0.85735000  1
  C  C235  1  0.04891000  0.71384000  0.37248000  1
  C  C236  1  0.06177000  0.73167000  0.29656000  1
  C  C237  1  0.07030000  0.66655000  0.27357000  1
  C  C238  1  0.27344000  0.56110000  0.79175000  1
  C  C239  1  0.08263000  0.53036000  0.22710000  1
  C  C240  1  0.07635000  0.51473000  0.30412000  1
  C  C241  1  0.06966000  0.41614000  0.42945000  1
  C  C242  1  0.88474000  0.40269000  0.72544000  1
  C  C243  1  0.54806000  0.43018000  0.85312000  1
  C  C244  1  0.19082000  0.46875000  0.00799000  1
  C  C245  1  0.03083000  0.51332000  0.62753000  1
  C  C246  1  0.05817000  0.56457000  0.40207000  1
  C  C247  1  0.03121000  0.61303000  0.50532000  1
  C  C248  1  0.04674000  0.63131000  0.42507000  1
  C  C249  1  0.07753000  0.43296000  0.35531000  1
  C  C250  1  0.51677000  0.70624000  0.85679000  1
  C  C251  1  0.94252000  0.53437000  0.14917000  1
  N  N252  1  0.23439000  0.93321000  0.28478000  1
  N  N253  1  0.21963000  0.01242000  0.24449000  1
  N  N254  1  0.63312000  0.94076000  0.98689000  1
  N  N255  1  0.40043000  0.85096000  0.09969000  1
  N  N256  1  0.35543000  0.81186000  0.18065000  1
  N  N257  1  0.64906000  0.86130000  0.02523000  1
  N  N258  1  0.79205000  0.91785000  0.82258000  1
  N  N259  1  0.40619000  0.62907000  0.14512000  1
  N  N260  1  0.08164000  0.96374000  0.44653000  1
  N  N261  1  0.48171000  0.78284000  0.28468000  1
  N  N262  1  0.53674000  0.74372000  0.24450000  1
  N  N263  1  0.37999000  0.07225000  0.98648000  1
  N  N264  1  0.49977000  0.04936000  0.09989000  1
  N  N265  1  0.46401000  0.00781000  0.18085000  1
  N  N266  1  0.32590000  0.11334000  0.02509000  1
  N  N267  1  0.38563000  0.25999000  0.82245000  1
  N  N268  1  0.44858000  0.22598000  0.14530000  1
  N  N269  1  0.47088000  0.58988000  0.44660000  1
  N  N270  1  0.21745000  0.76652000  0.71496000  1
  N  N271  1  0.25648000  0.78116000  0.75532000  1
  N  N272  1  0.92765000  0.36645000  0.01380000  1
  N  N273  1  0.95085000  0.60012000  0.89973000  1
  N  N274  1  0.99237000  0.64519000  0.81877000  1
  N  N275  1  0.88682000  0.35082000  0.97502000  1
  N  N276  1  0.74004000  0.20793000  0.17748000  1
  N  N277  1  0.77413000  0.59400000  0.85452000  1
  N  N278  1  0.41000000  0.91823000  0.55332000  1
  N  N279  1  0.06704000  0.51823000  0.71563000  1
  N  N280  1  0.98806000  0.46300000  0.75571000  1
  N  N281  1  0.05930000  0.62055000  0.01278000  1
  N  N282  1  0.14883000  0.50025000  0.90080000  1
  N  N283  1  0.18777000  0.53610000  0.81983000  1
  N  N284  1  0.13882000  0.67449000  0.97457000  1
  N  N285  1  0.08207000  0.61458000  0.17741000  1
  N  N286  1  0.37085000  0.55150000  0.85497000  1
  N  N287  1  0.03592000  0.52912000  0.55352000  1
  O  O288  1  0.19623000  0.98461000  0.46963000  1
  O  O289  1  0.54577000  0.65166000  0.12601000  1
  O  O290  1  0.26693000  0.60594000  0.16367000  1
  O  O291  1  0.67963000  0.91325000  0.79266000  1
  O  O292  1  0.90466000  0.91597000  0.85358000  1
  O  O293  1  0.96673000  0.94710000  0.42232000  1
  O  O294  1  0.33333333  0.54550000  0.46966000  1
  O  O295  1  0.32696000  0.22153000  0.12787000  1
  O  O296  1  0.56926000  0.23067000  0.16393000  1
  O  O297  1  0.52759000  0.29520000  0.79282000  1
  O  O298  1  0.24221000  0.23103000  0.85365000  1
  O  O299  1  0.60945000  0.63190000  0.42265000  1
  O  O300  1  0.45444000  0.80368000  0.53027000  1
  O  O301  1  0.77796000  0.45452000  0.87323000  1
  O  O302  1  0.76939000  0.73338000  0.83567000  1
  O  O303  1  0.70499000  0.32013000  0.20768000  1
  O  O304  1  0.76856000  0.09542000  0.14621000  1
  O  O305  1  0.36799000  0.03323000  0.57687000  1
  O  O306  1  0.01537000  0.66682000  0.53025000  1
  O  O307  1  0.34869000  0.67271000  0.87310000  1
  O  O308  1  0.39388000  0.43056000  0.83679000  1
  O  O309  1  0.08704000  0.47251000  0.20709000  1
  O  O310  1  0.08383000  0.75790000  0.14633000  1
  O  O311  1  0.05298000  0.39023000  0.57779000  1
