# generated using pymatgen
data_CrH12(C2O)5
_symmetry_space_group_name_H-M   'P 1'
_cell_length_a   11.31163000
_cell_length_b   11.33490242
_cell_length_c   18.72456000
_cell_angle_alpha   89.53031837
_cell_angle_beta   89.99840000
_cell_angle_gamma   119.92944505
_symmetry_Int_Tables_number   1
_chemical_formula_structural   CrH12(C2O)5
_chemical_formula_sum   'Cr6 H72 C60 O30'
_cell_volume   2080.53037585
_cell_formula_units_Z   6
loop_
 _symmetry_equiv_pos_site_id
 _symmetry_equiv_pos_as_xyz
  1  'x, y, z'
loop_
 _atom_site_type_symbol
 _atom_site_label
 _atom_site_symmetry_multiplicity
 _atom_site_fract_x
 _atom_site_fract_y
 _atom_site_fract_z
 _atom_site_occupancy
  C  C0  1  0.23800000  0.52306000  0.63908000  1
  C  C1  1  0.19646000  0.50640000  0.56315000  1
  C  C2  1  0.70318000  0.48186000  0.15284000  1
  C  C3  1  0.64214500  0.54768000  0.85872000  1
  C  C4  1  0.09451500  0.45234000  0.14128500  1
  C  C5  1  0.59038500  0.89325000  0.86135000  1
  C  C6  1  0.69712500  0.10673000  0.13865000  1
  C  C7  1  0.55491000  0.37452000  0.46616000  1
  C  C8  1  0.69006000  0.49360000  0.43685000  1
  C  C9  1  0.18039500  0.62548000  0.53384000  1
  C  C10  1  0.54758000  0.38562000  0.54725000  1
  C  C11  1  0.16196000  0.61438000  0.45275000  1
  C  C12  1  0.81712000  0.51264000  0.48067000  1
  C  C13  1  0.30448000  0.48736000  0.51932000  1
  C  C14  1  0.66995000  0.52100000  0.57416000  1
  C  C15  1  0.14895000  0.47900000  0.42584000  1
  C  C16  1  0.79566500  0.50756000  0.56200000  1
  C  C17  1  0.28810500  0.49244000  0.43800000  1
  C  C18  1  0.71494000  0.47694000  0.36091000  1
  C  C19  1  0.69002000  0.64676000  0.52910000  1
  C  C20  1  0.04327000  0.35324000  0.47091000  1
  C  C21  1  0.79921000  0.00750000  0.45898000  1
  C  C22  1  0.79171000  0.99250000  0.54101000  1
  C  C23  1  0.65859000  0.12898000  0.47345000  1
  C  C24  1  0.52961000  0.87102000  0.52655000  1
  C  C25  1  0.55108000  0.88266000  0.44548000  1
  C  C26  1  0.66841000  0.11734000  0.55452000  1
  C  C27  1  0.67724000  0.02050000  0.43091000  1
  C  C28  1  0.65674000  0.97950000  0.56909000  1
  C  C29  1  0.80669000  0.62551000  0.04381000  1
  C  C30  1  0.18097000  0.37431000  0.95616000  1
  C  C31  1  0.65316000  0.54882000  0.64936000  1
  C  C32  1  0.10434000  0.45118000  0.35064000  1
  C  C33  1  0.79722500  0.63665000  0.96404500  1
  C  C34  1  0.68010000  0.62148000  0.44834000  1
  C  C35  1  0.16065000  0.36335000  0.03594500  1
  C  C36  1  0.64447500  0.36884000  0.03592000  1
  C  C37  1  0.27572500  0.63110000  0.96408000  1
  C  C38  1  0.55810000  0.52564000  0.06162000  1
  C  C39  1  0.03254000  0.47450000  0.93839000  1
  C  C40  1  0.05863500  0.37853000  0.55166000  1
  C  C41  1  0.67646000  0.50110000  0.07620500  1
  C  C42  1  0.17537500  0.49889000  0.92380000  1
  C  C43  1  0.65749500  0.52174000  0.93632500  1
  C  C44  1  0.13583000  0.47826000  0.06368000  1
  C  C45  1  0.65617500  0.38827000  0.95300000  1
  C  C46  1  0.26800500  0.61169000  0.04700000  1
  C  C47  1  0.53636000  0.51503000  0.97963000  1
  C  C48  1  0.02143000  0.48504000  0.02039000  1
  C  C49  1  0.52644000  0.01199000  0.03992500  1
  C  C50  1  0.51456500  0.98820000  0.96005000  1
  C  C51  1  0.77767500  0.14964000  0.00813500  1
  C  C52  1  0.62777500  0.85023000  0.99191000  1
  C  C53  1  0.68663000  0.92174000  0.06350500  1
  C  C54  1  0.76499000  0.07807000  0.93655500  1
  C  C55  1  0.62731500  0.93888000  0.64511000  1
  C  C56  1  0.68844000  0.06112000  0.35489000  1
  C  C57  1  0.67278500  0.05016000  0.06477500  1
  C  C58  1  0.62260500  0.94981000  0.93524000  1
  C  C59  1  0.22132500  0.51814000  0.84716000  1
  Cr  Cr60  1  0.39283000  0.77138000  0.74531000  1
  Cr  Cr61  1  0.93329000  0.22376000  0.24699000  1
  Cr  Cr62  1  0.70953000  0.77624000  0.75301000  1
  Cr  Cr63  1  0.62145000  0.22862000  0.25469000  1
  Cr  Cr64  1  0.39761000  0.45976000  0.74819000  1
  Cr  Cr65  1  0.93785000  0.54024000  0.25181000  1
  H  H66  1  0.79634000  0.72818000  0.53875000  1
  H  H67  1  0.29365000  0.40770000  0.41183000  1
  H  H68  1  0.52768500  0.77083000  0.00709500  1
  H  H69  1  0.77683000  0.14803000  0.89119500  1
  H  H70  1  0.62833500  0.85183000  0.10884500  1
  H  H71  1  0.68403500  0.80319000  0.97116000  1
  H  H72  1  0.88096000  0.19656000  0.02892000  1
  H  H73  1  0.54747000  0.29782000  0.57364000  1
  H  H74  1  0.88594000  0.59228000  0.58817000  1
  H  H75  1  0.24965000  0.70218000  0.42635000  1
  H  H76  1  0.85280000  0.44356000  0.46446000  1
  H  H77  1  0.40924000  0.55644000  0.53553000  1
  H  H78  1  0.78143000  0.41118000  0.58538000  1
  H  H79  1  0.37024000  0.58880000  0.41461000  1
  H  H80  1  0.76455000  0.70990000  0.42010000  1
  H  H81  1  0.05466000  0.29010000  0.57990000  1
  H  H82  1  0.62281000  0.68440000  0.54653000  1
  H  H83  1  0.93842000  0.31560000  0.45348000  1
  H  H84  1  0.54216000  0.27646000  0.45184000  1
  H  H85  1  0.89606000  0.09258000  0.44149000  1
  H  H86  1  0.26571000  0.72354000  0.54815000  1
  H  H87  1  0.79087500  0.73801000  0.11927000  1
  H  H88  1  0.05292000  0.26200000  0.88053000  1
  H  H89  1  0.84818500  0.95596000  0.11826500  1
  H  H90  1  0.89227500  0.04357000  0.88188500  1
  H  H91  1  0.80349000  0.90742000  0.55851000  1
  H  H92  1  0.58313000  0.60834000  0.42688000  1
  H  H93  1  0.97479000  0.39166000  0.57312000  1
  H  H94  1  0.79821000  0.91814000  0.43503000  1
  H  H95  1  0.88006000  0.08186000  0.56497000  1
  H  H96  1  0.06817000  0.27182000  0.46125000  1
  H  H97  1  0.72501000  0.23268000  0.45390000  1
  H  H98  1  0.49233000  0.76732000  0.54611000  1
  H  H99  1  0.76572000  0.20110000  0.57503000  1
  H  H100  1  0.56463000  0.79890000  0.42496000  1
  H  H101  1  0.46059000  0.87606000  0.41853000  1
  H  H102  1  0.58453000  0.12394000  0.58147000  1
  H  H103  1  0.44809000  0.89588000  0.53667000  1
  H  H104  1  0.55221000  0.10412000  0.46333000  1
  H  H105  1  0.88950500  0.60848000  0.05483500  1
  H  H106  1  0.28058500  0.39074000  0.94500500  1
  H  H107  1  0.46691000  0.37544000  0.44094000  1
  H  H108  1  0.09148000  0.62458000  0.55907000  1
  H  H109  1  0.82101000  0.74073000  0.94948000  1
  H  H110  1  0.08049000  0.25928000  0.05061000  1
  H  H111  1  0.88083500  0.62889000  0.93788500  1
  H  H112  1  0.89991000  0.61752000  0.46893000  1
  H  H113  1  0.25212500  0.37121000  0.06202500  1
  H  H114  1  0.70750000  0.33114000  0.05928000  1
  H  H115  1  0.37639500  0.66873000  0.94066500  1
  H  H116  1  0.74988500  0.39287000  0.93194000  1
  H  H117  1  0.35707500  0.60704000  0.06807500  1
  H  H118  1  0.28240000  0.38248000  0.53106000  1
  H  H119  1  0.46609000  0.44763000  0.09038500  1
  H  H120  1  0.01862000  0.55259000  0.90967000  1
  H  H121  1  0.57818500  0.62572000  0.08100500  1
  H  H122  1  0.95249000  0.37445000  0.91898500  1
  H  H123  1  0.50489500  0.58511000  0.95849500  1
  H  H124  1  0.91986500  0.41496000  0.04151500  1
  H  H125  1  0.45423000  0.41002000  0.97198000  1
  H  H126  1  0.04444500  0.59011000  0.02807000  1
  H  H127  1  0.53746500  0.29149000  0.04877000  1
  H  H128  1  0.24618500  0.70855000  0.95124000  1
  H  H129  1  0.45015000  0.37512000  0.56290000  1
  H  H130  1  0.07504000  0.62490000  0.43711000  1
  H  H131  1  0.56783000  0.30143000  0.92682500  1
  H  H132  1  0.26656500  0.69857000  0.07317500  1
  H  H133  1  0.49950500  0.09025000  0.05228500  1
  H  H134  1  0.40933500  0.91002000  0.94767500  1
  H  H135  1  0.44999500  0.91819000  0.06830000  1
  H  H136  1  0.53209000  0.08206000  0.93165500  1
  H  H137  1  0.75719500  0.22921000  0.99295000  1
  O  O138  1  0.50780000  0.91442000  0.66548000  1
  O  O139  1  0.07218000  0.33496000  0.16400000  1
  O  O140  1  0.73722000  0.66504000  0.83600000  1
  O  O141  1  0.69244000  0.89276000  0.82694000  1
  O  O142  1  0.79968000  0.10724000  0.17306000  1
  O  O143  1  0.49999000  0.66912000  0.74884000  1
  O  O144  1  0.83087000  0.33088000  0.25116000  1
  O  O145  1  0.59338000  0.08558000  0.33452000  1
  O  O146  1  0.27949000  0.64146000  0.66825000  1
  O  O147  1  0.63803000  0.35854000  0.33175000  1
  O  O148  1  0.25918000  0.42848000  0.66371000  1
  O  O149  1  0.83070000  0.57152000  0.33629000  1
  O  O150  1  0.53191000  0.47356000  0.67591000  1
  O  O151  1  0.05835000  0.52644000  0.32409000  1
  O  O152  1  0.74548000  0.66614000  0.67349000  1
  O  O153  1  0.07934000  0.33386000  0.32651000  1
  O  O154  1  0.70009000  0.89378000  0.67630000  1
  O  O155  1  0.80631000  0.10622000  0.32370000  1
  O  O156  1  0.49953000  0.91330000  0.82798000  1
  O  O157  1  0.58623000  0.08670000  0.17202000  1
  O  O158  1  0.27183000  0.64044000  0.81889000  1
  O  O159  1  0.63139000  0.35956000  0.18111000  1
  O  O160  1  0.25091000  0.42736000  0.82621000  1
  O  O161  1  0.52425000  0.47252000  0.82656000  1
  O  O162  1  0.82355000  0.57264000  0.17379000  1
  O  O163  1  0.84408000  0.75115000  0.07501500  1
  O  O164  1  0.09207500  0.24877000  0.92509000  1
  O  O165  1  0.82546500  0.95981000  0.06754000  1
  O  O166  1  0.86553000  0.03966000  0.93259000  1
  O  O167  1  0.05173000  0.52748000  0.17344000  1
