# generated using pymatgen
data_H15(C11N2)2
_symmetry_space_group_name_H-M   'P 1'
_cell_length_a   10.00140000
_cell_length_b   38.99485000
_cell_length_c   38.99480000
_cell_angle_alpha   119.99987275
_cell_angle_beta   90.00000000
_cell_angle_gamma   90.00000000
_symmetry_Int_Tables_number   1
_chemical_formula_structural   H15(C11N2)2
_chemical_formula_sum   'H90 C132 N24'
_cell_volume   13170.61142468
_cell_formula_units_Z   6
loop_
 _symmetry_equiv_pos_site_id
 _symmetry_equiv_pos_as_xyz
  1  'x, y, z'
loop_
 _atom_site_type_symbol
 _atom_site_label
 _atom_site_symmetry_multiplicity
 _atom_site_fract_x
 _atom_site_fract_y
 _atom_site_fract_z
 _atom_site_occupancy
  C  1  1  0.01910000  0.02163300  0.51099700  1
  C  2  1  0.99927900  0.04358100  0.55278500  1
  C  3  1  0.00240800  0.08538200  0.57457800  1
  C  4  1  0.01578500  0.10627100  0.55408700  1
  C  5  1  0.03019300  0.08605100  0.51263900  1
  C  6  1  0.03810300  0.04440200  0.49198700  1
  C  10  1  0.01915500  0.97855800  0.48905300  1
  C  11  1  0.03814300  0.95578800  0.50806200  1
  C  12  1  0.03029400  0.91413800  0.48740400  1
  C  13  1  0.01594500  0.89391800  0.44595300  1
  C  14  1  0.00261600  0.91480700  0.42546200  1
  C  15  1  0.99941900  0.95660900  0.44726200  1
  C  23  1  0.01924500  0.48958800  0.97850800  1
  C  24  1  0.99933400  0.50944900  0.95658400  1
  C  25  1  0.00219700  0.48946800  0.91478300  1
  C  26  1  0.01541400  0.44808300  0.89386200  1
  C  27  1  0.02989800  0.42682300  0.91404700  1
  C  28  1  0.03804200  0.44779900  0.95569400  1
  C  32  1  0.01958400  0.51070800  0.02158800  1
  C  33  1  0.03838700  0.55250000  0.04438100  1
  C  34  1  0.03100400  0.57346200  0.08604200  1
  C  35  1  0.01732400  0.55218700  0.10623800  1
  C  36  1  0.00396700  0.51080600  0.08533100  1
  C  37  1  0.00035700  0.49083900  0.04353400  1
  C  45  1  0.02055500  0.48919700  0.51067700  1
  C  46  1  0.00221200  0.44735000  0.49084500  1
  C  47  1  0.00644700  0.42555400  0.51084000  1
  C  48  1  0.01949500  0.44607600  0.55222900  1
  C  49  1  0.03202900  0.48757300  0.57348400  1
  C  50  1  0.03883300  0.50825600  0.55249800  1
  C  54  1  0.02014500  0.51109900  0.48948200  1
  C  55  1  0.03841400  0.49206100  0.44766000  1
  C  56  1  0.03069300  0.51270900  0.42665400  1
  C  57  1  0.01728500  0.55418200  0.44789300  1
  C  58  1  0.00442300  0.57469900  0.48928600  1
  C  59  1  0.00102800  0.55291600  0.50930300  1
  C  67  1  0.96988200  0.67691100  0.15358700  1
  C  68  1  0.86182800  0.70428800  0.16530500  1
  C  70  1  0.99772800  0.75599000  0.21525100  1
  C  71  1  0.11061300  0.73059400  0.20340000  1
  C  72  1  0.09505900  0.69113300  0.17247600  1
  C  74  1  0.00518600  0.79427100  0.24880300  1
  C  75  1  0.00895500  0.86733400  0.31982000  1
  C  77  1  0.89109400  0.85328900  0.29659600  1
  C  78  1  0.12697500  0.84444100  0.30588200  1
  C  79  1  0.12636000  0.80753300  0.27049600  1
  C  80  1  0.24015400  0.78280400  0.25747800  1
  C  81  1  0.23218500  0.74455000  0.22426100  1
  C  85  1  0.72532100  0.69538300  0.14823000  1
  C  89  1  0.76184100  0.87459100  0.30844600  1
  C  93  1  0.00857600  0.89974100  0.35748000  1
  C  94  1  0.95016500  0.63641400  0.13001000  1
  C  97  1  0.96931200  0.47665900  0.32319300  1
  C  98  1  0.86136300  0.46095700  0.29578500  1
  C  100  1  0.99719900  0.45927400  0.24410600  1
  C  101  1  0.10996400  0.47293500  0.26954400  1
  C  102  1  0.09431600  0.48151500  0.30901500  1
  C  104  1  0.00467700  0.45453800  0.20582300  1
  C  105  1  0.00837800  0.45251700  0.13275800  1
  C  107  1  0.89067300  0.44321100  0.14675900  1
  C  108  1  0.12629000  0.46160000  0.15572000  1
  C  109  1  0.12573000  0.46308900  0.19261300  1
  C  110  1  0.23947400  0.47486200  0.21736400  1
  C  111  1  0.23149600  0.47989800  0.25561900  1
  C  115  1  0.72494600  0.45270800  0.30467300  1
  C  119  1  0.76147100  0.43366200  0.12542200  1
  C  123  1  0.00778500  0.45781200  0.10037500  1
  C  124  1  0.94963500  0.49363600  0.36369600  1
  C  127  1  0.96916400  0.84679600  0.52351600  1
  C  128  1  0.86137700  0.83513600  0.53931200  1
  C  130  1  0.99718100  0.78503900  0.54079500  1
  C  131  1  0.10980200  0.79675200  0.52702200  1
  C  132  1  0.09412400  0.82769400  0.51852100  1
  C  134  1  0.00466800  0.75148500  0.54551700  1
  C  135  1  0.00821700  0.68044800  0.54751200  1
  C  137  1  0.89069300  0.70384800  0.55699400  1
  C  138  1  0.12611000  0.69424700  0.53832900  1
  C  139  1  0.12558100  0.72964100  0.53682400  1
  C  140  1  0.23914900  0.74251900  0.52487600  1
  C  141  1  0.23117500  0.77575700  0.51987300  1
  C  145  1  0.72508200  0.85235900  0.54773100  1
  C  149  1  0.76159100  0.69215500  0.56670100  1
  C  153  1  0.00747500  0.64278800  0.54226100  1
  C  154  1  0.94924500  0.87038400  0.50662200  1
  C  157  1  0.96887400  0.32336100  0.84660400  1
  C  158  1  0.86098700  0.29592300  0.83488700  1
  C  160  1  0.99677400  0.24431700  0.78480300  1
  C  161  1  0.10950200  0.26976800  0.79659400  1
  C  162  1  0.09386500  0.30920900  0.82754500  1
  C  164  1  0.00426800  0.20604500  0.75124500  1
  C  165  1  0.00805500  0.13295800  0.68024300  1
  C  167  1  0.89033800  0.14694000  0.70354700  1
  C  168  1  0.12593000  0.15593600  0.69410000  1
  C  169  1  0.12533100  0.19283900  0.72948700  1
  C  170  1  0.23898400  0.21762900  0.74243600  1
  C  171  1  0.23098400  0.25587700  0.77566400  1
  C  175  1  0.72461700  0.30474200  0.85206200  1
  C  179  1  0.76120200  0.12556500  0.69179500  1
  C  183  1  0.00753700  0.10050900  0.64260600  1
  C  184  1  0.94892000  0.36384200  0.87021800  1
  C  187  1  0.97012200  0.52347200  0.67689100  1
  C  188  1  0.86189700  0.53907000  0.70421000  1
  C  190  1  0.99757800  0.54089200  0.75598500  1
  C  191  1  0.11061300  0.52740700  0.73064600  1
  C  192  1  0.09525400  0.51886700  0.69117800  1
  C  194  1  0.00488600  0.54562000  0.79426900  1
  C  195  1  0.00842600  0.54766600  0.86733500  1
  C  197  1  0.89057400  0.55679200  0.85324000  1
  C  198  1  0.12654900  0.53876700  0.84449200  1
  C  199  1  0.12605000  0.53725000  0.80758800  1
  C  200  1  0.23997400  0.52559300  0.78291100  1
  C  201  1  0.23216000  0.52056000  0.74465800  1
  C  205  1  0.72539700  0.54717100  0.69523400  1
  C  209  1  0.76123200  0.56619300  0.87449400  1
  C  213  1  0.00798700  0.54240800  0.89974000  1
  C  214  1  0.95067100  0.50654400  0.63638000  1
  C  217  1  0.96935200  0.15338300  0.47648400  1
  C  218  1  0.86155200  0.16502900  0.46068000  1
  C  220  1  0.99741800  0.21506900  0.45910200  1
  C  221  1  0.11005200  0.20335800  0.47287400  1
  C  222  1  0.09432300  0.17246300  0.48143900  1
  C  224  1  0.00487600  0.24863300  0.45439900  1
  C  225  1  0.00825600  0.31974900  0.45254700  1
  C  227  1  0.89082500  0.29629400  0.44297200  1
  C  228  1  0.12615000  0.30594900  0.46173100  1
  C  229  1  0.12574000  0.27050000  0.46313000  1
  C  230  1  0.23940400  0.25758100  0.47499800  1
  C  231  1  0.23146600  0.22432500  0.47997300  1
  C  235  1  0.72517700  0.14786300  0.45235000  1
  C  239  1  0.76166100  0.30798500  0.43329800  1
  C  243  1  0.00734200  0.35742000  0.45782100  1
  C  244  1  0.94947500  0.12988500  0.49347400  1
  H  7  1  0.98065200  0.02946800  0.56829900  1
  H  8  1  0.05705900  0.03105200  0.46236300  1
  H  9  1  0.01613400  0.13663700  0.56944600  1
  H  16  1  0.05700900  0.96913700  0.53769200  1
  H  17  1  0.01627600  0.86355000  0.43059200  1
  H  18  1  0.98070000  0.97072100  0.43175300  1
  H  29  1  0.98080100  0.53908100  0.97071800  1
  H  30  1  0.05709900  0.43149600  0.96900600  1
  H  31  1  0.01553500  0.43309600  0.86349500  1
  H  38  1  0.05689100  0.56880900  0.03104600  1
  H  39  1  0.01798400  0.56716800  0.13660500  1
  H  40  1  0.98183200  0.46121000  0.02941500  1
  H  51  1  0.98420000  0.43176300  0.46119900  1
  H  52  1  0.05666100  0.53793300  0.56883200  1
  H  53  1  0.02065900  0.43071100  0.56723000  1
  H  60  1  0.05691400  0.46242100  0.43134000  1
  H  61  1  0.01788400  0.56954000  0.43288400  1
  H  62  1  0.98306000  0.56849100  0.53895200  1
  H  73  1  0.17369800  0.67193400  0.16569000  1
  H  82  1  0.32789100  0.79175700  0.27302600  1
  H  83  1  0.31433300  0.72651600  0.21634200  1
  H  84  1  0.21225800  0.85360100  0.32273200  1
  H  86  1  0.71668900  0.66589200  0.12235200  1
  H  87  1  0.69790100  0.71671700  0.13907600  1
  H  88  1  0.65420700  0.69781900  0.17057400  1
  H  90  1  0.68424300  0.85867100  0.28639900  1
  H  91  1  0.77309500  0.90388900  0.31164700  1
  H  92  1  0.72905700  0.87785600  0.33662300  1
  H  95  1  0.86668700  0.62510500  0.13432100  1
  H  96  1  0.02982500  0.92643500  0.36166900  1
  H  103  1  0.17298800  0.49389600  0.32820900  1
  H  112  1  0.32706700  0.48159900  0.20847200  1
  H  113  1  0.31349600  0.49015000  0.27370000  1
  H  114  1  0.21148300  0.46937200  0.14659800  1
  H  116  1  0.71634900  0.45634100  0.33417400  1
  H  117  1  0.69775600  0.42219500  0.28335100  1
  H  118  1  0.65365600  0.47255400  0.30220000  1
  H  120  1  0.68395300  0.42747700  0.14132100  1
  H  121  1  0.77292100  0.40757400  0.09612700  1
  H  122  1  0.72845700  0.45854900  0.12214800  1
  H  125  1  0.86612800  0.50924200  0.37499700  1
  H  126  1  0.02447500  0.43501300  0.07349000  1
  H  133  1  0.17258400  0.83445200  0.50602600  1
  H  142  1  0.32673700  0.72688800  0.51813400  1
  H  143  1  0.31315900  0.78359800  0.50962400  1
  H  144  1  0.21110800  0.67726300  0.53041500  1
  H  146  1  0.71645700  0.87825100  0.54413900  1
  H  147  1  0.69827000  0.86153500  0.57826600  1
  H  148  1  0.65352700  0.83009500  0.52794900  1
  H  150  1  0.68420100  0.71429300  0.57297600  1
  H  151  1  0.77336500  0.68894200  0.59277700  1
  H  152  1  0.72821100  0.66401600  0.54185500  1
  H  155  1  0.86557800  0.86612900  0.49109700  1
  H  156  1  0.02121400  0.63875900  0.56521200  1
  H  163  1  0.17242300  0.32843900  0.83435600  1
  H  172  1  0.32668100  0.20871000  0.72686600  1
  H  173  1  0.31305400  0.27393700  0.78356200  1
  H  174  1  0.21114900  0.14678100  0.67722000  1
  H  176  1  0.71599800  0.33420900  0.87798200  1
  H  177  1  0.69760000  0.28335800  0.86118700  1
  H  178  1  0.65321100  0.30231400  0.82978900  1
  H  180  1  0.68370200  0.14145400  0.71388500  1
  H  181  1  0.77280200  0.09628300  0.68861000  1
  H  182  1  0.72807800  0.12225600  0.66362700  1
  H  185  1  0.86530800  0.37512100  0.86594500  1
  H  186  1  0.02752500  0.07377100  0.63848800  1
  H  193  1  0.17402300  0.50650000  0.67202300  1
  H  202  1  0.32770400  0.51904100  0.79190500  1
  H  203  1  0.31441300  0.51048800  0.72666300  1
  H  204  1  0.21183400  0.53111400  0.85368800  1
  H  206  1  0.71689900  0.54354300  0.66573400  1
  H  207  1  0.69779900  0.57764900  0.71654600  1
  H  208  1  0.65433800  0.52723500  0.69764300  1
  H  210  1  0.68366300  0.57228700  0.85854200  1
  H  211  1  0.77232900  0.59229300  0.90379500  1
  H  212  1  0.72852600  0.54127000  0.87774700  1
  H  215  1  0.86734700  0.49085800  0.62501100  1
  H  216  1  0.02922400  0.56491300  0.92643800  1
  H  223  1  0.17285400  0.16569300  0.49390200  1
  H  232  1  0.32686200  0.27328200  0.48185800  1
  H  233  1  0.31336300  0.21654300  0.49031000  1
  H  234  1  0.21117800  0.32292000  0.46962500  1
  H  236  1  0.71653800  0.12198600  0.45596700  1
  H  237  1  0.69817600  0.13867800  0.42182700  1
  H  238  1  0.65377500  0.17016100  0.47216400  1
  H  240  1  0.68432200  0.28582600  0.42699700  1
  H  241  1  0.77336100  0.31124500  0.40724800  1
  H  242  1  0.72824100  0.33610100  0.45817300  1
  H  245  1  0.86572200  0.13411500  0.50896000  1
  H  246  1  0.01652000  0.36139500  0.43469900  1
  N  19  1  0.99711900  0.89298000  0.38634500  1
  N  20  1  0.03905100  0.89405200  0.50659800  1
  N  21  1  0.03906300  0.10613500  0.49344600  1
  N  22  1  0.99699400  0.10722200  0.61369300  1
  N  41  1  0.99908800  0.49349400  0.10714100  1
  N  42  1  0.03969100  0.61275100  0.10616900  1
  N  43  1  0.03864300  0.38753600  0.89393000  1
  N  44  1  0.99663900  0.50677900  0.89297400  1
  N  63  1  0.00010433  0.61382400  0.50657300  1
  N  64  1  0.03924100  0.49350400  0.38736300  1
  N  65  1  0.04036100  0.50676700  0.61278000  1
  N  66  1  0.00277700  0.38642300  0.49353800  1
  N  69  1  0.88070400  0.74188100  0.19555200  1
  N  76  1  0.89484500  0.81762500  0.26259000  1
  N  99  1  0.88024400  0.45361200  0.25819200  1
  N  106  1  0.89443200  0.44487000  0.18242400  1
  N  129  1  0.88031600  0.80486200  0.54661200  1
  N  136  1  0.89452200  0.73784700  0.55533200  1
  N  159  1  0.87986500  0.25835700  0.80459400  1
  N  166  1  0.89407200  0.18262100  0.73753700  1
  N  189  1  0.88059000  0.54642500  0.74181600  1
  N  196  1  0.89444300  0.55513600  0.81757700  1
  N  219  1  0.88051400  0.19527700  0.45334200  1
  N  226  1  0.89470900  0.26227500  0.44459800  1
