# generated using pymatgen
data_H6C6N
_symmetry_space_group_name_H-M   'P 1'
_cell_length_a   14.61045000
_cell_length_b   14.61045000
_cell_length_c   15.49660000
_cell_angle_alpha   90.00000000
_cell_angle_beta   90.00000000
_cell_angle_gamma   120.00000000
_symmetry_Int_Tables_number   1
_chemical_formula_structural   H6C6N
_chemical_formula_sum   'H72 C72 N12'
_cell_volume   2864.79954832
_cell_formula_units_Z   12
loop_
 _symmetry_equiv_pos_site_id
 _symmetry_equiv_pos_as_xyz
  1  'x, y, z'
loop_
 _atom_site_type_symbol
 _atom_site_label
 _atom_site_symmetry_multiplicity
 _atom_site_fract_x
 _atom_site_fract_y
 _atom_site_fract_z
 _atom_site_occupancy
  C  1  1  0.61372150  0.52418250  0.06557600  1
  C  2  1  0.56959500  0.42245000  0.00779500  1
  C  3  1  0.51348550  0.50448350  0.12035000  1
  C  4  1  0.41333950  0.48486350  0.06548000  1
  C  7  1  0.38052050  0.38542050  0.00674400  1
  C  8  1  0.47483450  0.40139050  0.94882800  1
  C  13  1  0.51365700  0.50463700  0.89395100  1
  C  14  1  0.55241700  0.60783300  0.94889800  1
  C  17  1  0.45756750  0.58668850  0.00779100  1
  C  20  1  0.64663150  0.62370050  0.00690500  1
  C  23  1  0.93315900  0.40437100  0.39886400  1
  C  24  1  0.87549550  0.44855850  0.34120400  1
  C  25  1  0.01374250  0.50455650  0.45366700  1
  C  26  1  0.09420600  0.60476200  0.39882900  1
  C  29  1  0.02754750  0.63762250  0.34017800  1
  C  30  1  0.94914500  0.54335700  0.28224300  1
  C  35  1  0.01351250  0.50453850  0.22726300  1
  C  36  1  0.07801800  0.46578200  0.28211400  1
  C  39  1  0.15175950  0.56061650  0.34100400  1
  C  42  1  0.99973550  0.37151750  0.34010000  1
  C  45  1  0.49406150  0.08514450  0.73214300  1
  C  46  1  0.59586550  0.14270750  0.67443100  1
  C  47  1  0.51366550  0.00461150  0.78701200  1
  C  48  1  0.53330400  0.92403900  0.73223200  1
  C  51  1  0.63281600  0.99061800  0.67354900  1
  C  52  1  0.61696550  0.06897350  0.61554100  1
  C  57  1  0.51376150  0.00455350  0.56060200  1
  C  58  1  0.41050450  0.94016250  0.61549600  1
  C  61  1  0.43153650  0.86644950  0.67447100  1
  C  64  1  0.39460100  0.01854500  0.67342000  1
  C  67  1  0.48713050  0.26158450  0.75147500  1
  C  68  1  0.47703200  0.16482500  0.78433900  1
  C  69  1  0.44514750  0.14469450  0.87259900  1
  C  71  1  0.45044550  0.30865850  0.89137000  1
  C  74  1  0.51956150  0.30967050  0.66393500  1
  C  75  1  0.56674700  0.42914800  0.64645400  1
  C  76  1  0.63960000  0.38291400  0.64825300  1
  C  82  1  0.79724050  0.53143350  0.08499400  1
  C  83  1  0.71037300  0.54118500  0.11785800  1
  C  84  1  0.72195050  0.57290750  0.20616200  1
  C  86  1  0.88072950  0.56792450  0.22498600  1
  C  89  1  0.81284000  0.49870600  0.99756200  1
  C  90  1  0.88504350  0.45140250  0.98017000  1
  C  91  1  0.76595550  0.37859750  0.98218400  1
  C  97  1  0.75693600  0.22080900  0.41826700  1
  C  98  1  0.85356950  0.30766450  0.45112500  1
  C  99  1  0.87365900  0.29614000  0.53944700  1
  C  101  1  0.70994650  0.13732850  0.55826400  1
  C  104  1  0.70865050  0.20522550  0.33081400  1
  C  105  1  0.58918350  0.13285250  0.31336600  1
  C  106  1  0.63525400  0.25191100  0.31546300  1
  C  112  1  0.54059750  0.74779450  0.75161200  1
  C  113  1  0.55029750  0.84438350  0.78450300  1
  C  114  1  0.58188400  0.86443900  0.87284300  1
  C  116  1  0.57697250  0.70076650  0.89155900  1
  C  119  1  0.50793200  0.69954400  0.66414500  1
  C  120  1  0.46074550  0.58006650  0.64668400  1
  C  121  1  0.38784400  0.62623600  0.64873700  1
  C  127  1  0.22978750  0.47760550  0.08472800  1
  C  128  1  0.31660050  0.46779450  0.11766500  1
  C  129  1  0.30500000  0.43620100  0.20600000  1
  C  131  1  0.14635500  0.44134000  0.22463600  1
  C  134  1  0.21425500  0.51023800  0.99723100  1
  C  135  1  0.14195600  0.55741400  0.97974300  1
  C  136  1  0.26102950  0.63030850  0.98172500  1
  C  142  1  0.27076250  0.78804450  0.41829300  1
  C  143  1  0.17388300  0.70144500  0.45106600  1
  C  144  1  0.15371650  0.71313950  0.53933200  1
  C  146  1  0.31758150  0.87178050  0.55818100  1
  C  149  1  0.31891850  0.80373950  0.33078200  1
  C  150  1  0.43842750  0.87588750  0.31335300  1
  C  151  1  0.39201700  0.75677400  0.31511400  1
  H  5  1  0.53381750  0.57235250  0.16208800  1
  H  6  1  0.49308550  0.43655850  0.16203600  1
  H  9  1  0.35449150  0.31527250  0.04722400  1
  H  10  1  0.31388450  0.37066850  0.96540000  1
  H  11  1  0.55051600  0.35361900  0.04820400  1
  H  12  1  0.62833750  0.43135050  0.96181200  1
  H  15  1  0.44788650  0.49188850  0.85210300  1
  H  16  1  0.57946000  0.51743300  0.85212100  1
  H  18  1  0.39890100  0.57787600  0.96177100  1
  H  19  1  0.47658950  0.65545250  0.04826900  1
  H  21  1  0.71332900  0.63849000  0.96562400  1
  H  22  1  0.67261100  0.69379700  0.04743600  1
  H  27  1  0.06132500  0.48420100  0.49532700  1
  H  28  1  0.96622650  0.52488050  0.49543200  1
  H  31  1  0.98346900  0.66363600  0.38072400  1
  H  32  1  0.07943000  0.70429100  0.29886000  1
  H  33  1  0.82581800  0.46763200  0.38171100  1
  H  34  1  0.82555800  0.38985700  0.29523200  1
  H  37  1  0.06646450  0.57029350  0.18537000  1
  H  38  1  0.96043550  0.43872150  0.18548000  1
  H  40  1  0.20151350  0.61933050  0.29496200  1
  H  41  1  0.20158700  0.54161400  0.38138100  1
  H  43  1  0.94781650  0.30484450  0.29880200  1
  H  44  1  0.04390200  0.34553400  0.38056200  1
  H  49  1  0.44575050  0.95710350  0.82871300  1
  H  50  1  0.58155100  0.05213900  0.82873600  1
  H  53  1  0.70291700  0.03472500  0.71407900  1
  H  54  1  0.64758650  0.93869950  0.63226800  1
  H  55  1  0.66464600  0.19244800  0.71488800  1
  H  56  1  0.58704600  0.19255900  0.62840200  1
  H  59  1  0.52653650  0.95151750  0.51879800  1
  H  60  1  0.50102400  0.05756900  0.51874100  1
  H  62  1  0.44036650  0.81655750  0.62850000  1
  H  63  1  0.36272000  0.81674500  0.71490700  1
  H  65  1  0.37986800  0.07044500  0.63208200  1
  H  66  1  0.32446300  0.97445700  0.71391700  1
  H  73  1  0.43322850  0.07831350  0.90353300  1
  H  77  1  0.47384050  0.26208650  0.60894000  1
  H  78  1  0.67004750  0.37749850  0.58521400  1
  H  79  1  0.69151600  0.40454400  0.70446500  1
  H  80  1  0.58421450  0.48438150  0.69945700  1
  H  81  1  0.55779850  0.45260350  0.58156200  1
  H  88  1  0.66734000  0.58460500  0.23708400  1
  H  92  1  0.81089850  0.54423750  0.94245200  1
  H  93  1  0.72996550  0.34790150  0.91922800  1
  H  94  1  0.73580350  0.32689350  0.03852500  1
  H  95  1  0.92292550  0.43412150  0.03318800  1
  H  96  1  0.91729850  0.46009250  0.91524500  1
  H  103  1  0.94006600  0.35064800  0.57032600  1
  H  107  1  0.75619150  0.20730750  0.27571200  1
  H  108  1  0.64052100  0.28794400  0.25253400  1
  H  109  1  0.61358650  0.28193150  0.37182600  1
  H  110  1  0.53401500  0.09482700  0.36635900  1
  H  111  1  0.56570700  0.10064400  0.24842200  1
  H  118  1  0.59375900  0.93083200  0.90372800  1
  H  122  1  0.55345250  0.74708150  0.60905700  1
  H  123  1  0.35714050  0.63154550  0.58578700  1
  H  124  1  0.33612050  0.60459350  0.70507700  1
  H  125  1  0.44350700  0.52487100  0.69967000  1
  H  126  1  0.46948950  0.55658350  0.58174100  1
  H  133  1  0.35944700  0.42423600  0.23691000  1
  H  137  1  0.21624950  0.46466150  0.94217600  1
  H  138  1  0.29700650  0.66091950  0.91874900  1
  H  139  1  0.29117650  0.68209250  0.03802200  1
  H  140  1  0.10407350  0.57476550  0.03272400  1
  H  141  1  0.10967250  0.54859450  0.91481400  1
  H  148  1  0.08714850  0.65882150  0.57013700  1
  H  152  1  0.27140750  0.80201250  0.27577700  1
  H  153  1  0.38659050  0.72092750  0.25206800  1
  H  154  1  0.41356300  0.72641100  0.37132700  1
  H  155  1  0.49364400  0.91358800  0.36637200  1
  H  156  1  0.46195400  0.90831300  0.24846950  1
  N  70  1  0.43664800  0.21614300  0.92291700  1
  N  72  1  0.47446950  0.32594050  0.80659700  1
  N  85  1  0.80188050  0.58146450  0.25653400  1
  N  87  1  0.87416350  0.54399150  0.14019200  1
  N  100  1  0.80234150  0.21616850  0.58980900  1
  N  102  1  0.69255850  0.14389450  0.47347300  1
  N  115  1  0.59052950  0.79311850  0.92321100  1
  N  117  1  0.55313850  0.68338350  0.80677100  1
  N  130  1  0.22503500  0.42762400  0.25634000  1
  N  132  1  0.15283250  0.46514350  0.13985300  1
  N  145  1  0.22505950  0.79310450  0.58969200  1
  N  147  1  0.33508700  0.86504700  0.47344700  1
