# generated using pymatgen
data_Ag7H16(C6N5)4
_symmetry_space_group_name_H-M   'P 1'
_cell_length_a   10.57711000
_cell_length_b   13.27574596
_cell_length_c   23.59804000
_cell_angle_alpha   75.82841796
_cell_angle_beta   77.49898000
_cell_angle_gamma   66.55703305
_symmetry_Int_Tables_number   1
_chemical_formula_structural   Ag7H16(C6N5)4
_chemical_formula_sum   'Ag14 H32 C48 N40'
_cell_volume   2921.05724232
_cell_formula_units_Z   2
loop_
 _symmetry_equiv_pos_site_id
 _symmetry_equiv_pos_as_xyz
  1  'x, y, z'
loop_
 _atom_site_type_symbol
 _atom_site_label
 _atom_site_symmetry_multiplicity
 _atom_site_fract_x
 _atom_site_fract_y
 _atom_site_fract_z
 _atom_site_occupancy
  Ag  Ag0  1  0.56478000  0.05096000  0.34640000  1
  Ag  Ag1  1  0.85270000  0.61400000  0.10270000  1
  Ag  Ag2  1  0.29866000  0.96611000  0.84115000  1
  Ag  Ag3  1  0.17412000  0.01768000  0.38595000  1
  Ag  Ag4  1  0.42293000  0.51704000  0.88671000  1
  Ag  Ag5  1  0.06832000  0.28120000  0.81574000  1
  Ag  Ag6  1  0.83384000  0.78151000  0.31367000  1
  Ag  Ag7  1  0.89468000  0.46608000  0.33977000  1
  Ag  Ag8  1  0.69073000  0.27216000  0.81448000  1
  Ag  Ag9  1  0.22112000  0.77226000  0.31404000  1
  Ag  Ag10  1  0.03713000  0.55237000  0.84596000  1
  Ag  Ag11  1  0.62923000  0.17134000  0.53157000  1
  Ag  Ag12  1  0.67470000  0.65983000  0.02853000  1
  Ag  Ag13  1  0.42505000  0.12380000  0.60294000  1
  H  H14  1  0.29140000  0.56712000  0.74669000  1
  H  H15  1  0.72079000  0.89615000  0.76661000  1
  H  H16  1  0.98651000  0.12533000  0.47378000  1
  H  H17  1  0.31346000  0.89031000  0.73425000  1
  H  H18  1  0.47141000  0.56365000  0.31225000  1
  H  H19  1  0.42013000  0.61742000  0.97494000  1
  H  H20  1  0.96005000  0.22696000  0.35221000  1
  H  H21  1  0.42828000  0.69167000  0.71658000  1
  H  H22  1  0.16222000  0.19074000  0.21550000  1
  H  H23  1  0.60757000  0.47818000  0.41467000  1
  H  H24  1  0.78082000  0.70615000  0.22150000  1
  H  H25  1  0.56894000  0.88970000  0.70093000  1
  H  H26  1  0.83748000  0.38807000  0.20185000  1
  H  H27  1  0.39264000  0.06579000  0.24718000  1
  H  H28  1  0.42044000  0.31206000  0.31820000  1
  H  H29  1  0.76707000  0.04429000  0.63439000  1
  H  H30  1  0.65227000  0.06552000  0.81134000  1
  H  H31  1  0.46075000  0.72692000  0.85419000  1
  H  H32  1  0.20923000  0.96446000  0.62437000  1
  H  H33  1  0.50483000  0.98030000  0.91372000  1
  H  H34  1  0.94758000  0.81357000  0.81694000  1
  H  H35  1  0.61734000  0.39332000  0.26833000  1
  H  H36  1  0.47001000  0.35250000  0.44209000  1
  H  H37  1  0.06103000  0.38955000  0.23284000  1
  H  H38  1  0.36857000  0.46978000  0.18713000  1
  H  H39  1  0.73821000  0.85440000  0.94295000  1
  H  H40  1  0.20024000  0.46916000  0.12611000  1
  H  H41  1  0.98075000  0.96640000  0.68485000  1
  H  H42  1  0.55966000  0.53979000  0.13651000  1
  H  H43  1  0.58425000  0.15538000  0.42619000  1
  H  H44  1  0.83734000  0.65649000  0.92756000  1
  H  H45  1  0.28477000  0.20508000  0.72273000  1
  C  C46  1  0.48370000  0.53864000  0.11212000  1
  C  C47  1  0.55080000  0.89433000  0.90707000  1
  C  C48  1  0.37976000  0.13635000  0.73493000  1
  C  C49  1  0.23526000  0.36595000  0.27655000  1
  C  C50  1  0.71061000  0.56728000  0.87006000  1
  C  C51  1  0.65021000  0.46435000  0.25922000  1
  C  C52  1  0.64241000  0.21102000  0.41387000  1
  C  C53  1  0.52408000  0.75081000  0.87530000  1
  C  C54  1  0.45453000  0.14573000  0.77477000  1
  C  C55  1  0.12011000  0.86667000  0.77684000  1
  C  C56  1  0.67956000  0.82332000  0.92348000  1
  C  C57  1  0.57809000  0.32222000  0.42200000  1
  C  C58  1  0.04853000  0.97923000  0.78890000  1
  C  C59  1  0.40762000  0.58079000  0.02155000  1
  C  C60  1  0.18197000  0.47876000  0.28835000  1
  C  C61  1  0.78408000  0.17486000  0.38586000  1
  C  C62  1  0.21594000  0.22137000  0.23783000  1
  C  C63  1  0.65265000  0.39319000  0.40652000  1
  C  C64  1  0.53914000  0.96122000  0.72240000  1
  C  C65  1  0.77398000  0.46023000  0.22263000  1
  C  C66  1  0.58513000  0.05982000  0.78429000  1
  C  C67  1  0.74403000  0.63669000  0.23395000  1
  C  C68  1  0.32201000  0.72225000  0.73854000  1
  C  C69  1  0.65506000  0.67454000  0.88861000  1
  C  C70  1  0.73302000  0.71036000  0.91758000  1
  C  C71  1  0.05310000  0.78971000  0.79356000  1
  C  C72  1  0.62307000  0.64489000  0.27462000  1
  C  C73  1  0.39956000  0.24547000  0.80118000  1
  C  C74  1  0.28451000  0.49928000  0.10607000  1
  C  C75  1  0.15856000  0.33078000  0.24817000  1
  C  C76  1  0.99038000  0.08647000  0.52014000  1
  C  C77  1  0.85399000  0.06710000  0.36809000  1
  C  C78  1  0.62445000  0.96624000  0.75828000  1
  C  C79  1  0.55270000  0.74475000  0.30084000  1
  C  C80  1  0.24650000  0.65198000  0.75524000  1
  C  C81  1  0.30031000  0.53947000  0.04505000  1
  C  C82  1  0.85242000  0.25075000  0.37325000  1
  C  C83  1  0.57015000  0.55805000  0.28506000  1
  C  C84  1  0.25980000  0.83154000  0.74906000  1
  C  C85  1  0.34463000  0.15092000  0.25534000  1
  C  C86  1  0.37738000  0.49945000  0.13981000  1
  C  C87  1  0.11695000  0.04094000  0.54357000  1
  C  C88  1  0.11377000  0.99770000  0.60434000  1
  C  C89  1  0.98766000  0.99867000  0.63776000  1
  C  C90  1  0.86821000  0.04233000  0.61018000  1
  C  C91  1  0.36215000  0.28870000  0.29413000  1
  C  C92  1  0.24687000  0.04199000  0.50698000  1
  C  C93  1  0.20542000  0.54222000  0.00767000  1
  N  N94  1  0.84849000  0.50943000  0.85632000  1
  N  N95  1  0.42104000  0.04899000  0.70707000  1
  N  N96  1  0.79155000  0.35558000  0.38417000  1
  N  N97  1  0.99412000  0.00987000  0.35875000  1
  N  N98  1  0.23223000  0.54581000  0.94852000  1
  N  N99  1  0.88744000  0.91702000  0.33672000  1
  N  N100  1  0.39603000  0.88806000  0.33621000  1
  N  N101  1  0.26206000  0.30670000  0.81210000  1
  N  N102  1  0.78747000  0.00907000  0.35436000  1
  N  N103  1  0.27568000  0.04624000  0.44780000  1
  N  N104  1  0.45392000  0.04364000  0.48158000  1
  N  N105  1  0.63715000  0.50979000  0.86048000  1
  N  N106  1  0.37814000  0.38880000  0.83679000  1
  N  N107  1  0.49803000  0.57951000  0.05391000  1
  N  N108  1  0.01106000  0.91704000  0.33909000  1
  N  N109  1  0.40688000  0.04702000  0.43355000  1
  N  N110  1  0.11325000  0.68441000  0.78340000  1
  N  N111  1  0.01484000  0.13984000  0.80765000  1
  N  N112  1  0.85787000  0.41723000  0.83862000  1
  N  N113  1  0.35619000  0.04024000  0.52842000  1
  N  N114  1  0.86911000  0.08665000  0.55230000  1
  N  N115  1  0.11376000  0.03982000  0.80094000  1
  N  N116  1  0.11415000  0.54900000  0.93305000  1
  N  N117  1  0.02154000  0.54763000  0.98029000  1
  N  N118  1  0.03607000  0.64015000  0.30562000  1
  N  N119  1  0.81700000  0.54953000  0.20591000  1
  N  N120  1  0.73212000  0.41703000  0.84086000  1
  N  N121  1  0.91190000  0.03992000  0.78811000  1
  N  N122  1  0.16503000  0.63871000  0.29915000  1
  N  N123  1  0.25813000  0.53935000  0.28859000  1
  N  N124  1  0.41388000  0.79439000  0.31672000  1
  N  N125  1  0.47008000  0.85649000  0.88514000  1
  N  N126  1  0.25278000  0.39489000  0.83372000  1
  N  N127  1  0.61797000  0.80687000  0.31120000  1
  N  N128  1  0.89451000  0.13885000  0.79962000  1
  N  N129  1  0.47307000  0.29572000  0.81685000  1
  N  N130  1  0.51793000  0.89503000  0.33269000  1
  N  N131  1  0.07552000  0.54331000  0.02785000  1
  N  N132  1  0.04420000  0.53994000  0.29880000  1
  N  N133  1  0.41712000  0.18332000  0.28410000  1
