# generated using pymatgen
data_CuH4C11NO6
_symmetry_space_group_name_H-M   'P 1'
_cell_length_a   10.16322000
_cell_length_b   10.98998000
_cell_length_c   14.65987000
_cell_angle_alpha   90.00000000
_cell_angle_beta   106.67785000
_cell_angle_gamma   90.00000000
_symmetry_Int_Tables_number   1
_chemical_formula_structural   CuH4C11NO6
_chemical_formula_sum   'Cu4 H16 C44 N4 O24'
_cell_volume   1568.53320019
_cell_formula_units_Z   4
loop_
 _symmetry_equiv_pos_site_id
 _symmetry_equiv_pos_as_xyz
  1  'x, y, z'
loop_
 _atom_site_type_symbol
 _atom_site_label
 _atom_site_symmetry_multiplicity
 _atom_site_fract_x
 _atom_site_fract_y
 _atom_site_fract_z
 _atom_site_occupancy
  Cu  Cu0  1  0.03736000  0.24254000  0.00896000  1
  Cu  Cu1  1  0.96264000  0.24254000  0.49104000  1
  Cu  Cu2  1  0.96264000  0.75746000  0.99105000  1
  Cu  Cu3  1  0.03736000  0.75746000  0.50895000  1
  H  H4  1  0.12848000  0.48756000  0.04352000  1
  H  H5  1  0.31926000  0.61499000  0.03203000  1
  H  H6  1  0.52434000  0.28326000  0.98485000  1
  H  H7  1  0.32139000  0.17045000  0.99416000  1
  H  H8  1  0.87152000  0.48756000  0.45648000  1
  H  H9  1  0.68074000  0.61499000  0.46797000  1
  H  H10  1  0.47566000  0.28326000  0.51514000  1
  H  H11  1  0.67861000  0.17045000  0.50584000  1
  H  H12  1  0.87153000  0.51245000  0.95648000  1
  H  H13  1  0.68074000  0.38502000  0.96797000  1
  H  H14  1  0.47566000  0.71675000  0.01515000  1
  H  H15  1  0.67862000  0.82956000  0.00584000  1
  H  H16  1  0.12847000  0.51245000  0.54352000  1
  H  H17  1  0.31926000  0.38502000  0.53203000  1
  H  H18  1  0.52434000  0.71675000  0.48485000  1
  H  H19  1  0.32139000  0.82956000  0.49416000  1
  C  C20  1  0.21752000  0.44625000  0.02967000  1
  C  C21  1  0.32732000  0.51726000  0.02340000  1
  C  C22  1  0.44178000  0.46264000  0.00514000  1
  C  C23  1  0.43931000  0.33475000  0.99668000  1
  C  C24  1  0.32503000  0.26891000  0.00227000  1
  C  C25  1  0.92921000  0.34782000  0.15016000  1
  C  C26  1  0.96126000  0.22800000  0.20175000  1
  C  C27  1  0.81563000  0.12033000  0.05607000  1
  C  C28  1  0.91381000  0.11823000  0.15503000  1
  C  C29  1  0.95606000  0.00793000  0.20302000  1
  C  C30  1  0.91190000  0.89025000  0.14984000  1
  C  C31  1  0.78248000  0.44625000  0.47032000  1
  C  C32  1  0.67268000  0.51726000  0.47660000  1
  C  C33  1  0.55822000  0.46264000  0.49485000  1
  C  C34  1  0.56069000  0.33475000  0.50332000  1
  C  C35  1  0.67497000  0.26891000  0.49773000  1
  C  C36  1  0.07080000  0.34782000  0.34984000  1
  C  C37  1  0.03874000  0.22800000  0.29825000  1
  C  C38  1  0.18437000  0.12033000  0.44393000  1
  C  C39  1  0.08619000  0.11823000  0.34497000  1
  C  C40  1  0.04394000  0.00793000  0.29698000  1
  C  C41  1  0.08810000  0.89025000  0.35016000  1
  C  C42  1  0.78248000  0.55375000  0.97032000  1
  C  C43  1  0.67268000  0.48275000  0.97660000  1
  C  C44  1  0.55822000  0.53736000  0.99485000  1
  C  C45  1  0.56069000  0.66526000  0.00332000  1
  C  C46  1  0.67497000  0.73110000  0.99772000  1
  C  C47  1  0.07079000  0.65218000  0.84984000  1
  C  C48  1  0.03874000  0.77200000  0.79825000  1
  C  C49  1  0.18437000  0.87967000  0.94393000  1
  C  C50  1  0.08619000  0.88177000  0.84497000  1
  C  C51  1  0.04394000  0.99207000  0.79698000  1
  C  C52  1  0.08810000  0.10975000  0.85016000  1
  C  C53  1  0.21752000  0.55375000  0.52967000  1
  C  C54  1  0.32732000  0.48275000  0.52339000  1
  C  C55  1  0.44178000  0.53736000  0.50514000  1
  C  C56  1  0.43931000  0.66526000  0.49668000  1
  C  C57  1  0.32503000  0.73110000  0.50227000  1
  C  C58  1  0.92921000  0.65218000  0.65016000  1
  C  C59  1  0.96126000  0.77200000  0.70175000  1
  C  C60  1  0.81563000  0.87967000  0.55607000  1
  C  C61  1  0.91381000  0.88177000  0.65503000  1
  C  C62  1  0.95606000  0.99207000  0.70302000  1
  C  C63  1  0.91190000  0.10975000  0.64984000  1
  N  N64  1  0.21451000  0.32454000  0.01795000  1
  N  N65  1  0.78549000  0.32454000  0.48205000  1
  N  N66  1  0.78549000  0.67546000  0.98205000  1
  N  N67  1  0.21451000  0.67546000  0.51795000  1
  O  O68  1  0.85288000  0.17750000  0.98993000  1
  O  O69  1  0.70062000  0.07284000  0.04144000  1
  O  O70  1  0.98559000  0.37041000  0.08287000  1
  O  O71  1  0.85291000  0.41867000  0.17670000  1
  O  O72  1  0.94035000  0.89077000  0.06908000  1
  O  O73  1  0.85529000  0.81122000  0.18511000  1
  O  O74  1  0.14712000  0.17750000  0.51006000  1
  O  O75  1  0.29939000  0.07284000  0.45856000  1
  O  O76  1  0.01441000  0.37041000  0.41713000  1
  O  O77  1  0.14709000  0.41867000  0.32330000  1
  O  O78  1  0.05965000  0.89077000  0.43092000  1
  O  O79  1  0.14471000  0.81122000  0.31489000  1
  O  O80  1  0.14712000  0.82250000  0.01006000  1
  O  O81  1  0.29938000  0.92716000  0.95856000  1
  O  O82  1  0.01441000  0.62959000  0.91713000  1
  O  O83  1  0.14708000  0.58134000  0.82330000  1
  O  O84  1  0.05965000  0.10923000  0.93092000  1
  O  O85  1  0.14471000  0.18878000  0.81489000  1
  O  O86  1  0.85288000  0.82250000  0.48994000  1
  O  O87  1  0.70062000  0.92716000  0.54144000  1
  O  O88  1  0.98559000  0.62959000  0.58287000  1
  O  O89  1  0.85292000  0.58133000  0.67669000  1
  O  O90  1  0.94035000  0.10923000  0.56908000  1
  O  O91  1  0.85529000  0.18878000  0.68511000  1
