# generated using pymatgen
data_H26C37N10
_symmetry_space_group_name_H-M   'P 1'
_cell_length_a   32.11030000
_cell_length_b   32.11030000
_cell_length_c   47.12730000
_cell_angle_alpha   90.00000000
_cell_angle_beta   90.00000000
_cell_angle_gamma   120.00000000
_symmetry_Int_Tables_number   1
_chemical_formula_structural   H26C37N10
_chemical_formula_sum   'H156 C222 N60'
_cell_volume   42081.56831670
_cell_formula_units_Z   6
loop_
 _symmetry_equiv_pos_site_id
 _symmetry_equiv_pos_as_xyz
  1  'x, y, z'
loop_
 _atom_site_type_symbol
 _atom_site_label
 _atom_site_symmetry_multiplicity
 _atom_site_fract_x
 _atom_site_fract_y
 _atom_site_fract_z
 _atom_site_occupancy
  H  1  1  0.91643600  0.24064300  0.95566300  1
  H  2  1  0.94738700  0.32232200  0.96807700  1
  H  4  1  0.91711600  0.13434900  0.84033200  1
  H  7  1  0.97306500  0.67118000  0.60543700  1
  H  8  1  0.92241800  0.70180700  0.61739800  1
  H  9  1  0.98449700  0.60802600  0.58745300  1
  H  11  1  0.93603800  0.79665800  0.72183000  1
  H  17  1  0.91247500  0.53257000  0.00720500  1
  H  18  1  0.96269300  0.58398600  0.00079700  1
  H  23  1  0.98623600  0.57731500  0.53669500  1
  H  30  1  0.92284400  0.66753900  0.83477400  1
  H  31  1  0.96863600  0.70748000  0.85414100  1
  H  39  1  0.89606000  0.10172400  0.89252900  1
  H  40  1  0.89156900  0.22352600  0.86316700  1
  H  41  1  0.89919400  0.11060900  0.01566800  1
  H  42  1  0.89814100  0.15130200  0.97369000  1
  H  46  1  0.89254700  0.67079300  0.70722500  1
  H  47  1  0.90449700  0.45575700  0.99607200  1
  H  48  1  0.90574400  0.68603600  0.78812500  1
  H  49  1  0.88914600  0.75409600  0.60071100  1
  H  57  1  0.87654800  0.37298900  0.99624800  1
  H  64  1  0.88804800  0.79554300  0.55916600  1
  H  65  1  0.87911900  0.78985400  0.68231600  1
  H  81  1  0.85348600  0.10059300  0.93406800  1
  H  82  1  0.84948300  0.22245400  0.90458100  1
  H  83  1  0.75900800  0.18844400  0.92521300  1
  H  84  1  0.67634500  0.13750200  0.91385900  1
  H  85  1  0.68657100  0.01662300  0.93876900  1
  H  86  1  0.76786800  0.06727800  0.95069300  1
  H  87  1  0.76516300  0.13613100  0.99865800  1
  H  88  1  0.76663100  0.09704800  0.04053000  1
  H  89  1  0.77613000  0.21157500  0.97458800  1
  H  90  1  0.80677300  0.29341500  0.98659600  1
  H  91  1  0.61189200  0.00517400  0.92102900  1
  H  93  1  0.84912600  0.05370300  0.05518200  1
  H  120  1  0.19416100  0.09370900  0.22585000  1
  H  121  1  0.23560700  0.13625500  0.26739200  1
  H  122  1  0.32039600  0.09804800  0.19652300  1
  H  123  1  0.36140500  0.14010400  0.23793800  1
  H  124  1  0.41783400  0.23059800  0.25848900  1
  H  125  1  0.44952900  0.31323800  0.24707300  1
  H  126  1  0.31851000  0.30309000  0.27210300  1
  H  127  1  0.28789500  0.22181700  0.28408300  1
  H  128  1  0.35945100  0.22445900  0.33202000  1
  H  129  1  0.31891200  0.22296900  0.37390200  1
  H  130  1  0.19987000  0.09046000  0.34900500  1
  H  131  1  0.24160000  0.09153300  0.30701900  1
  H  132  1  0.31270100  0.07324000  0.28905900  1
  H  133  1  0.42394300  0.21358100  0.30789100  1
  H  134  1  0.47516900  0.18297500  0.31990100  1
  H  135  1  0.36345800  0.04232300  0.30147200  1
  H  138  1  0.38164200  0.37765700  0.25406700  1
  H  139  1  0.20569700  0.07258200  0.17366700  1
  H  141  1  0.19305700  0.14049300  0.38854700  1
  H  143  1  0.48505000  0.11325400  0.32952600  1
  H  159  1  0.76615700  0.66930100  0.52983900  1
  H  160  1  0.76720200  0.62829300  0.57125700  1
  H  161  1  0.80124900  0.57185300  0.59182700  1
  H  162  1  0.85219100  0.54014400  0.58043000  1
  H  163  1  0.85348900  0.63025000  0.66534500  1
  H  164  1  0.83844500  0.74811500  0.64033600  1
  H  165  1  0.74904900  0.67702700  0.62238000  1
  H  166  1  0.77811100  0.56576800  0.64122700  1
  H  167  1  0.69628000  0.51456800  0.65325000  1
  H  168  1  0.66737600  0.62629800  0.63480800  1
  H  171  1  0.85538400  0.78398400  0.50697800  1
  H  172  1  0.61671400  0.50477200  0.66293600  1
  H  198  1  0.09880600  0.89746300  0.89094700  1
  H  199  1  0.14014000  0.89678800  0.93267800  1
  H  200  1  0.09585500  0.77140100  0.86264200  1
  H  201  1  0.13677100  0.77081500  0.90410000  1
  H  202  1  0.22930200  0.80802500  0.92326600  1
  H  203  1  0.31367600  0.85851000  0.91651700  1
  H  204  1  0.30411700  0.97657800  0.94794700  1
  H  205  1  0.22126200  0.92624200  0.95543300  1
  H  206  1  0.21562900  0.84769500  0.00062300  1
  H  207  1  0.21379800  0.88584500  0.04285400  1
  H  208  1  0.09064700  0.88808800  0.01356700  1
  H  209  1  0.09175100  0.84811100  0.97135700  1
  H  210  1  0.07069000  0.75575100  0.95629100  1
  H  211  1  0.20953400  0.77666300  0.97017000  1
  H  212  1  0.17619800  0.69287100  0.97732800  1
  H  213  1  0.03709300  0.67240700  0.96418400  1
  H  216  1  0.38144000  0.98289700  0.94324200  1
  H  217  1  0.07464500  0.86354200  0.83928100  1
  H  219  1  0.13786700  0.93844400  0.05528000  1
  H  221  1  0.10643900  0.61078500  0.97061200  1
  H  247  1  0.78715100  0.89095300  0.22430900  1
  H  248  1  0.74512000  0.84957500  0.26602400  1
  H  249  1  0.66400500  0.89379600  0.19595600  1
  H  250  1  0.62247700  0.85284300  0.23740300  1
  H  251  1  0.56709500  0.76033700  0.25665100  1
  H  252  1  0.53317100  0.67594900  0.24994000  1
  H  253  1  0.66086700  0.68551700  0.28124600  1
  H  254  1  0.69342500  0.76838700  0.28870500  1
  H  255  1  0.62051900  0.77401500  0.33393600  1
  H  256  1  0.66050300  0.77583900  0.37617200  1
  H  257  1  0.78587400  0.89902500  0.34689800  1
  H  258  1  0.74478200  0.89792800  0.30469300  1
  H  259  1  0.67354200  0.91898200  0.28957500  1
  H  260  1  0.55561500  0.78016800  0.30354800  1
  H  261  1  0.50518100  0.81353100  0.31070900  1
  H  262  1  0.62382000  0.95260300  0.29746800  1
  H  265  1  0.58968900  0.60819500  0.27675600  1
  H  266  1  0.77738100  0.91506200  0.17262300  1
  H  268  1  0.78903300  0.85182900  0.38861100  1
  H  270  1  0.49285600  0.88328200  0.30397400  1
  H  296  1  0.09232100  0.20254500  0.55765700  1
  H  297  1  0.09296400  0.24457300  0.59937000  1
  H  298  1  0.21830300  0.32570400  0.52930400  1
  H  299  1  0.21886700  0.36722600  0.57075200  1
  H  300  1  0.18173000  0.42259500  0.58998900  1
  H  301  1  0.13126000  0.45651600  0.58327300  1
  H  302  1  0.01313700  0.32881000  0.61457800  1
  H  303  1  0.06345400  0.29625700  0.62203600  1
  H  304  1  0.14196800  0.36917800  0.66727500  1
  H  305  1  0.10380300  0.32919900  0.70950600  1
  H  306  1  0.10164600  0.20383200  0.68024700  1
  H  307  1  0.14164900  0.24492400  0.63804400  1
  H  308  1  0.23394400  0.31617200  0.62290000  1
  H  309  1  0.21303900  0.43408700  0.63689400  1
  H  310  1  0.29683100  0.48451900  0.64406400  1
  H  311  1  0.31728200  0.36590100  0.63080000  1
  H  314  1  0.00693800  0.39993600  0.61003300  1
  H  315  1  0.12619200  0.21226100  0.50599500  1
  H  317  1  0.05131800  0.20066900  0.72197000  1
  H  319  1  0.37891300  0.49685000  0.63728200  1
  H  331  1  0.60853500  0.07715400  0.34068300  1
  H  332  1  0.60973000  0.02694000  0.33425800  1
  H  333  1  0.53975300  0.08518700  0.32948800  1
  H  343  1  0.45713000  0.38112700  0.67392300  1
  H  344  1  0.40571300  0.37992200  0.66750300  1
  H  345  1  0.53394200  0.44995900  0.66278300  1
  H  355  1  0.41908400  0.46170600  0.19149600  1
  H  356  1  0.41245200  0.41012900  0.20333000  1
  H  357  1  0.47194400  0.53761900  0.21411700  1
  H  367  1  0.52797200  0.95805200  0.85838200  1
  H  368  1  0.57956300  0.00304100  0.87016900  1
  H  369  1  0.45200900  0.93535700  0.88086100  1
  H  376  1  0.03120700  0.57070800  0.52487400  1
  H  377  1  0.05423100  0.51781200  0.54748500  1
  H  386  1  0.73319300  0.06686900  0.16811900  1
  H  387  1  0.72735100  0.02108500  0.18749000  1
  H  388  1  0.76875300  0.08394000  0.12145800  1
  H  398  1  0.32228000  0.25678500  0.50137200  1
  H  399  1  0.28232600  0.26257200  0.52076200  1
  H  400  1  0.30375100  0.22113500  0.45473800  1
  H  413  1  0.25046800  0.92146900  0.16878500  1
  H  414  1  0.25644800  0.96720000  0.18827300  1
  H  415  1  0.21550100  0.90515800  0.12195400  1
  H  425  1  0.65949300  0.73922600  0.50212900  1
  H  426  1  0.69924700  0.73324000  0.52160600  1
  H  427  1  0.67813800  0.77421100  0.45530300  1
  H  435  1  0.06829400  0.33019500  0.83548700  1
  H  436  1  0.02255400  0.29045000  0.85496800  1
  H  437  1  0.08457500  0.31156100  0.78864200  1
  C  3  1  0.92510100  0.16496300  0.85003400  1
  C  5  1  0.91781400  0.60173500  0.59265000  1
  C  6  1  0.93679300  0.64931700  0.60259500  1
  C  10  1  0.91777000  0.76089900  0.72250300  1
  C  12  1  0.94927300  0.58451100  0.58753200  1
  C  13  1  0.95976600  0.44675000  0.97787000  1
  C  14  1  0.93919800  0.47327200  0.98894300  1
  C  15  1  0.96586200  0.52413800  0.98954400  1
  C  20  1  0.96348800  0.52009500  0.58185800  1
  C  25  1  0.94578000  0.75390500  0.76855900  1
  C  26  1  0.93419300  0.72021700  0.79055100  1
  C  27  1  0.96213100  0.73296900  0.81560700  1
  C  33  1  0.98825000  0.21765800  0.81831000  1
  C  36  1  0.89240900  0.25112200  0.96157000  1
  C  37  1  0.91097100  0.29968200  0.96897500  1
  C  38  1  0.89998400  0.16399100  0.87424900  1
  C  43  1  0.89714300  0.36491300  0.98439600  1
  C  44  1  0.89088600  0.73513400  0.69894700  1
  C  45  1  0.90645400  0.66742100  0.60978900  1
  C  50  1  0.88008100  0.31683900  0.97755100  1
  C  51  1  0.86953800  0.13919000  0.98717000  1
  C  52  1  0.87057000  0.11571600  0.01227700  1
  C  53  1  0.86276500  0.12799700  0.91999600  1
  C  54  1  0.88727300  0.12805600  0.89513500  1
  C  55  1  0.88492400  0.19804100  0.87829200  1
  C  56  1  0.86008900  0.19736000  0.90299900  1
  C  58  1  0.87398400  0.75610900  0.67893500  1
  C  59  1  0.88126800  0.68783600  0.69349200  1
  C  60  1  0.85811100  0.66382000  0.66842100  1
  C  61  1  0.86173000  0.73598300  0.58664500  1
  C  62  1  0.86169500  0.76043300  0.56177800  1
  C  63  1  0.86743900  0.57421300  0.58853100  1
  C  66  1  0.83039600  0.28300200  0.97962500  1
  C  67  1  0.81209300  0.23450600  0.97197800  1
  C  68  1  0.84213200  0.21758100  0.96108000  1
  C  69  1  0.82377800  0.16538300  0.95206700  1
  C  70  1  0.82964500  0.14484200  0.98020000  1
  C  71  1  0.83265800  0.09875600  0.03227000  1
  C  72  1  0.79497000  0.10835700  0.02680800  1
  C  73  1  0.79411800  0.13152400  0.00173900  1
  C  74  1  0.77179200  0.13423400  0.94174900  1
  C  75  1  0.85086700  0.16430900  0.92553600  1
  C  76  1  0.74407000  0.15249100  0.92904100  1
  C  77  1  0.69518400  0.12225100  0.92192500  1
  C  78  1  0.67234000  0.07187200  0.92603100  1
  C  79  1  0.70097400  0.05289400  0.93593000  1
  C  80  1  0.74942400  0.08323200  0.94310000  1
  C  92  1  0.83153800  0.07187600  0.05582500  1
  C  94  1  0.62364000  0.04040700  0.92094600  1
  C  95  1  0.42528600  0.10965000  0.31089800  1
  C  96  1  0.44112500  0.15933500  0.31295000  1
  C  97  1  0.41091300  0.17761500  0.30530500  1
  C  98  1  0.36394200  0.14755700  0.29441900  1
  C  99  1  0.34720700  0.09728100  0.29495800  1
  C  100  1  0.37722600  0.07873900  0.30235300  1
  C  101  1  0.33007000  0.16588100  0.28541400  1
  C  102  1  0.30366100  0.16000600  0.31354600  1
  C  103  1  0.25810500  0.12012100  0.32050800  1
  C  104  1  0.23360600  0.11907900  0.34562100  1
  C  105  1  0.25457000  0.15696900  0.36562400  1
  C  106  1  0.30187000  0.19464600  0.36016900  1
  C  107  1  0.32588300  0.19550800  0.33509600  1
  C  108  1  0.35089800  0.21786500  0.27509900  1
  C  109  1  0.30189800  0.13875900  0.25889600  1
  C  110  1  0.25371900  0.12695100  0.25332600  1
  C  111  1  0.22926600  0.10245800  0.22846200  1
  C  112  1  0.25246900  0.08970100  0.20758600  1
  C  113  1  0.30156700  0.10472300  0.21163900  1
  C  114  1  0.32571400  0.12952800  0.23635500  1
  C  115  1  0.39683700  0.24555100  0.26233400  1
  C  116  1  0.41546900  0.29442200  0.25518700  1
  C  117  1  0.38794800  0.31727800  0.25930400  1
  C  118  1  0.34037200  0.28867800  0.26926200  1
  C  119  1  0.32227300  0.24024300  0.27646100  1
  C  136  1  0.22831500  0.06458700  0.18337100  1
  C  137  1  0.45632700  0.09261200  0.31772600  1
  C  140  1  0.22881600  0.15806000  0.38919400  1
  C  142  1  0.40516200  0.36595400  0.25416900  1
  C  144  1  0.67285400  0.56446200  0.64423800  1
  C  145  1  0.70669000  0.54860700  0.64628800  1
  C  146  1  0.75517900  0.57880300  0.63863200  1
  C  147  1  0.77210200  0.62577100  0.62773800  1
  C  148  1  0.73856400  0.64251000  0.62826400  1
  C  149  1  0.69001100  0.61251600  0.63568000  1
  C  150  1  0.82430000  0.65963300  0.61873700  1
  C  151  1  0.84483500  0.68604400  0.64686900  1
  C  152  1  0.85052000  0.73160500  0.65382700  1
  C  153  1  0.85545300  0.63879800  0.60842600  1
  C  154  1  0.82536100  0.68780500  0.59221500  1
  C  155  1  0.82573500  0.73723200  0.54090500  1
  C  156  1  0.79165700  0.68813400  0.54495600  1
  C  157  1  0.79231800  0.66398500  0.56967200  1
  C  158  1  0.83719900  0.59284400  0.59567800  1
  C  169  1  0.82477000  0.76137800  0.51668800  1
  C  170  1  0.62478200  0.53344600  0.65109200  1
  C  173  1  0.10325600  0.67360000  0.97083300  1
  C  174  1  0.15340400  0.70558800  0.97271700  1
  C  175  1  0.17328000  0.75528900  0.96785900  1
  C  176  1  0.14436500  0.77526600  0.95978100  1
  C  177  1  0.09377000  0.74333500  0.96067200  1
  C  178  1  0.07365600  0.69375100  0.96550100  1
  C  179  1  0.16378800  0.82813300  0.95179500  1
  C  180  1  0.15592700  0.84662000  0.98018000  1
  C  181  1  0.11836400  0.85655300  0.98586900  1
  C  182  1  0.11722900  0.87961300  0.01113100  1
  C  183  1  0.15255600  0.89200800  0.03245600  1
  C  184  1  0.18738000  0.87794300  0.02817000  1
  C  185  1  0.18837000  0.85516700  0.00296200  1
  C  186  1  0.21661200  0.86007800  0.94315500  1
  C  187  1  0.13845700  0.83073600  0.92480900  1
  C  188  1  0.12959200  0.86897500  0.91874600  1
  C  189  1  0.10577500  0.86992100  0.89379000  1
  C  190  1  0.09102900  0.83319900  0.87321500  1
  C  191  1  0.10382400  0.79751600  0.87756400  1
  C  192  1  0.12795100  0.79720100  0.90236300  1
  C  193  1  0.24460700  0.84318300  0.92928300  1
  C  194  1  0.29448500  0.87327200  0.92473700  1
  C  195  1  0.31801700  0.92245900  0.93247800  1
  C  196  1  0.28917800  0.94097200  0.94270300  1
  C  197  1  0.23975500  0.91073800  0.94726600  1
  C  214  1  0.06604300  0.83281700  0.84904400  1
  C  215  1  0.08452900  0.62406200  0.97314000  1
  C  218  1  0.15418800  0.91905300  0.05607700  1
  C  220  1  0.36771900  0.95273800  0.93184000  1
  C  222  1  0.55885200  0.88646000  0.30416100  1
  C  223  1  0.54068500  0.83631300  0.30607500  1
  C  224  1  0.57049700  0.81642000  0.30121400  1
  C  225  1  0.61937500  0.84531000  0.29310400  1
  C  226  1  0.63804600  0.89590800  0.29396500  1
  C  227  1  0.60859400  0.91604100  0.29879000  1
  C  228  1  0.65279400  0.82586300  0.28511500  1
  C  229  1  0.67914500  0.83371300  0.31349700  1
  C  230  1  0.72662500  0.87129700  0.31919900  1
  C  231  1  0.75081500  0.87245000  0.34446500  1
  C  232  1  0.72790000  0.83709400  0.36577900  1
  C  233  1  0.67901700  0.80225600  0.36148900  1
  C  234  1  0.65527100  0.80123500  0.33626800  1
  C  235  1  0.63189300  0.77303600  0.27647400  1
  C  236  1  0.68070500  0.85115500  0.25811500  1
  C  237  1  0.72784900  0.86010300  0.25208500  1
  C  238  1  0.75261900  0.88393100  0.22713300  1
  C  239  1  0.73063800  0.89865700  0.20655100  1
  C  240  1  0.68214600  0.88582500  0.21088200  1
  C  241  1  0.65768900  0.86168100  0.23567400  1
  C  242  1  0.58697200  0.74503700  0.26263100  1
  C  243  1  0.56715600  0.69515000  0.25811500  1
  C  244  1  0.59282200  0.67161900  0.26582400  1
  C  245  1  0.64020000  0.70046100  0.27601400  1
  C  246  1  0.65941100  0.74989200  0.28055900  1
  C  263  1  0.75525200  0.92365800  0.18238600  1
  C  264  1  0.52805200  0.90519800  0.30645900  1
  C  267  1  0.75331600  0.83546400  0.38939800  1
  C  269  1  0.57335900  0.62191500  0.26524700  1
  C  271  1  0.31609600  0.43085600  0.63752000  1
  C  272  1  0.28411400  0.44902100  0.63942300  1
  C  273  1  0.23441000  0.41920600  0.63456600  1
  C  274  1  0.21443000  0.37033100  0.62645000  1
  C  275  1  0.24634700  0.35164800  0.62734100  1
  C  276  1  0.29593500  0.38111200  0.63214900  1
  C  277  1  0.16156400  0.33690500  0.61846100  1
  C  278  1  0.14305600  0.31055500  0.64684400  1
  C  279  1  0.13316800  0.26308000  0.65254700  1
  C  280  1  0.11012100  0.23888900  0.67780900  1
  C  281  1  0.09767800  0.26180300  0.69912300  1
  C  282  1  0.11173500  0.31069100  0.69483700  1
  C  283  1  0.13444400  0.33442900  0.66961000  1
  C  284  1  0.12963400  0.35779900  0.60981400  1
  C  285  1  0.15895500  0.30899600  0.59146200  1
  C  286  1  0.12076000  0.26185300  0.58542900  1
  C  287  1  0.11982300  0.23708500  0.56048000  1
  C  288  1  0.15653000  0.25907000  0.53989500  1
  C  289  1  0.19218900  0.30755700  0.54423000  1
  C  290  1  0.19251200  0.33200500  0.56902700  1
  C  291  1  0.14655700  0.40273300  0.59598600  1
  C  292  1  0.11646700  0.42251400  0.59142300  1
  C  293  1  0.06728400  0.39686000  0.59916200  1
  C  294  1  0.04874800  0.34948000  0.60934500  1
  C  295  1  0.07897200  0.33027500  0.61389200  1
  C  312  1  0.15692000  0.23444500  0.51573500  1
  C  313  1  0.36563600  0.46166300  0.63980700  1
  C  316  1  0.07062900  0.23638900  0.72274200  1
  C  318  1  0.03702400  0.41630300  0.59855900  1
  C  320  1  0.01361600  0.54716500  0.97894600  1
  C  324  1  0.47554000  0.02998600  0.31118000  1
  C  325  1  0.52258900  0.05051400  0.32231200  1
  C  326  1  0.54677800  0.02383700  0.32292300  1
  C  327  1  0.52207400  0.97611100  0.31228400  1
  C  336  1  0.54294400  0.51422200  0.64455800  1
  C  337  1  0.51642600  0.46713800  0.65564300  1
  C  338  1  0.46555900  0.44293200  0.65623900  1
  C  339  1  0.44252900  0.46764600  0.64562800  1
  C  348  1  0.51416100  0.54480100  0.25003100  1
  C  349  1  0.47984200  0.51914600  0.22884600  1
  C  350  1  0.45733300  0.46834500  0.22742400  1
  C  351  1  0.46958800  0.44459100  0.24852900  1
  C  360  1  0.44483500  0.97055200  0.91669600  1
  C  361  1  0.47048700  0.96178300  0.89555900  1
  C  362  1  0.52128800  0.99007900  0.89412200  1
  C  363  1  0.54504500  0.02619600  0.91516800  1
  C  372  1  0.01913500  0.47553100  0.58336700  1
  C  373  1  0.02783200  0.50988600  0.56219800  1
  C  374  1  0.99953500  0.53239000  0.56077200  1
  C  379  1  0.79656900  0.04389000  0.10189200  1
  C  380  1  0.77448600  0.05549300  0.12388700  1
  C  381  1  0.75931500  0.02756800  0.14894700  1
  C  382  1  0.76693800  0.98776800  0.15092100  1
  C  391  1  0.23580400  0.19309300  0.43523800  1
  C  392  1  0.26955200  0.21534500  0.45718500  1
  C  393  1  0.25681300  0.23053600  0.48224200  1
  C  394  1  0.20935300  0.22280800  0.48424800  1
  C  403  1  0.00192700  0.78039200  0.81757800  1
  C  406  1  0.18845500  0.94589400  0.10239000  1
  C  407  1  0.21009300  0.93380500  0.12441600  1
  C  408  1  0.22515600  0.96144300  0.14958800  1
  C  409  1  0.21788000  0.00145100  0.15163600  1
  C  418  1  0.74588800  0.80119100  0.43571100  1
  C  419  1  0.71219500  0.77962200  0.45776000  1
  C  420  1  0.72478500  0.76456700  0.48293000  1
  C  421  1  0.77206500  0.77183100  0.48496700  1
  C  430  1  0.04380200  0.24380000  0.76906200  1
  C  431  1  0.05591500  0.27751100  0.79109800  1
  C  432  1  0.02827900  0.26492900  0.81627200  1
  N  16  1  0.94526900  0.54905300  0.99997800  1
  N  19  1  0.93750800  0.39917600  0.97502500  1
  N  21  1  0.95742500  0.48672000  0.60156800  1
  N  22  1  0.98334700  0.46576800  0.60225400  1
  N  24  1  0.93569300  0.53957400  0.58509800  1
  N  28  1  0.98468000  0.79843700  0.77223200  1
  N  29  1  0.95040800  0.69982800  0.83656500  1
  N  32  1  0.92128300  0.73919300  0.74451500  1
  N  34  1  0.97866000  0.18723900  0.79597500  1
  N  35  1  0.95902800  0.20525600  0.84053100  1
  N  321  1  0.03071800  0.51911900  0.96842900  1
  N  322  1  0.00546800  0.47211300  0.96794300  1
  N  323  1  0.03948400  0.59481800  0.97735300  1
  N  328  1  0.47695100  0.95903300  0.30173600  1
  N  329  1  0.45520300  0.98429300  0.30124300  1
  N  330  1  0.59225600  0.04439400  0.33340100  1
  N  334  1  0.45020800  0.05223300  0.30837100  1
  N  335  1  0.54386100  0.95024700  0.31067500  1
  N  340  1  0.47057300  0.51278800  0.63510100  1
  N  341  1  0.51757800  0.53454600  0.63461700  1
  N  342  1  0.44064700  0.39743300  0.66666667  1
  N  346  1  0.59051800  0.53954000  0.64171700  1
  N  347  1  0.39487500  0.44585800  0.64403200  1
  N  352  1  0.50293100  0.47190000  0.26825600  1
  N  353  1  0.52388600  0.51877600  0.26893900  1
  N  354  1  0.42593700  0.44446900  0.20605800  1
  N  358  1  0.53551800  0.59261900  0.25119200  1
  N  359  1  0.45010300  0.39731600  0.25177300  1
  N  364  1  0.51774200  0.03231800  0.93485700  1
  N  365  1  0.47086800  0.00639500  0.93555200  1
  N  366  1  0.54515500  0.98246700  0.87279100  1
  N  370  1  0.39702100  0.94407700  0.91787800  1
  N  371  1  0.59232200  0.05401100  0.91838000  1
  N  375  1  0.00709100  0.56382400  0.53942400  1
  N  378  1  0.04560300  0.45418200  0.58453400  1
  N  383  1  0.78825700  0.97867700  0.12864000  1
  N  384  1  0.80219500  0.00498800  0.10556500  1
  N  385  1  0.73791500  0.03930300  0.16991000  1
  N  389  1  0.80631200  0.06835300  0.07783500  1
  N  390  1  0.74984700  0.95824300  0.17299100  1
  N  395  1  0.17889600  0.20136800  0.46200400  1
  N  396  1  0.19125100  0.18739600  0.43893400  1
  N  397  1  0.28999600  0.25207200  0.50316500  1
  N  401  1  0.25052400  0.18333500  0.41118800  1
  N  402  1  0.19691700  0.23990200  0.50631600  1
  N  404  1  0.01100500  0.81080900  0.79530400  1
  N  405  1  0.03145200  0.79282900  0.83964800  1
  N  410  1  0.19700900  0.01101700  0.12931100  1
  N  411  1  0.18317500  0.98498200  0.10613500  1
  N  412  1  0.24607500  0.94923200  0.17059900  1
  N  416  1  0.17856500  0.92150800  0.07829600  1
  N  417  1  0.23468800  0.03066600  0.17386100  1
  N  422  1  0.80248100  0.79267100  0.46263000  1
  N  423  1  0.79026300  0.80648000  0.43945200  1
  N  424  1  0.69167600  0.74368900  0.50395600  1
  N  428  1  0.73139700  0.81107900  0.41161500  1
  N  429  1  0.78448000  0.75502400  0.50719000  1
  N  433  1  0.00469200  0.19944200  0.77279600  1
  N  434  1  0.04051700  0.29804700  0.83729400  1
  N  438  1  0.06816300  0.25830700  0.74495900  1
