# generated using pymatgen
data_Cr3H19C35O17
_symmetry_space_group_name_H-M   'P 1'
_cell_length_a   11.03214000
_cell_length_b   18.74039000
_cell_length_c   19.08834000
_cell_angle_alpha   90.13507000
_cell_angle_beta   89.81961000
_cell_angle_gamma   89.93176000
_symmetry_Int_Tables_number   1
_chemical_formula_structural   Cr3H19C35O17
_chemical_formula_sum   'Cr12 H76 C140 O68'
_cell_volume   3946.41615231
_cell_formula_units_Z   4
loop_
 _symmetry_equiv_pos_site_id
 _symmetry_equiv_pos_as_xyz
  1  'x, y, z'
loop_
 _atom_site_type_symbol
 _atom_site_label
 _atom_site_symmetry_multiplicity
 _atom_site_fract_x
 _atom_site_fract_y
 _atom_site_fract_z
 _atom_site_occupancy
  Cr  Cr0  1  0.49168000  0.25037000  0.11414000  1
  Cr  Cr1  1  0.17931000  0.75015000  0.88757000  1
  Cr  Cr2  1  0.67931000  0.24985000  0.61243000  1
  Cr  Cr3  1  0.67931000  0.75015000  0.38757000  1
  Cr  Cr4  1  0.49168000  0.74963000  0.88586000  1
  Cr  Cr5  1  0.99168000  0.25037000  0.61414000  1
  Cr  Cr6  1  0.99168000  0.74963000  0.38586000  1
  Cr  Cr7  1  0.33297000  0.25128000  0.26951000  1
  Cr  Cr8  1  0.33297000  0.74872000  0.73049000  1
  Cr  Cr9  1  0.83297000  0.25128000  0.76951000  1
  Cr  Cr10  1  0.83297000  0.74872000  0.23049000  1
  Cr  Cr11  1  0.17931000  0.24985000  0.11243000  1
  H  H12  1  0.09880000  0.45674000  0.11629000  1
  H  H13  1  0.18812000  0.93147000  0.65766000  1
  H  H14  1  0.69024000  0.06776000  0.84127000  1
  H  H15  1  0.70177000  0.93439000  0.16285000  1
  H  H16  1  0.18584000  0.93439000  0.34043000  1
  H  H17  1  0.16910000  0.06220000  0.65203000  1
  H  H18  1  0.67061000  0.93714000  0.84683000  1
  H  H19  1  0.68485000  0.06500000  0.15853000  1
  H  H20  1  0.88497000  0.94003000  0.11587000  1
  H  H21  1  0.87632000  0.05933000  0.88143000  1
  H  H22  1  0.37544000  0.94131000  0.61958000  1
  H  H23  1  0.94632000  0.59283000  0.74598000  1
  H  H24  1  0.38527000  0.06051000  0.38483000  1
  H  H25  1  0.05317000  0.93444000  0.10791000  1
  H  H26  1  0.04421000  0.06403000  0.89030000  1
  H  H27  1  0.54321000  0.93612000  0.60962000  1
  H  H28  1  0.55355000  0.06563000  0.39204000  1
  H  H29  1  0.06254000  0.06044000  0.10168000  1
  H  H30  1  0.05072000  0.93753000  0.89803000  1
  H  H31  1  0.55022000  0.06259000  0.60205000  1
  H  H32  1  0.56242000  0.93959000  0.39838000  1
  H  H33  1  0.89446000  0.06735000  0.11256000  1
  H  H34  1  0.59878000  0.45674000  0.61630000  1
  H  H35  1  0.88361000  0.93190000  0.88472000  1
  H  H36  1  0.38325000  0.06870000  0.61644000  1
  H  H37  1  0.39427000  0.93316000  0.38826000  1
  H  H38  1  0.14545000  0.06905000  0.99963000  1
  H  H39  1  0.14847000  0.93789000  0.99692000  1
  H  H40  1  0.64874000  0.06281000  0.50285000  1
  H  H41  1  0.64522000  0.93165000  0.50015000  1
  H  H42  1  0.63792000  0.94097000  0.96458000  1
  H  H43  1  0.57329000  0.06340000  0.05968000  1
  H  H44  1  0.07342000  0.93621000  0.43961000  1
  H  H45  1  0.44632000  0.59283000  0.24599000  1
  H  H46  1  0.13794000  0.05853000  0.53447000  1
  H  H47  1  0.56720000  0.93722000  0.05358000  1
  H  H48  1  0.63961000  0.06828000  0.96963000  1
  H  H49  1  0.13922000  0.93121000  0.52953000  1
  H  H50  1  0.06762000  0.06238000  0.44563000  1
  H  H51  1  0.03816000  0.57674000  0.13953000  1
  H  H52  1  0.89066000  0.46852000  0.72121000  1
  H  H53  1  0.53816000  0.57675000  0.63954000  1
  H  H54  1  0.39065000  0.46852000  0.22121000  1
  H  H55  1  0.49142000  0.54252000  0.87713000  1
  H  H56  1  0.74933000  0.47567000  0.07920000  1
  H  H57  1  0.78555000  0.40772000  0.17721000  1
  H  H58  1  0.99143000  0.54252000  0.37713000  1
  H  H59  1  0.28555000  0.40772000  0.67722000  1
  H  H60  1  0.14525000  0.54342000  0.41557000  1
  H  H61  1  0.35508000  0.38614000  0.76359000  1
  H  H62  1  0.64523000  0.54342000  0.91557000  1
  H  H63  1  0.85508000  0.38614000  0.26359000  1
  H  H64  1  0.16071000  0.41875000  0.39534000  1
  H  H65  1  0.40808000  0.50682000  0.77864000  1
  H  H66  1  0.66071000  0.41875000  0.89534000  1
  H  H67  1  0.69950000  0.59803000  0.11809000  1
  H  H68  1  0.90808000  0.50683000  0.27864000  1
  H  H69  1  0.01293000  0.41829000  0.34955000  1
  H  H70  1  0.33760000  0.53142000  0.69335000  1
  H  H71  1  0.51292000  0.41829000  0.84955000  1
  H  H72  1  0.83760000  0.53142000  0.19335000  1
  H  H73  1  0.50241000  0.64974000  0.08919000  1
  H  H74  1  0.60185000  0.40345000  0.02180000  1
  H  H75  1  0.00242000  0.64977000  0.58919000  1
  H  H76  1  0.10184000  0.40347000  0.52186000  1
  H  H77  1  0.80160000  0.62373000  0.87887000  1
  H  H78  1  0.24934000  0.47570000  0.57923000  1
  H  H79  1  0.79949000  0.34360000  0.95271000  1
  H  H80  1  0.30159000  0.62375000  0.37890000  1
  H  H81  1  0.29950000  0.34364000  0.45272000  1
  H  H82  1  0.99382000  0.74349000  0.02753000  1
  H  H83  1  0.10447000  0.26111000  0.90276000  1
  H  H84  1  0.49394000  0.74356000  0.52754000  1
  H  H85  1  0.60440000  0.26121000  0.40263000  1
  H  H86  1  0.19952000  0.59807000  0.61809000  1
  H  H87  1  0.20345000  0.06491000  0.33611000  1
  C  C88  1  0.53040000  0.35431000  0.23826000  1
  C  C89  1  0.98162000  0.48064000  0.73832000  1
  C  C90  1  0.94682000  0.02970000  0.52962000  1
  C  C91  1  0.23049000  0.04163000  0.99204000  1
  C  C92  1  0.23205000  0.96702000  0.99034000  1
  C  C93  1  0.73218000  0.03345000  0.50929000  1
  C  C94  1  0.73029000  0.95885000  0.50763000  1
  C  C95  1  0.56976000  0.96328000  0.00136000  1
  C  C96  1  0.57141000  0.04376000  0.00509000  1
  C  C97  1  0.07127000  0.95588000  0.49419000  1
  C  C98  1  0.06986000  0.03635000  0.49786000  1
  C  C99  1  0.52961000  0.14667000  0.23883000  1
  C  C100  1  0.58760000  0.55000000  0.67973000  1
  C  C101  1  0.52692000  0.85428000  0.76189000  1
  C  C102  1  0.02707000  0.14567000  0.73806000  1
  C  C103  1  0.02943000  0.85329000  0.26112000  1
  C  C104  1  0.12568000  0.14719000  0.22777000  1
  C  C105  1  0.12424000  0.85230000  0.77184000  1
  C  C106  1  0.62452000  0.14765000  0.72813000  1
  C  C107  1  0.62540000  0.85275000  0.27219000  1
  C  C108  1  0.34714000  0.14740000  0.02867000  1
  C  C109  1  0.34715000  0.85515000  0.96763000  1
  C  C110  1  0.84736000  0.14492000  0.53227000  1
  C  C111  1  0.48162000  0.48064000  0.23833000  1
  C  C112  1  0.84691000  0.85265000  0.47126000  1
  C  C113  1  0.09895000  0.58050000  0.24660000  1
  C  C114  1  0.06793000  0.42624000  0.74603000  1
  C  C115  1  0.59894000  0.58050000  0.74660000  1
  C  C116  1  0.56793000  0.42624000  0.24603000  1
  C  C117  1  0.14316000  0.53803000  0.30133000  1
  C  C118  1  0.18320000  0.44156000  0.76920000  1
  C  C119  1  0.64315000  0.53803000  0.80133000  1
  C  C120  1  0.68320000  0.44156000  0.26920000  1
  C  C121  1  0.16192000  0.46568000  0.29016000  1
  C  C122  1  0.08711000  0.52484000  0.37196000  1
  C  C123  1  0.21567000  0.51179000  0.78099000  1
  C  C124  1  0.66192000  0.46567000  0.79016000  1
  C  C125  1  0.71567000  0.51179000  0.28099000  1
  C  C126  1  0.89504000  0.57316000  0.95445000  1
  C  C127  1  0.91888000  0.42234000  0.93181000  1
  C  C128  1  0.39505000  0.57322000  0.45449000  1
  C  C129  1  0.41888000  0.42239000  0.43184000  1
  C  C130  1  0.08181000  0.64904000  0.03320000  1
  C  C131  1  0.16091000  0.36096000  0.92533000  1
  C  C132  1  0.58185000  0.64908000  0.53323000  1
  C  C133  1  0.29825000  0.42352000  0.73275000  1
  C  C134  1  0.66091000  0.36102000  0.42533000  1
  C  C135  1  0.58710000  0.52484000  0.87196000  1
  C  C136  1  0.79825000  0.42353000  0.23275000  1
  C  C137  1  0.10090000  0.44589000  0.35757000  1
  C  C138  1  0.33197000  0.50071000  0.74291000  1
  C  C139  1  0.60089000  0.44589000  0.85757000  1
  C  C140  1  0.53327000  0.64601000  0.76113000  1
  C  C141  1  0.83197000  0.50072000  0.24291000  1
  C  C142  1  0.14477000  0.43546000  0.22379000  1
  C  C143  1  0.13218000  0.56676000  0.77208000  1
  C  C144  1  0.64477000  0.43546000  0.72380000  1
  C  C145  1  0.63218000  0.56676000  0.27208000  1
  C  C146  1  0.32707000  0.58410000  0.01704000  1
  C  C147  1  0.34707000  0.43444000  0.01343000  1
  C  C148  1  0.82708000  0.58412000  0.51707000  1
  C  C149  1  0.84706000  0.43446000  0.51346000  1
  C  C150  1  0.10452000  0.57529000  0.00288000  1
  C  C151  1  0.03040000  0.35431000  0.73826000  1
  C  C152  1  0.13842000  0.43024000  0.96248000  1
  C  C153  1  0.60453000  0.57532000  0.50293000  1
  C  C154  1  0.63841000  0.43027000  0.46251000  1
  C  C155  1  0.00861000  0.53623000  0.97320000  1
  C  C156  1  0.02425000  0.46371000  0.95566000  1
  C  C157  1  0.50862000  0.53628000  0.47324000  1
  C  C158  1  0.52425000  0.46376000  0.45569000  1
  C  C159  1  0.23559000  0.46822000  0.99424000  1
  C  C160  1  0.22154000  0.54273000  0.00650000  1
  C  C161  1  0.73559000  0.46824000  0.49428000  1
  C  C162  1  0.03327000  0.64601000  0.26113000  1
  C  C163  1  0.72155000  0.54276000  0.50654000  1
  C  C164  1  0.44845000  0.47848000  0.03363000  1
  C  C165  1  0.43038000  0.55210000  0.04384000  1
  C  C166  1  0.94845000  0.47850000  0.53367000  1
  C  C167  1  0.93039000  0.55212000  0.54387000  1
  C  C168  1  0.16732000  0.36108000  0.21025000  1
  C  C169  1  0.16655000  0.63837000  0.78965000  1
  C  C170  1  0.66732000  0.36108000  0.71025000  1
  C  C171  1  0.66655000  0.63837000  0.28965000  1
  C  C172  1  0.56938000  0.45338000  0.04251000  1
  C  C173  1  0.11416000  0.47906000  0.16781000  1
  C  C174  1  0.51931000  0.59410000  0.07697000  1
  C  C175  1  0.06938000  0.45340000  0.54256000  1
  C  C176  1  0.01933000  0.59413000  0.57698000  1
  C  C177  1  0.65808000  0.49584000  0.07333000  1
  C  C178  1  0.63109000  0.56513000  0.09369000  1
  C  C179  1  0.15809000  0.49587000  0.57335000  1
  C  C180  1  0.13110000  0.56517000  0.59370000  1
  C  C181  1  0.05964000  0.92828000  0.25420000  1
  C  C182  1  0.05238000  0.06969000  0.74294000  1
  C  C183  1  0.55260000  0.93017000  0.75687000  1
  C  C184  1  0.01318000  0.55095000  0.75223000  1
  C  C185  1  0.55953000  0.07159000  0.24562000  1
  C  C186  1  0.98713000  0.96875000  0.20962000  1
  C  C187  1  0.98084000  0.02957000  0.78853000  1
  C  C188  1  0.48078000  0.97056000  0.71186000  1
  C  C189  1  0.48713000  0.03137000  0.29067000  1
  C  C190  1  0.99588000  0.04187000  0.20717000  1
  C  C191  1  0.98955000  0.95646000  0.79134000  1
  C  C192  1  0.48978000  0.04367000  0.70912000  1
  C  C193  1  0.49559000  0.95824000  0.29317000  1
  C  C194  1  0.14137000  0.03860000  0.30109000  1
  C  C195  1  0.61415000  0.47906000  0.66781000  1
  C  C196  1  0.12941000  0.95848000  0.69433000  1
  C  C197  1  0.63079000  0.04105000  0.80507000  1
  C  C198  1  0.64026000  0.96097000  0.19831000  1
  C  C199  1  0.13264000  0.96405000  0.30296000  1
  C  C200  1  0.11991000  0.03310000  0.69170000  1
  C  C201  1  0.62099000  0.96646000  0.80762000  1
  C  C202  1  0.63187000  0.03555000  0.19639000  1
  C  C203  1  0.97389000  0.96154000  0.13223000  1
  C  C204  1  0.96535000  0.03723000  0.86574000  1
  C  C205  1  0.46468000  0.96311000  0.63473000  1
  C  C206  1  0.51317000  0.55095000  0.25224000  1
  C  C207  1  0.47409000  0.03873000  0.36811000  1
  C  C208  1  0.98059000  0.04181000  0.12920000  1
  C  C209  1  0.97095000  0.95679000  0.86914000  1
  C  C210  1  0.47060000  0.04353000  0.63143000  1
  C  C211  1  0.48048000  0.95844000  0.37121000  1
  C  C212  1  0.08006000  0.07770000  0.24918000  1
  C  C213  1  0.07383000  0.92036000  0.74912000  1
  C  C214  1  0.57451000  0.07948000  0.75087000  1
  C  C215  1  0.57944000  0.92216000  0.25077000  1
  C  C216  1  0.34834000  0.35726000  0.03446000  1
  C  C217  1  0.08761000  0.55000000  0.17973000  1
  C  C218  1  0.34424000  0.64936000  0.97430000  1
  C  C219  1  0.84834000  0.35727000  0.53447000  1
  C  C220  1  0.84424000  0.64936000  0.47430000  1
  C  C221  1  0.34249000  0.93060000  0.98342000  1
  C  C222  1  0.34012000  0.07964000  0.99223000  1
  C  C223  1  0.83973000  0.92055000  0.50750000  1
  C  C224  1  0.84272000  0.06958000  0.51616000  1
  C  C225  1  0.44687000  0.97025000  0.96986000  1
  C  C226  1  0.44661000  0.04326000  0.97391000  1
  C  C227  1  0.94627000  0.95669000  0.52562000  1
  O  O228  1  0.45164000  0.33008000  0.04298000  1
  O  O229  1  0.09329000  0.83013000  0.83196000  1
  O  O230  1  0.59329000  0.16987000  0.66804000  1
  O  O231  1  0.59329000  0.83013000  0.33196000  1
  O  O232  1  0.25058000  0.17514000  0.05440000  1
  O  O233  1  0.25058000  0.82486000  0.94560000  1
  O  O234  1  0.75058000  0.17514000  0.55440000  1
  O  O235  1  0.75058000  0.82486000  0.44560000  1
  O  O236  1  0.33465000  0.25050000  0.16536000  1
  O  O237  1  0.33465000  0.74950000  0.83464000  1
  O  O238  1  0.83465000  0.25050000  0.66536000  1
  O  O239  1  0.45164000  0.66992000  0.95702000  1
  O  O240  1  0.83465000  0.74950000  0.33464000  1
  O  O241  1  0.54344000  0.32539000  0.17855000  1
  O  O242  1  0.54344000  0.67461000  0.82145000  1
  O  O243  1  0.04344000  0.32539000  0.67855000  1
  O  O244  1  0.04344000  0.67461000  0.32145000  1
  O  O245  1  0.45865000  0.33190000  0.28468000  1
  O  O246  1  0.45865000  0.66810000  0.71532000  1
  O  O247  1  0.95865000  0.33190000  0.78468000  1
  O  O248  1  0.95865000  0.66810000  0.21532000  1
  O  O249  1  0.20959000  0.32547000  0.26283000  1
  O  O250  1  0.95164000  0.33008000  0.54298000  1
  O  O251  1  0.20959000  0.67453000  0.73717000  1
  O  O252  1  0.70959000  0.32547000  0.76283000  1
  O  O253  1  0.70959000  0.67453000  0.23717000  1
  O  O254  1  0.09274000  0.33042000  0.16729000  1
  O  O255  1  0.09274000  0.66958000  0.83271000  1
  O  O256  1  0.59274000  0.33042000  0.66729000  1
  O  O257  1  0.59274000  0.66958000  0.33271000  1
  O  O258  1  0.25006000  0.32396000  0.05371000  1
  O  O259  1  0.25006000  0.67604000  0.94629000  1
  O  O260  1  0.75006000  0.32396000  0.55371000  1
  O  O261  1  0.95164000  0.66992000  0.45702000  1
  O  O262  1  0.75006000  0.67604000  0.44629000  1
  O  O263  1  0.45220000  0.16953000  0.04373000  1
  O  O264  1  0.45220000  0.83047000  0.95627000  1
  O  O265  1  0.95220000  0.16953000  0.54373000  1
  O  O266  1  0.95220000  0.83047000  0.45627000  1
  O  O267  1  0.54395000  0.17656000  0.17924000  1
  O  O268  1  0.54395000  0.82344000  0.82076000  1
  O  O269  1  0.04395000  0.17656000  0.67924000  1
  O  O270  1  0.04395000  0.82344000  0.32076000  1
  O  O271  1  0.45921000  0.17136000  0.28543000  1
  O  O272  1  0.21010000  0.17664000  0.26353000  1
  O  O273  1  0.45921000  0.82864000  0.71457000  1
  O  O274  1  0.95921000  0.17136000  0.78543000  1
  O  O275  1  0.95921000  0.82864000  0.21457000  1
  O  O276  1  0.82575000  0.59332000  0.00021000  1
  O  O277  1  0.87315000  0.59031000  0.88455000  1
  O  O278  1  0.87661000  0.43367000  0.87408000  1
  O  O279  1  0.86835000  0.37058000  0.97565000  1
  O  O280  1  0.32578000  0.59340000  0.50026000  1
  O  O281  1  0.37314000  0.59034000  0.38459000  1
  O  O282  1  0.37663000  0.43372000  0.37410000  1
  O  O283  1  0.21010000  0.82336000  0.73647000  1
  O  O284  1  0.36834000  0.37063000  0.47566000  1
  O  O285  1  0.14430000  0.67095000  0.08157000  1
  O  O286  1  0.99710000  0.69535000  0.00323000  1
  O  O287  1  0.25445000  0.35257000  0.89173000  1
  O  O288  1  0.07762000  0.30498000  0.92988000  1
  O  O289  1  0.64434000  0.67098000  0.58161000  1
  O  O290  1  0.49718000  0.69540000  0.50325000  1
  O  O291  1  0.75448000  0.35264000  0.39175000  1
  O  O292  1  0.57758000  0.30505000  0.42981000  1
  O  O293  1  0.71010000  0.17664000  0.76353000  1
  O  O294  1  0.71010000  0.82336000  0.23647000  1
  O  O295  1  0.09329000  0.16987000  0.16804000  1
