# generated using pymatgen
data_H9C16N4O
_symmetry_space_group_name_H-M   'P 1'
_cell_length_a   9.95600000
_cell_length_b   15.81940000
_cell_length_c   15.81940000
_cell_angle_alpha   90.00000000
_cell_angle_beta   90.00000000
_cell_angle_gamma   90.00000000
_symmetry_Int_Tables_number   1
_chemical_formula_structural   H9C16N4O
_chemical_formula_sum   'H18 C32 N8 O2'
_cell_volume   2491.52301328
_cell_formula_units_Z   2
loop_
 _symmetry_equiv_pos_site_id
 _symmetry_equiv_pos_as_xyz
  1  'x, y, z'
loop_
 _atom_site_type_symbol
 _atom_site_label
 _atom_site_symmetry_multiplicity
 _atom_site_fract_x
 _atom_site_fract_y
 _atom_site_fract_z
 _atom_site_occupancy
  C  1  1  0.95825400  0.05761200  0.01587300  1
  C  2  1  0.95433800  0.03848300  0.10432200  1
  C  3  1  0.95365300  0.10063000  0.16870400  1
  C  4  1  0.95617600  0.18601600  0.14495300  1
  C  5  1  0.95941000  0.20963900  0.05946500  1
  C  6  1  0.96122900  0.14603000  0.99678800  1
  C  10  1  0.95828400  0.99289400  0.95114800  1
  C  11  1  0.95505000  0.90444000  0.97028200  1
  C  12  1  0.95417600  0.84005600  0.90813800  1
  C  13  1  0.95605300  0.86381200  0.82274800  1
  C  14  1  0.95890600  0.94930200  0.79911400  1
  C  15  1  0.96068600  0.01198400  0.86272100  1
  C  23  1  0.94211200  0.01397000  0.39026900  1
  C  24  1  0.92462400  0.93910600  0.43997600  1
  C  25  1  0.93186900  0.94453300  0.53029900  1
  C  26  1  0.95376500  0.02249100  0.57301700  1
  C  27  1  0.96656100  0.09555800  0.52243900  1
  C  28  1  0.96118700  0.09139800  0.43381400  1
  C  30  1  0.88881700  0.79576300  0.54179500  1
  C  31  1  0.87930600  0.78997900  0.45390500  1
  C  38  1  0.94259500  0.01393900  0.30046100  1
  C  40  1  0.96137800  0.03146600  0.66218900  1
  C  42  1  0.94377000  0.61851700  0.99490400  1
  C  43  1  0.92704600  0.56882500  0.06985100  1
  C  44  1  0.93391700  0.47848800  0.06437500  1
  C  45  1  0.95500900  0.43576100  0.98633900  1
  C  46  1  0.96735900  0.48633300  0.91323900  1
  C  47  1  0.96213200  0.57495900  0.91741800  1
  C  49  1  0.89261400  0.46701400  0.21333900  1
  C  50  1  0.88380100  0.55492000  0.21923100  1
  C  57  1  0.94411200  0.70832600  0.99488600  1
  C  59  1  0.96232700  0.34658000  0.97731800  1
  H  7  1  0.95221500  0.97783600  0.12466300  1
  H  8  1  0.96326400  0.16703600  0.93620700  1
  H  9  1  0.95463800  0.23187900  0.19081100  1
  H  16  1  0.95391500  0.88409800  0.03093600  1
  H  17  1  0.95447700  0.81795100  0.77688800  1
  H  18  1  0.96201600  0.07257500  0.84171300  1
  H  33  1  0.87483700  0.74436400  0.57985800  1
  H  34  1  0.97379300  0.14679500  0.40134300  1
  H  35  1  0.98199800  0.15346200  0.54978000  1
  H  37  1  0.88725300  0.85274400  0.34599800  1
  H  39  1  0.93699100  0.95848700  0.26833300  1
  H  41  1  0.97225500  0.09026200  0.68827700  1
  H  52  1  0.87947900  0.42896500  0.26484500  1
  H  53  1  0.97423300  0.60741700  0.86196600  1
  H  54  1  0.98221900  0.45898500  0.85527800  1
  H  56  1  0.89163100  0.66284400  0.15650400  1
  H  58  1  0.93867800  0.74048200  0.05032900  1
  H  60  1  0.97279800  0.32049200  0.91849800  1
  N  19  1  0.95743000  0.96437200  0.71493200  1
  N  20  1  0.95084600  0.75559700  0.92364700  1
  N  21  1  0.95824900  0.29382100  0.04439300  1
  N  22  1  0.94992600  0.08514100  0.25316300  1
  N  29  1  0.91364900  0.87234000  0.57556600  1
  N  32  1  0.89757700  0.86060100  0.40631000  1
  N  48  1  0.91642000  0.43322900  0.13664200  1
  N  51  1  0.90126300  0.60250600  0.14852000  1
  O  36  1  0.84948600  0.71478000  0.41809300  1
  O  55  1  0.85587500  0.59078600  0.29469000  1
