# generated using pymatgen
data_H28C41(NO)4
_symmetry_space_group_name_H-M   'P 1'
_cell_length_a   30.59637708
_cell_length_b   30.84940000
_cell_length_c   50.01950000
_cell_angle_alpha   89.93990000
_cell_angle_beta   89.99999980
_cell_angle_gamma   119.72883738
_symmetry_Int_Tables_number   1
_chemical_formula_structural   H28C41(NO)4
_chemical_formula_sum   'H224 C328 N32 O32'
_cell_volume   40998.36964310
_cell_formula_units_Z   8
loop_
 _symmetry_equiv_pos_site_id
 _symmetry_equiv_pos_as_xyz
  1  'x, y, z'
loop_
 _atom_site_type_symbol
 _atom_site_label
 _atom_site_symmetry_multiplicity
 _atom_site_fract_x
 _atom_site_fract_y
 _atom_site_fract_z
 _atom_site_occupancy
  H  26  1  0.57763200  0.20964800  0.00250300  1
  H  27  1  0.62507200  0.29238200  0.98544500  1
  H  28  1  0.51897300  0.15790400  0.92555700  1
  H  29  1  0.56547700  0.23988600  0.90863800  1
  H  30  1  0.54124200  0.31383300  0.92149200  1
  H  31  1  0.49379200  0.34933800  0.93939200  1
  H  32  1  0.60881300  0.42982000  0.99533500  1
  H  33  1  0.65552500  0.39383200  0.97815600  1
  H  34  1  0.70612800  0.42794000  0.92992500  1
  H  35  1  0.79135800  0.47285100  0.94428900  1
  H  36  1  0.78196600  0.33878500  0.97074100  1
  H  37  1  0.69746300  0.29346900  0.95561100  1
  H  38  1  0.66782700  0.28175100  0.90016000  1
  H  39  1  0.62063000  0.38906000  0.89651400  1
  H  40  1  0.62684900  0.39037900  0.84926900  1
  H  45  1  0.67506000  0.28405000  0.85281300  1
  H  71  1  0.41246200  0.78502000  0.50245600  1
  H  72  1  0.36509900  0.70235600  0.48541100  1
  H  73  1  0.47127900  0.83709800  0.42550800  1
  H  74  1  0.42484800  0.75517200  0.40859900  1
  H  75  1  0.44915300  0.68122500  0.42149600  1
  H  76  1  0.49660200  0.64569100  0.43941100  1
  H  77  1  0.38146900  0.56495700  0.49536500  1
  H  78  1  0.33476000  0.60097200  0.47816900  1
  H  79  1  0.28427000  0.56698600  0.42994600  1
  H  80  1  0.19899300  0.52197900  0.44428900  1
  H  81  1  0.20821500  0.65592300  0.47066600  1
  H  82  1  0.29275800  0.70132900  0.45555600  1
  H  83  1  0.32257000  0.71323100  0.40007400  1
  H  84  1  0.36978400  0.60593300  0.39658300  1
  H  85  1  0.36353200  0.60456900  0.34934600  1
  H  90  1  0.31530400  0.71088500  0.35272800  1
  H  116  1  0.37095400  0.78544300  0.99136700  1
  H  117  1  0.33500600  0.70223900  0.00782700  1
  H  118  1  0.35246100  0.83350000  0.06723200  1
  H  119  1  0.31639800  0.75103000  0.08351700  1
  H  120  1  0.22154500  0.67496800  0.07202600  1
  H  121  1  0.13923800  0.63913800  0.05349700  1
  H  122  1  0.17946700  0.56821200  0.99433200  1
  H  123  1  0.26170300  0.60443000  0.01243900  1
  H  124  1  0.27273800  0.56416400  0.06041800  1
  H  125  1  0.31464800  0.52007600  0.04785900  1
  H  126  1  0.44407600  0.65592500  0.02789300  1
  H  127  1  0.40268600  0.70022800  0.04109000  1
  H  128  1  0.38109600  0.71330800  0.09306800  1
  H  129  1  0.22831900  0.60085600  0.09542100  1
  H  130  1  0.23193900  0.59945900  0.14278600  1
  H  134  1  0.38481100  0.71089300  0.14043900  1
  H  160  1  0.61930200  0.20925200  0.49138200  1
  H  161  1  0.65525400  0.29238700  0.50783600  1
  H  162  1  0.63719700  0.16076300  0.56730900  1
  H  163  1  0.67327700  0.24316800  0.58359000  1
  H  164  1  0.76831200  0.31911900  0.57195300  1
  H  165  1  0.85066700  0.35500900  0.55345400  1
  H  166  1  0.81085000  0.42669900  0.49444300  1
  H  167  1  0.72854000  0.39037300  0.51250000  1
  H  168  1  0.71727500  0.43021100  0.56044300  1
  H  169  1  0.67541200  0.47437100  0.54787600  1
  H  170  1  0.54606100  0.33863300  0.52783600  1
  H  171  1  0.58739900  0.29425600  0.54104100  1
  H  172  1  0.60891700  0.28116000  0.59314100  1
  H  173  1  0.76179300  0.39336600  0.59535000  1
  H  174  1  0.75819000  0.39475700  0.64270900  1
  H  179  1  0.60522200  0.28357300  0.64051200  1
  H  186  1  0.61706100  0.36908000  0.72731800  1
  H  188  1  0.70937500  0.29304100  0.76436200  1
  H  190  1  0.73960900  0.31105400  0.71098700  1
  H  191  1  0.58660500  0.34962900  0.78083500  1
  H  193  1  0.69915700  0.31649200  0.80835500  1
  H  195  1  0.61346800  0.32089700  0.68447500  1
  H  202  1  0.37309700  0.62549800  0.22739100  1
  H  204  1  0.28084800  0.70166300  0.26426700  1
  H  206  1  0.25052200  0.68346800  0.21092600  1
  H  207  1  0.40364500  0.64513000  0.28086400  1
  H  209  1  0.29112500  0.67833300  0.30831400  1
  H  211  1  0.37664500  0.67359500  0.18445000  1
  H  218  1  0.47919400  0.99429300  0.04197400  1
  H  220  1  0.42176900  0.99898200  0.95229900  1
  H  222  1  0.38597100  0.89812100  0.96189500  1
  H  223  1  0.56055300  0.08090300  0.01487600  1
  H  225  1  0.49704700  0.08165100  0.94677900  1
  H  227  1  0.40238400  0.91106000  0.04701000  1
  H  234  1  0.40722900  0.44029900  0.04052200  1
  H  236  1  0.52433800  0.53354000  0.96936800  1
  H  238  1  0.49561200  0.59949100  0.98984000  1
  H  239  1  0.43641800  0.37430200  0.01930200  1
  H  241  1  0.56999800  0.48433500  0.98524000  1
  H  243  1  0.36287600  0.48863100  0.02864900  1
  H  248  1  0.97206900  0.54723400  0.03530400  1
  H  249  1  0.96917500  0.48601800  0.94572000  1
  H  251  1  0.87024700  0.47858900  0.02541000  1
  H  253  1  0.88134500  0.48851300  0.94368400  1
  H  260  1  0.51076300  0.00011200  0.54196500  1
  H  262  1  0.56842100  0.99593800  0.45228400  1
  H  264  1  0.60418300  0.09674200  0.46191600  1
  H  265  1  0.42947800  0.91364800  0.51484300  1
  H  267  1  0.49319600  0.91327800  0.44674000  1
  H  269  1  0.58758300  0.08331700  0.54702500  1
  H  276  1  0.58287000  0.55418700  0.54053700  1
  H  278  1  0.46597100  0.46133200  0.46935300  1
  H  280  1  0.49463100  0.39526900  0.48981500  1
  H  281  1  0.55376200  0.62030400  0.51933100  1
  H  283  1  0.42027000  0.51049300  0.48525500  1
  H  285  1  0.62725500  0.50591800  0.52865600  1
  H  289  1  0.91899900  0.43828400  0.45576000  1
  H  291  1  0.93175700  0.42450600  0.54002500  1
  H  296  1  0.07112500  0.55479800  0.95579500  1
  H  298  1  0.05822000  0.56880100  0.04016600  1
  H  303  1  0.01826700  0.44777500  0.53544100  1
  H  304  1  0.02089100  0.50780800  0.44551600  1
  H  306  1  0.11989900  0.51685800  0.52551100  1
  H  308  1  0.10901200  0.50621100  0.44368700  1
  H  334  1  0.57763200  0.63105000  0.82257300  1
  H  335  1  0.62507200  0.71378400  0.80551500  1
  H  336  1  0.51897300  0.57930600  0.74562700  1
  H  337  1  0.56547700  0.66128800  0.72870800  1
  H  338  1  0.54124200  0.73523500  0.74156200  1
  H  339  1  0.49379200  0.77074000  0.75946200  1
  H  340  1  0.60881300  0.85122200  0.81540500  1
  H  341  1  0.65552500  0.81523400  0.79822600  1
  H  342  1  0.70612800  0.84934200  0.74999500  1
  H  343  1  0.79135800  0.89425300  0.76435900  1
  H  344  1  0.78196600  0.76018700  0.79081100  1
  H  345  1  0.69746300  0.71487100  0.77568100  1
  H  346  1  0.66782700  0.70315300  0.72023000  1
  H  347  1  0.62063000  0.81046200  0.71658400  1
  H  348  1  0.62684900  0.81178100  0.66933900  1
  H  353  1  0.67506000  0.70545200  0.67288300  1
  H  379  1  0.41246200  0.20642200  0.32252600  1
  H  380  1  0.36509900  0.12375800  0.30548100  1
  H  381  1  0.47127900  0.25850000  0.24557800  1
  H  382  1  0.42484800  0.17657400  0.22866900  1
  H  383  1  0.44915300  0.10262700  0.24156600  1
  H  384  1  0.49660200  0.06709300  0.25948100  1
  H  385  1  0.38146900  0.98635900  0.31543500  1
  H  386  1  0.33476000  0.02237400  0.29823900  1
  H  387  1  0.28427000  0.98838800  0.25001600  1
  H  388  1  0.19899300  0.94338100  0.26435900  1
  H  389  1  0.20821500  0.07732500  0.29073600  1
  H  390  1  0.29275800  0.12273100  0.27562600  1
  H  391  1  0.32257000  0.13463300  0.22014400  1
  H  392  1  0.36978400  0.02733500  0.21665300  1
  H  393  1  0.36353200  0.02597100  0.16941600  1
  H  398  1  0.31530400  0.13228700  0.17279800  1
  H  424  1  0.37095400  0.20684500  0.81143700  1
  H  425  1  0.33500600  0.12364100  0.82789700  1
  H  426  1  0.35246100  0.25490200  0.88730200  1
  H  427  1  0.31639800  0.17243200  0.90358720  1
  H  428  1  0.22154500  0.09637000  0.89209600  1
  H  429  1  0.13923800  0.06054000  0.87356700  1
  H  430  1  0.17946700  0.98961400  0.81440200  1
  H  431  1  0.26170300  0.02583200  0.83250900  1
  H  432  1  0.27273800  0.98556600  0.88048800  1
  H  433  1  0.31464800  0.94147800  0.86792900  1
  H  434  1  0.44407600  0.07732700  0.84796300  1
  H  435  1  0.40268600  0.12163000  0.86116000  1
  H  436  1  0.38109600  0.13471000  0.91313820  1
  H  437  1  0.22831900  0.02225800  0.91549120  1
  H  438  1  0.23193900  0.02086100  0.96285620  1
  H  442  1  0.38481100  0.13229500  0.96050920  1
  H  468  1  0.61930200  0.63065400  0.31145200  1
  H  469  1  0.65525400  0.71378900  0.32790600  1
  H  470  1  0.63719700  0.58216500  0.38737900  1
  H  471  1  0.67327700  0.66457000  0.40366000  1
  H  472  1  0.76831200  0.74052100  0.39202300  1
  H  473  1  0.85066700  0.77641100  0.37352400  1
  H  474  1  0.81085000  0.84810100  0.31451300  1
  H  475  1  0.72854000  0.81177500  0.33257000  1
  H  476  1  0.71727500  0.85161300  0.38051300  1
  H  477  1  0.67541200  0.89577300  0.36794600  1
  H  478  1  0.54606100  0.76003500  0.34790600  1
  H  479  1  0.58739900  0.71565800  0.36111100  1
  H  480  1  0.60891700  0.70256200  0.41321100  1
  H  481  1  0.76179300  0.81476800  0.41542000  1
  H  482  1  0.75819000  0.81615900  0.46277900  1
  H  487  1  0.60522200  0.70497500  0.46058200  1
  H  494  1  0.61706100  0.79048200  0.54738800  1
  H  496  1  0.70937500  0.71444304  0.58443200  1
  H  498  1  0.73960900  0.73245600  0.53105700  1
  H  499  1  0.58660500  0.77103100  0.60090500  1
  H  501  1  0.69915700  0.73789400  0.62842500  1
  H  503  1  0.61346800  0.74229900  0.50454500  1
  H  510  1  0.37309700  0.04690000  0.04746100  1
  H  512  1  0.28084800  0.12306500  0.08433700  1
  H  514  1  0.25052200  0.10487000  0.03099600  1
  H  515  1  0.40364500  0.06653200  0.10093400  1
  H  517  1  0.29112500  0.09973500  0.12838400  1
  H  519  1  0.37664500  0.09499700  0.00452000  1
  H  526  1  0.47919400  0.41569500  0.86204400  1
  H  528  1  0.42176900  0.42038400  0.77236900  1
  H  530  1  0.38597100  0.31952300  0.78196500  1
  H  531  1  0.56055300  0.50230500  0.83494600  1
  H  533  1  0.49704700  0.50305304  0.76684900  1
  H  535  1  0.40238400  0.33246200  0.86708000  1
  H  542  1  0.40722900  0.86170100  0.86059200  1
  H  544  1  0.52433800  0.95494200  0.78943800  1
  H  546  1  0.49561200  0.02089300  0.80991000  1
  H  547  1  0.43641800  0.79570400  0.83937200  1
  H  549  1  0.56999800  0.90573700  0.80531000  1
  H  551  1  0.36287600  0.91003300  0.84871900  1
  H  556  1  0.97206900  0.96863600  0.85537400  1
  H  557  1  0.96917500  0.90742000  0.76579000  1
  H  559  1  0.87024700  0.89999100  0.84548000  1
  H  561  1  0.88134500  0.90991500  0.76375400  1
  H  568  1  0.51076300  0.42151400  0.36203500  1
  H  570  1  0.56842100  0.41734000  0.27235400  1
  H  572  1  0.60418300  0.51814400  0.28198600  1
  H  573  1  0.42947800  0.33505000  0.33491300  1
  H  575  1  0.49319600  0.33468000  0.26681000  1
  H  577  1  0.58758300  0.50471900  0.36709500  1
  H  584  1  0.58287000  0.97558900  0.36060700  1
  H  586  1  0.46597100  0.88273400  0.28942300  1
  H  588  1  0.49463100  0.81667100  0.30988500  1
  H  589  1  0.55376200  0.04170600  0.33940100  1
  H  591  1  0.42027000  0.93189500  0.30532500  1
  H  593  1  0.62725500  0.92732000  0.34872600  1
  H  597  1  0.91899900  0.85968600  0.27583000  1
  H  599  1  0.93175700  0.84590800  0.36009500  1
  H  604  1  0.07112500  0.97620000  0.77586500  1
  H  606  1  0.05822000  0.99020300  0.86023600  1
  H  611  1  0.01826700  0.86917700  0.35551100  1
  H  612  1  0.02089100  0.92921000  0.26558600  1
  H  614  1  0.11989900  0.93826000  0.34558100  1
  H  616  1  0.10901200  0.92761300  0.26375700  1
  C  1  1  0.65138100  0.33733600  0.84639800  1
  C  2  1  0.63521300  0.36697200  0.85984600  1
  C  3  1  0.63072000  0.36535300  0.88788600  1
  C  4  1  0.64009600  0.33255000  0.90375200  1
  C  5  1  0.65880800  0.30488600  0.88983900  1
  C  6  1  0.66355000  0.30641900  0.86182300  1
  C  7  1  0.63522700  0.32907700  0.93431600  1
  C  8  1  0.69080600  0.35588400  0.94268400  1
  C  9  1  0.71576800  0.33134400  0.95352000  1
  C  10  1  0.76620700  0.35788900  0.96207900  1
  C  11  1  0.79485500  0.41001100  0.95881600  1
  C  12  1  0.77194400  0.43489100  0.94651600  1
  C  13  1  0.72138600  0.40816700  0.93827200  1
  C  14  1  0.60588800  0.35294800  0.94617600  1
  C  15  1  0.60429400  0.27524100  0.94460100  1
  C  16  1  0.60367200  0.26440700  0.97231000  1
  C  17  1  0.57550700  0.21558200  0.98251400  1
  C  18  1  0.54516200  0.17526000  0.96556300  1
  C  19  1  0.54223700  0.18566700  0.93832500  1
  C  20  1  0.57058700  0.23454800  0.92827600  1
  C  21  1  0.55674100  0.33899500  0.93674900  1
  C  22  1  0.52848600  0.35972800  0.94728400  1
  C  23  1  0.54795000  0.39499500  0.96810700  1
  C  24  1  0.59490500  0.40654000  0.97919300  1
  C  25  1  0.62272700  0.38541500  0.96867000  1
  C  46  1  0.33895000  0.65757400  0.34639700  1
  C  47  1  0.35517000  0.62798100  0.35988600  1
  C  48  1  0.35969900  0.62964100  0.38792300  1
  C  49  1  0.35030800  0.66243900  0.40374300  1
  C  50  1  0.33159700  0.69009900  0.38978600  1
  C  51  1  0.32682000  0.68852600  0.36177500  1
  C  52  1  0.35510300  0.66585500  0.43430500  1
  C  53  1  0.29950500  0.63898200  0.44266700  1
  C  54  1  0.27447900  0.66346200  0.45347300  1
  C  55  1  0.22401900  0.63686500  0.46202600  1
  C  56  1  0.19540600  0.58475100  0.45877100  1
  C  57  1  0.21839100  0.55993100  0.44652000  1
  C  58  1  0.26897400  0.58670500  0.43829500  1
  C  59  1  0.38447100  0.64200900  0.44619000  1
  C  60  1  0.38595200  0.71966600  0.44456100  1
  C  61  1  0.38653500  0.73038300  0.47227200  1
  C  62  1  0.41464900  0.77916800  0.48247000  1
  C  63  1  0.44499800  0.81956700  0.46551200  1
  C  64  1  0.44801000  0.80927300  0.43827900  1
  C  65  1  0.41969700  0.76043100  0.42823500  1
  C  66  1  0.43364400  0.65602400  0.43676600  1
  C  67  1  0.46189500  0.63527300  0.44731000  1
  C  68  1  0.44241200  0.59994700  0.46814900  1
  C  69  1  0.39541800  0.58832200  0.47922700  1
  C  70  1  0.36759700  0.60946000  0.46869100  1
  C  91  1  0.30862200  0.65487500  0.14623300  1
  C  92  1  0.26360800  0.62382900  0.13243600  1
  C  93  1  0.26144800  0.62549000  0.10435700  1
  C  94  1  0.30336600  0.65990400  0.08883900  1
  C  95  1  0.34906100  0.68895600  0.10310800  1
  C  96  1  0.35160100  0.68731600  0.13114100  1
  C  97  1  0.30251900  0.66374100  0.05828700  1
  C  98  1  0.33145300  0.63700100  0.05025800  1
  C  99  1  0.38257400  0.66217200  0.04186000  1
  C  100  1  0.40761400  0.63610600  0.03445300  1
  C  101  1  0.38314300  0.58360800  0.03584600  1
  C  102  1  0.33347500  0.55804000  0.04591600  1
  C  103  1  0.30875100  0.58435000  0.05333700  1
  C  104  1  0.24979100  0.64017000  0.04592000  1
  C  105  1  0.32560800  0.71765600  0.04820500  1
  C  106  1  0.33926600  0.72955300  0.02088200  1
  C  107  1  0.36034400  0.77866300  0.01103400  1
  C  108  1  0.36715800  0.81812000  0.02788300  1
  C  109  1  0.35022100  0.80648200  0.05458700  1
  C  110  1  0.32932300  0.75734500  0.06428900  1
  C  111  1  0.21320200  0.65162200  0.05599400  1
  C  112  1  0.16442000  0.63043300  0.04515400  1
  C  113  1  0.15066900  0.59818900  0.02288300  1
  C  114  1  0.18767800  0.58993400  0.01109400  1
  C  115  1  0.23618100  0.61086900  0.02221700  1
  C  135  1  0.68146600  0.33946000  0.64623200  1
  C  136  1  0.72649600  0.37043600  0.63239300  1
  C  137  1  0.72864800  0.36877000  0.60431600  1
  C  138  1  0.68668200  0.33444300  0.58884200  1
  C  139  1  0.64098100  0.30543700  0.60315100  1
  C  140  1  0.63845300  0.30708900  0.63118200  1
  C  141  1  0.68750300  0.33065000  0.55829000  1
  C  142  1  0.65858800  0.35742900  0.55026300  1
  C  143  1  0.60750900  0.33230700  0.54182500  1
  C  144  1  0.58249900  0.35841700  0.53441400  1
  C  145  1  0.60696300  0.41090400  0.53582900  1
  C  146  1  0.65659300  0.43641600  0.54591700  1
  C  147  1  0.68128600  0.41006800  0.55335200  1
  C  148  1  0.74024100  0.35421000  0.54589700  1
  C  149  1  0.66437600  0.27675400  0.54823800  1
  C  150  1  0.65087600  0.26499800  0.52090300  1
  C  151  1  0.62978700  0.21592500  0.51105900  1
  C  152  1  0.62281500  0.17637000  0.52792400  1
  C  153  1  0.63957800  0.18786400  0.55464600  1
  C  154  1  0.66047300  0.23696100  0.56434800  1
  C  155  1  0.77673100  0.34258500  0.55594100  1
  C  156  1  0.82555700  0.36384200  0.54512500  1
  C  157  1  0.83946200  0.39635000  0.52292200  1
  C  158  1  0.80254100  0.40479200  0.51116300  1
  C  159  1  0.75399000  0.38379400  0.52225800  1
  C  180  1  0.69035000  0.30993400  0.75689700  1
  C  181  1  0.68497400  0.31056600  0.72892000  1
  C  182  1  0.65768800  0.33207900  0.71758600  1
  C  183  1  0.63704300  0.35333100  0.73496900  1
  C  184  1  0.64259600  0.35282700  0.76296400  1
  C  185  1  0.66960200  0.33095900  0.77451000  1
  C  192  1  0.67581700  0.32808300  0.80205800  1
  C  194  1  0.64806400  0.33011500  0.69036700  1
  C  196  1  0.29985700  0.68474400  0.25683800  1
  C  197  1  0.30518300  0.68401600  0.22886300  1
  C  198  1  0.33244800  0.66246100  0.21757700  1
  C  199  1  0.35312400  0.64126900  0.23500600  1
  C  200  1  0.34762500  0.64187300  0.26299900  1
  C  201  1  0.32064000  0.66377900  0.27449900  1
  C  208  1  0.31446400  0.66673800  0.30204000  1
  C  210  1  0.34204300  0.66435200  0.19035600  1
  C  212  1  0.43455100  0.99846800  0.97117000  1
  C  213  1  0.41105800  0.95309900  0.98553100  1
  C  214  1  0.42684300  0.95073100  0.01188700  1
  C  215  1  0.46674200  0.99478000  0.02301100  1
  C  216  1  0.49093500  0.03984100  0.00843900  1
  C  217  1  0.47471900  0.04250800  0.98219200  1
  C  224  1  0.49777000  0.08558100  0.96652800  1
  C  226  1  0.40417000  0.90751700  0.02735100  1
  C  228  1  0.49980000  0.51367000  0.98444000  1
  C  229  1  0.46671400  0.52963700  0.99398500  1
  C  230  1  0.43195900  0.50284800  0.01470600  1
  C  231  1  0.43163900  0.46021000  0.02541200  1
  C  232  1  0.46461500  0.44415300  0.01582000  1
  C  233  1  0.49930000  0.47103800  0.99516700  1
  C  240  1  0.53391300  0.45798200  0.98605100  1
  C  242  1  0.39731800  0.51585500  0.02418300  1
  C  244  1  0.96950500  0.49866000  0.96470000  1
  C  245  1  0.97216800  0.53415100  0.01649600  1
  C  246  1  0.92634100  0.51074200  0.00231300  1
  C  247  1  0.92470300  0.49291700  0.97606200  1
  C  252  1  0.88105100  0.47255700  0.96103000  1
  C  254  1  0.55558900  0.99634100  0.47115600  1
  C  255  1  0.57904100  0.04162900  0.48553100  1
  C  256  1  0.56318800  0.04384600  0.51189000  1
  C  257  1  0.52326200  0.99973400  0.52300200  1
  C  258  1  0.49911000  0.95475400  0.50841400  1
  C  259  1  0.51539800  0.95223400  0.48216400  1
  C  266  1  0.49240000  0.90924600  0.46648800  1
  C  268  1  0.58582300  0.08697200  0.52737000  1
  C  270  1  0.49046100  0.48111900  0.48443100  1
  C  271  1  0.52351800  0.46510100  0.49397700  1
  C  272  1  0.55821200  0.49177800  0.51470500  1
  C  273  1  0.55850600  0.53436000  0.52542100  1
  C  274  1  0.52555800  0.55046800  0.51582700  1
  C  275  1  0.49093500  0.52369700  0.49516700  1
  C  282  1  0.45636900  0.53681500  0.48603600  1
  C  284  1  0.59282600  0.47872100  0.52418200  1
  C  286  1  0.97478200  0.47211300  0.47885700  1
  C  287  1  0.97273200  0.45423700  0.50532900  1
  C  290  1  0.92884700  0.43092600  0.52078300  1
  C  293  1  0.01530000  0.52181100  0.97899600  1
  C  294  1  0.01741300  0.54001300  0.00537000  1
  C  297  1  0.06124000  0.56306600  0.02084000  1
  C  299  1  0.02062300  0.49544400  0.46457500  1
  C  300  1  0.01810200  0.46061700  0.51656100  1
  C  301  1  0.06396900  0.48419900  0.50239000  1
  C  302  1  0.06553800  0.50168900  0.47604000  1
  C  307  1  0.10923300  0.52214100  0.46101000  1
  C  309  1  0.65138100  0.75873800  0.66646800  1
  C  310  1  0.63521300  0.78837400  0.67991600  1
  C  311  1  0.63072000  0.78675500  0.70795600  1
  C  312  1  0.64009600  0.75395200  0.72382200  1
  C  313  1  0.65880800  0.72628800  0.70990900  1
  C  314  1  0.66355000  0.72782100  0.68189300  1
  C  315  1  0.63522700  0.75047900  0.75438600  1
  C  316  1  0.69080600  0.77728600  0.76275400  1
  C  317  1  0.71576800  0.75274600  0.77359000  1
  C  318  1  0.76620700  0.77929100  0.78214900  1
  C  319  1  0.79485500  0.83141300  0.77888600  1
  C  320  1  0.77194400  0.85629300  0.76658600  1
  C  321  1  0.72138600  0.82956900  0.75834200  1
  C  322  1  0.60588800  0.77435000  0.76624600  1
  C  323  1  0.60429400  0.69664300  0.76467100  1
  C  324  1  0.60367200  0.68580900  0.79238000  1
  C  325  1  0.57550700  0.63698400  0.80258400  1
  C  326  1  0.54516200  0.59666200  0.78563300  1
  C  327  1  0.54223700  0.60706900  0.75839500  1
  C  328  1  0.57058700  0.65595000  0.74834600  1
  C  329  1  0.55674100  0.76039700  0.75681900  1
  C  330  1  0.52848600  0.78113000  0.76735400  1
  C  331  1  0.54795000  0.81639700  0.78817700  1
  C  332  1  0.59490500  0.82794200  0.79926300  1
  C  333  1  0.62272700  0.80681700  0.78874000  1
  C  354  1  0.33895000  0.07897600  0.16646700  1
  C  355  1  0.35517000  0.04938300  0.17995600  1
  C  356  1  0.35969900  0.05104300  0.20799300  1
  C  357  1  0.35030800  0.08384100  0.22381300  1
  C  358  1  0.33159700  0.11150100  0.20985600  1
  C  359  1  0.32682000  0.10992800  0.18184500  1
  C  360  1  0.35510300  0.08725700  0.25437500  1
  C  361  1  0.29950500  0.06038400  0.26273700  1
  C  362  1  0.27447900  0.08486400  0.27354300  1
  C  363  1  0.22401900  0.05826700  0.28209600  1
  C  364  1  0.19540600  0.00615300  0.27884100  1
  C  365  1  0.21839100  0.98133300  0.26659000  1
  C  366  1  0.26897400  0.00810700  0.25836500  1
  C  367  1  0.38447100  0.06341100  0.26626000  1
  C  368  1  0.38595200  0.14106800  0.26463100  1
  C  369  1  0.38653500  0.15178500  0.29234200  1
  C  370  1  0.41464900  0.20057000  0.30254000  1
  C  371  1  0.44499800  0.24096900  0.28558200  1
  C  372  1  0.44801000  0.23067500  0.25834900  1
  C  373  1  0.41969700  0.18183300  0.24830500  1
  C  374  1  0.43364400  0.07742600  0.25683600  1
  C  375  1  0.46189500  0.05667500  0.26738000  1
  C  376  1  0.44241200  0.02134900  0.28821900  1
  C  377  1  0.39541800  0.00972400  0.29929700  1
  C  378  1  0.36759700  0.03086200  0.28876100  1
  C  399  1  0.30862200  0.07627700  0.96630320  1
  C  400  1  0.26360800  0.04523100  0.95250620  1
  C  401  1  0.26144800  0.04689200  0.92442720  1
  C  402  1  0.30336600  0.08130600  0.90890920  1
  C  403  1  0.34906100  0.11035800  0.92317820  1
  C  404  1  0.35160100  0.10871800  0.95121120  1
  C  405  1  0.30251900  0.08514300  0.87835700  1
  C  406  1  0.33145300  0.05840300  0.87032800  1
  C  407  1  0.38257400  0.08357400  0.86193000  1
  C  408  1  0.40761400  0.05750800  0.85452300  1
  C  409  1  0.38314300  0.00501000  0.85591600  1
  C  410  1  0.33347500  0.97944200  0.86598600  1
  C  411  1  0.30875100  0.00575200  0.87340700  1
  C  412  1  0.24979100  0.06157200  0.86599000  1
  C  413  1  0.32560800  0.13905800  0.86827500  1
  C  414  1  0.33926600  0.15095500  0.84095200  1
  C  415  1  0.36034400  0.20006500  0.83110400  1
  C  416  1  0.36715800  0.23952200  0.84795300  1
  C  417  1  0.35022100  0.22788400  0.87465700  1
  C  418  1  0.32932300  0.17874700  0.88435900  1
  C  419  1  0.21320200  0.07302400  0.87606400  1
  C  420  1  0.16442000  0.05183500  0.86522400  1
  C  421  1  0.15066900  0.01959100  0.84295300  1
  C  422  1  0.18767800  0.01133600  0.83116400  1
  C  423  1  0.23618100  0.03227100  0.84228700  1
  C  443  1  0.68146600  0.76086200  0.46630200  1
  C  444  1  0.72649600  0.79183800  0.45246300  1
  C  445  1  0.72864800  0.79017200  0.42438600  1
  C  446  1  0.68668200  0.75584500  0.40891200  1
  C  447  1  0.64098100  0.72683900  0.42322100  1
  C  448  1  0.63845300  0.72849100  0.45125200  1
  C  449  1  0.68750300  0.75205200  0.37836000  1
  C  450  1  0.65858800  0.77883100  0.37033300  1
  C  451  1  0.60750900  0.75370900  0.36189500  1
  C  452  1  0.58249900  0.77981900  0.35448400  1
  C  453  1  0.60696300  0.83230600  0.35589900  1
  C  454  1  0.65659300  0.85781800  0.36598700  1
  C  455  1  0.68128600  0.83147000  0.37342200  1
  C  456  1  0.74024100  0.77561200  0.36596700  1
  C  457  1  0.66437600  0.69815600  0.36830800  1
  C  458  1  0.65087600  0.68640000  0.34097300  1
  C  459  1  0.62978700  0.63732704  0.33112900  1
  C  460  1  0.62281500  0.59777200  0.34799400  1
  C  461  1  0.63957800  0.60926600  0.37471600  1
  C  462  1  0.66047300  0.65836300  0.38441800  1
  C  463  1  0.77673100  0.76398700  0.37601100  1
  C  464  1  0.82555700  0.78524400  0.36519500  1
  C  465  1  0.83946200  0.81775200  0.34299200  1
  C  466  1  0.80254100  0.82619400  0.33123300  1
  C  467  1  0.75399000  0.80519600  0.34232800  1
  C  488  1  0.69035000  0.73133600  0.57696700  1
  C  489  1  0.68497400  0.73196800  0.54899000  1
  C  490  1  0.65768800  0.75348100  0.53765600  1
  C  491  1  0.63704300  0.77473300  0.55503900  1
  C  492  1  0.64259600  0.77422900  0.58303400  1
  C  493  1  0.66960200  0.75236100  0.59458000  1
  C  500  1  0.67581700  0.74948500  0.62212800  1
  C  502  1  0.64806400  0.75151700  0.51043700  1
  C  504  1  0.29985700  0.10614600  0.07690800  1
  C  505  1  0.30518300  0.10541800  0.04893300  1
  C  506  1  0.33244800  0.08386300  0.03764700  1
  C  507  1  0.35312400  0.06267100  0.05507600  1
  C  508  1  0.34762500  0.06327500  0.08306900  1
  C  509  1  0.32064000  0.08518100  0.09456900  1
  C  516  1  0.31446400  0.08814000  0.12211000  1
  C  518  1  0.34204300  0.08575400  0.01042600  1
  C  520  1  0.43455100  0.41987000  0.79124000  1
  C  521  1  0.41105800  0.37450100  0.80560100  1
  C  522  1  0.42684300  0.37213300  0.83195700  1
  C  523  1  0.46674200  0.41618200  0.84308100  1
  C  524  1  0.49093500  0.46124300  0.82850900  1
  C  525  1  0.47471900  0.46391000  0.80226200  1
  C  532  1  0.49777000  0.50698304  0.78659800  1
  C  534  1  0.40417000  0.32891900  0.84742100  1
  C  536  1  0.49980000  0.93507200  0.80451000  1
  C  537  1  0.46671400  0.95103900  0.81405500  1
  C  538  1  0.43195900  0.92425000  0.83477600  1
  C  539  1  0.43163900  0.88161200  0.84548200  1
  C  540  1  0.46461500  0.86555500  0.83589000  1
  C  541  1  0.49930000  0.89244000  0.81523700  1
  C  548  1  0.53391300  0.87938400  0.80612100  1
  C  550  1  0.39731800  0.93725700  0.84425300  1
  C  552  1  0.96950500  0.92006200  0.78477000  1
  C  553  1  0.97216800  0.95555300  0.83656600  1
  C  554  1  0.92634100  0.93214404  0.82238300  1
  C  555  1  0.92470300  0.91431900  0.79613200  1
  C  560  1  0.88105100  0.89395900  0.78110000  1
  C  562  1  0.55558900  0.41774300  0.29122600  1
  C  563  1  0.57904100  0.46303100  0.30560100  1
  C  564  1  0.56318800  0.46524800  0.33196000  1
  C  565  1  0.52326200  0.42113600  0.34307200  1
  C  566  1  0.49911000  0.37615600  0.32848400  1
  C  567  1  0.51539800  0.37363600  0.30223400  1
  C  574  1  0.49240000  0.33064800  0.28655800  1
  C  576  1  0.58582300  0.50837400  0.34744000  1
  C  578  1  0.49046100  0.90252100  0.30450100  1
  C  579  1  0.52351800  0.88650300  0.31404700  1
  C  580  1  0.55821200  0.91318000  0.33477500  1
  C  581  1  0.55850600  0.95576200  0.34549100  1
  C  582  1  0.52555800  0.97187000  0.33589700  1
  C  583  1  0.49093500  0.94509900  0.31523700  1
  C  590  1  0.45636900  0.95821700  0.30610600  1
  C  592  1  0.59282600  0.90012300  0.34425200  1
  C  594  1  0.97478200  0.89351500  0.29892700  1
  C  595  1  0.97273200  0.87563900  0.32539900  1
  C  598  1  0.92884700  0.85232800  0.34085300  1
  C  601  1  0.01530000  0.94321300  0.79906600  1
  C  602  1  0.01741300  0.96141500  0.82544000  1
  C  605  1  0.06124000  0.98446800  0.84091000  1
  C  607  1  0.02062300  0.91684600  0.28464500  1
  C  608  1  0.01810200  0.88201900  0.33663100  1
  C  609  1  0.06396900  0.90560100  0.32246000  1
  C  610  1  0.06553800  0.92309100  0.29611000  1
  C  615  1  0.10923300  0.94354300  0.28108000  1
  N  41  1  0.52049400  0.12986800  0.97649100  1
  N  42  1  0.52004100  0.41365900  0.97755700  1
  N  43  1  0.65222600  0.33883200  0.81978300  1
  N  44  1  0.84076200  0.43400100  0.96936300  1
  N  86  1  0.46963400  0.86491000  0.47644200  1
  N  87  1  0.47027500  0.58119600  0.47757400  1
  N  88  1  0.33808200  0.65603600  0.31978500  1
  N  89  1  0.14947800  0.56071700  0.46931900  1
  N  131  1  0.38834200  0.86383300  0.01730500  1
  N  132  1  0.30745900  0.65409300  0.17285300  1
  N  133  1  0.40875200  0.56165100  0.02745100  1
  N  175  1  0.60165700  0.13071100  0.51734000  1
  N  176  1  0.88481900  0.41816200  0.51160200  1
  N  177  1  0.68262200  0.34029200  0.67284800  1
  N  178  1  0.58138000  0.43290800  0.52743600  1
  N  292  1  0.10535200  0.57646100  0.01154700  1
  N  349  1  0.52049400  0.55127000  0.79656100  1
  N  350  1  0.52004100  0.83506100  0.79762700  1
  N  351  1  0.65222600  0.76023400  0.63985300  1
  N  352  1  0.84076200  0.85540300  0.78943300  1
  N  394  1  0.46963400  0.28631200  0.29651200  1
  N  395  1  0.47027500  0.00259800  0.29764400  1
  N  396  1  0.33808200  0.07743800  0.13985500  1
  N  397  1  0.14947800  0.98211900  0.28938900  1
  N  439  1  0.38834200  0.28523500  0.83737500  1
  N  440  1  0.30745900  0.07549500  0.99292317  1
  N  441  1  0.40875200  0.98305300  0.84752100  1
  N  483  1  0.60165700  0.55211300  0.33741000  1
  N  484  1  0.88481900  0.83956400  0.33167200  1
  N  485  1  0.68262200  0.76169400  0.49291800  1
  N  486  1  0.58138000  0.85431000  0.34750600  1
  N  600  1  0.10535200  0.99786300  0.83161700  1
  O  187  1  0.70360800  0.28710500  0.71347600  1
  O  189  1  0.62211500  0.37495300  0.77807100  1
  O  203  1  0.28652400  0.70742700  0.21336700  1
  O  205  1  0.36813000  0.61979400  0.27815500  1
  O  219  1  0.37145300  0.91287100  0.97392600  1
  O  221  1  0.52943900  0.08008100  0.02067400  1
  O  235  1  0.46744900  0.56953700  0.98183800  1
  O  237  1  0.46398300  0.40412700  0.02774100  1
  O  250  1  0.88483800  0.50830500  0.01384700  1
  O  261  1  0.61867500  0.08192700  0.47393900  1
  O  263  1  0.46058100  0.91444300  0.52063900  1
  O  277  1  0.52281500  0.42526100  0.48182200  1
  O  279  1  0.52615900  0.59043600  0.52775400  1
  O  288  1  0.93365600  0.46900000  0.46650800  1
  O  295  1  0.05629800  0.52434300  0.96680000  1
  O  305  1  0.10558500  0.48708100  0.51403500  1
  O  495  1  0.70360800  0.70850704  0.53354600  1
  O  497  1  0.62211500  0.79635500  0.59814100  1
  O  511  1  0.28652400  0.12882900  0.03343700  1
  O  513  1  0.36813000  0.04119600  0.09822500  1
  O  527  1  0.37145300  0.33427300  0.79399600  1
  O  529  1  0.52943900  0.50148300  0.84074400  1
  O  543  1  0.46744900  0.99093900  0.80190800  1
  O  545  1  0.46398300  0.82552900  0.84781100  1
  O  558  1  0.88483800  0.92970700  0.83391700  1
  O  569  1  0.61867500  0.50332900  0.29400900  1
  O  571  1  0.46058100  0.33584500  0.34070900  1
  O  585  1  0.52281500  0.84666300  0.30189200  1
  O  587  1  0.52615900  0.01183800  0.34782400  1
  O  596  1  0.93365600  0.89040200  0.28657800  1
  O  603  1  0.05629800  0.94574500  0.78687000  1
  O  613  1  0.10558500  0.90848300  0.33410500  1
