# generated using pymatgen
data_Cr6H23C50N5(O9F)4
_symmetry_space_group_name_H-M   'P 1'
_cell_length_a   10.90398000
_cell_length_b   10.92519000
_cell_length_c   18.83667000
_cell_angle_alpha   90.30794000
_cell_angle_beta   90.07167000
_cell_angle_gamma   119.81553000
_symmetry_Int_Tables_number   1
_chemical_formula_structural   Cr6H23C50N5(O9F)4
_chemical_formula_sum   'Cr6 H23 C50 N5 O36 F4'
_cell_volume   1946.89433222
_cell_formula_units_Z   1
loop_
 _symmetry_equiv_pos_site_id
 _symmetry_equiv_pos_as_xyz
  1  'x, y, z'
loop_
 _atom_site_type_symbol
 _atom_site_label
 _atom_site_symmetry_multiplicity
 _atom_site_fract_x
 _atom_site_fract_y
 _atom_site_fract_z
 _atom_site_occupancy
  Cr  Cr0  1  0.39790000  0.60707000  0.50223000  1
  Cr  Cr1  1  0.70860000  0.60176000  0.50126000  1
  Cr  Cr2  1  0.39347000  0.29120000  0.49646000  1
  Cr  Cr3  1  0.93854000  0.06238000  0.00764000  1
  Cr  Cr4  1  0.93745000  0.37485000  0.99452000  1
  Cr  Cr5  1  0.62508000  0.06201000  0.00119000  1
  H  H6  1  0.80557000  0.55588000  0.69187000  1
  H  H7  1  0.84597000  0.27357000  0.78753000  1
  H  H8  1  0.84356000  0.35048000  0.67452000  1
  H  H9  1  0.44878000  0.12211000  0.81511000  1
  H  H10  1  0.45523000  0.28638000  0.82570000  1
  H  H11  1  0.42311000  0.29174000  0.70857000  1
  H  H12  1  0.67674000  0.12186000  0.77782000  1
  H  H13  1  0.09270000  0.11859000  0.67358000  1
  H  H14  1  0.06213000  0.08888000  0.80311000  1
  H  H15  1  0.26785000  0.54061000  0.82969000  1
  H  H16  1  0.29209000  0.56866000  0.70346000  1
  H  H17  1  0.45930000  0.78936000  0.69366000  1
  H  H18  1  0.47514000  0.81960000  0.82298000  1
  H  H19  1  0.88944000  0.85815000  0.81716000  1
  H  H20  1  0.87985000  0.84585000  0.69020000  1
  H  H21  1  0.56429000  0.12117000  0.32173000  1
  H  H22  1  0.58505000  0.10038000  0.19568000  1
  H  H23  1  0.76628000  0.57356000  0.30262000  1
  H  H24  1  0.03802000  0.46600000  0.19781000  1
  H  H25  1  0.23461000  0.20892000  0.17660000  1
  H  H26  1  0.26425000  0.21361000  0.30413000  1
  H  H27  1  0.91524000  0.00724000  0.21111000  1
  H  H28  1  0.43748000  0.73278000  0.31362000  1
  C  C29  1  0.64785000  0.76665000  0.60884000  1
  C  C30  1  0.61640000  0.34938000  0.60367000  1
  C  C31  1  0.23136000  0.37381000  0.60406000  1
  C  C32  1  0.64902000  0.77976000  0.40207000  1
  C  C33  1  0.62419000  0.35832000  0.39259000  1
  C  C34  1  0.22650000  0.38064000  0.39572000  1
  C  C35  1  0.73249000  0.46781000  0.79821000  1
  C  C36  1  0.70472000  0.48081000  0.71827000  1
  C  C37  1  0.73572000  0.23803000  0.77018000  1
  C  C38  1  0.50609000  0.23371000  0.79731000  1
  C  C39  1  0.66646000  0.30728000  0.81594000  1
  C  C40  1  0.63576000  0.33314000  0.68028000  1
  C  C41  1  0.73465000  0.27141000  0.69112000  1
  C  C42  1  0.48701000  0.23924000  0.71701000  1
  C  C43  1  0.13159000  0.21043000  0.70774000  1
  C  C44  1  0.11636000  0.19372000  0.78133000  1
  C  C45  1  0.16225000  0.31236000  0.82578000  1
  C  C46  1  0.23178000  0.44730000  0.79665000  1
  C  C47  1  0.24350000  0.46334000  0.72417000  1
  C  C48  1  0.19384000  0.34602000  0.67888000  1
  C  C49  1  0.55474000  0.80909000  0.72064000  1
  C  C50  1  0.56214000  0.82151000  0.79433000  1
  C  C51  1  0.68277000  0.83935000  0.83017000  1
  C  C52  1  0.79508000  0.84520000  0.79127000  1
  C  C53  1  0.79063000  0.84077000  0.71811000  1
  C  C54  1  0.66826000  0.81755000  0.68208000  1
  C  C55  1  0.61493000  0.21614000  0.29005000  1
  C  C56  1  0.62448000  0.20515000  0.21777000  1
  C  C57  1  0.68273000  0.32593000  0.17439000  1
  C  C58  1  0.73989000  0.46112000  0.20511000  1
  C  C59  1  0.73063000  0.47079000  0.27873000  1
  C  C60  1  0.66459000  0.34828000  0.32062000  1
  C  C61  1  0.10054000  0.41254000  0.29453000  1
  C  C62  1  0.09170000  0.41497000  0.22128000  1
  C  C63  1  0.14280000  0.34449000  0.17868000  1
  C  C64  1  0.20001000  0.26810000  0.20913000  1
  C  C65  1  0.21218000  0.26728000  0.28195000  1
  C  C66  1  0.16775000  0.34364000  0.32487000  1
  C  C67  1  0.79798000  0.92330000  0.30469000  1
  C  C68  1  0.80998000  0.94475000  0.23273000  1
  C  C69  1  0.68891000  0.88402000  0.18884000  1
  C  C70  1  0.55303000  0.81313000  0.21818000  1
  C  C71  1  0.54198000  0.79568000  0.29119000  1
  C  C72  1  0.66423000  0.84261000  0.33349000  1
  C  C73  1  0.10366000  0.29819000  0.89665000  1
  C  C74  1  0.68417000  0.28121000  0.89072000  1
  C  C75  1  0.70891000  0.88572000  0.90414000  1
  C  C76  1  0.10418000  0.32457000  0.10486000  1
  C  C77  1  0.69229000  0.30114000  0.09929000  1
  C  C78  1  0.71266000  0.91317000  0.11435000  1
  N  N79  1  0.88516000  0.54960000  0.81405000  1
  N  N80  1  0.40572000  0.09521000  0.68777000  1
  N  N81  1  0.80001000  0.58716000  0.16302000  1
  N  N82  1  0.04236000  0.48069000  0.33717000  1
  N  N83  1  0.42716000  0.75160000  0.17510000  1
  O  O84  1  0.25557000  0.49257000  0.58142000  1
  O  O85  1  0.52739000  0.71981000  0.57891000  1
  O  O86  1  0.73974000  0.73969000  0.58458000  1
  O  O87  1  0.69515000  0.46775000  0.57383000  1
  O  O88  1  0.50343000  0.25507000  0.57638000  1
  O  O89  1  0.27639000  0.30075000  0.57195000  1
  O  O90  1  0.25640000  0.50098000  0.41985000  1
  O  O91  1  0.52816000  0.72760000  0.42914000  1
  O  O92  1  0.74057000  0.74809000  0.42302000  1
  O  O93  1  0.69592000  0.47554000  0.42406000  1
  O  O94  1  0.50426000  0.26347000  0.41481000  1
  O  O95  1  0.27716000  0.30854000  0.42218000  1
  O  O96  1  0.49999000  0.50001000  0.49998000  1
  O  O97  1  0.82561000  0.91051000  0.93061000  1
  O  O98  1  0.05454000  0.18163000  0.92988000  1
  O  O99  1  0.07731000  0.39413000  0.91553000  1
  O  O100  1  0.80670000  0.35356000  0.91757000  1
  O  O101  1  0.59329000  0.16280000  0.91525000  1
  O  O102  1  0.63537000  0.93467000  0.93159000  1
  O  O103  1  0.82879000  0.93170000  0.09186000  1
  O  O104  1  0.05748000  0.20127000  0.07937000  1
  O  O105  1  0.08048000  0.41532000  0.07679000  1
  O  O106  1  0.80964000  0.37321000  0.06705000  1
  O  O107  1  0.59646000  0.18399000  0.07650000  1
  O  O108  1  0.63831000  0.95432000  0.08107000  1
  O  O109  1  0.83369000  0.16641000  0.00112000  1
  O  O110  1  0.97663000  0.53479000  0.77607000  1
  O  O111  1  0.93143000  0.64475000  0.86419000  1
  O  O112  1  0.44209000  0.00135000  0.70137000  1
  O  O113  1  0.28549000  0.05477000  0.65602000  1
  O  O114  1  0.74672000  0.58749000  0.10122000  1
  O  O115  1  0.89781000  0.70614000  0.18975000  1
  O  O116  1  0.04801000  0.59625000  0.31546000  1
  O  O117  1  0.97526000  0.42259000  0.39553000  1
  O  O118  1  0.42097000  0.68491000  0.11656000  1
  O  O119  1  0.31271000  0.74678000  0.19865000  1
  F  F120  1  0.69454000  0.15204000  0.64975000  1
  F  F121  1  0.66476000  0.52266000  0.83917000  1
  F  F122  1  0.91653000  0.97465000  0.34539000  1
  F  F123  1  0.61486000  0.53572000  0.71183000  1
