# generated using pymatgen
data_H32C47(N4O)2
_symmetry_space_group_name_H-M   'P 1'
_cell_length_a   16.08885000
_cell_length_b   16.08890000
_cell_length_c   31.93230000
_cell_angle_alpha   90.03130000
_cell_angle_beta   89.96870000
_cell_angle_gamma   90.00000000
_symmetry_Int_Tables_number   1
_chemical_formula_structural   H32C47(N4O)2
_chemical_formula_sum   'H64 C94 N16 O4'
_cell_volume   8265.73402018
_cell_formula_units_Z   2
loop_
 _symmetry_equiv_pos_site_id
 _symmetry_equiv_pos_as_xyz
  1  'x, y, z'
loop_
 _atom_site_type_symbol
 _atom_site_label
 _atom_site_symmetry_multiplicity
 _atom_site_fract_x
 _atom_site_fract_y
 _atom_site_fract_z
 _atom_site_occupancy
  C  1  1  0.97355700  0.11683800  0.89679100  1
  C  2  1  0.04836900  0.15023200  0.91225500  1
  C  3  1  0.04879500  0.20057200  0.94823600  1
  C  4  1  0.97430700  0.22187200  0.96964000  1
  C  5  1  0.90110700  0.18003200  0.95613200  1
  C  6  1  0.89992900  0.13028500  0.91985600  1
  C  7  1  0.97179300  0.28041600  0.00747500  1
  C  8  1  0.96079200  0.21807000  0.04335100  1
  C  9  1  0.88527400  0.20721100  0.06587000  1
  C  10  1  0.88043100  0.15569200  0.10136700  1
  C  11  1  0.94940700  0.10819500  0.11397500  1
  C  12  1  0.02262100  0.11158700  0.08974900  1
  C  13  1  0.02733000  0.16430000  0.05470300  1
  C  14  1  0.04882300  0.33569400  0.01191900  1
  C  15  1  0.90364400  0.34676400  0.00516700  1
  C  16  1  0.88308800  0.39469100  0.04120600  1
  C  17  1  0.81629000  0.45100300  0.04136200  1
  C  18  1  0.76997300  0.46481900  0.00454100  1
  C  19  1  0.79481900  0.42477200  0.96740600  1
  C  20  1  0.86186900  0.36877200  0.96754800  1
  C  21  1  0.07721100  0.38428300  0.97751300  1
  C  22  1  0.14901100  0.43392900  0.98007600  1
  C  23  1  0.19334400  0.43978100  0.01805700  1
  C  24  1  0.16263900  0.39760700  0.05340700  1
  C  25  1  0.09087100  0.34820400  0.05055700  1
  C  46  1  0.11092900  0.95540000  0.39495400  1
  C  47  1  0.15729800  0.88771100  0.41011100  1
  C  48  1  0.20636700  0.89596900  0.44627800  1
  C  49  1  0.21584900  0.97354600  0.46711600  1
  C  50  1  0.16283300  0.03883800  0.45334000  1
  C  51  1  0.11273100  0.03085600  0.41744600  1
  C  52  1  0.27478700  0.98698900  0.50418500  1
  C  53  1  0.21301500  0.99035100  0.54066900  1
  C  54  1  0.18995200  0.06524000  0.56123100  1
  C  55  1  0.13781500  0.06526600  0.59657100  1
  C  56  1  0.10367600  0.99065300  0.61188800  1
  C  57  1  0.11900300  0.91656600  0.58951000  1
  C  58  1  0.17101500  0.91716000  0.55406000  1
  C  59  1  0.34138700  0.91955400  0.50859200  1
  C  60  1  0.33017700  0.06402400  0.50047400  1
  C  61  1  0.37641300  0.09218800  0.53574600  1
  C  62  1  0.42768000  0.16279300  0.53392600  1
  C  63  1  0.43712500  0.20660200  0.49600200  1
  C  64  1  0.39595500  0.17723200  0.46006700  1
  C  65  1  0.34555900  0.10596800  0.46206800  1
  C  66  1  0.39200700  0.89730300  0.47375200  1
  C  67  1  0.44827300  0.83054300  0.47557800  1
  C  68  1  0.45931300  0.78653000  0.51333600  1
  C  69  1  0.41733200  0.81394100  0.54944400  1
  C  70  1  0.36111700  0.88056400  0.54725800  1
  C  91  1  0.97612700  0.98404200  0.20691900  1
  C  92  1  0.04142700  0.93506300  0.22368600  1
  C  93  1  0.05285900  0.92845000  0.26783200  1
  C  94  1  0.99921000  0.97101100  0.29616700  1
  C  95  1  0.93151000  0.01543400  0.27881800  1
  C  96  1  0.92001000  0.02159900  0.23532300  1
  C  98  1  0.17303500  0.84289100  0.25583200  1
  C  99  1  0.16138500  0.84892300  0.21238400  1
  C  105  1  0.19262900  0.73103000  0.17255900  1
  C  109  1  0.97206400  0.00138000  0.16419100  1
  C  111  1  0.01355500  0.97837300  0.33931800  1
  C  113  1  0.00055800  0.96780800  0.71221300  1
  C  114  1  0.92681900  0.93604300  0.73055200  1
  C  115  1  0.90147700  0.96201700  0.77132800  1
  C  116  1  0.94999300  0.01944800  0.79464800  1
  C  117  1  0.02385300  0.04984700  0.77599300  1
  C  118  1  0.04881500  0.02425200  0.73593000  1
  C  120  1  0.78104400  0.87507600  0.76584400  1
  C  121  1  0.80633500  0.84872200  0.72586300  1
  C  127  1  0.78686800  0.71103800  0.70459000  1
  C  131  1  0.02772500  0.94296600  0.67277300  1
  C  133  1  0.92469400  0.04903400  0.83373100  1
  C  135  1  0.57096300  0.55057100  0.02487100  1
  C  136  1  0.52663600  0.61693700  0.00637000  1
  C  137  1  0.43949400  0.60972300  0.99908900  1
  C  138  1  0.39607000  0.53622300  0.01042500  1
  C  139  1  0.44157600  0.47155500  0.02995100  1
  C  140  1  0.52703400  0.47879700  0.03737900  1
  C  142  1  0.43961900  0.74601300  0.96899700  1
  C  143  1  0.52532400  0.75350600  0.97668400  1
  C  149  1  0.58438200  0.87863700  0.99904200  1
  C  153  1  0.65628800  0.54961800  0.02868600  1
  C  155  1  0.31303300  0.52340300  0.99991100  1
  C  157  1  0.53597100  0.40339100  0.51006000  1
  C  158  1  0.61039900  0.44371800  0.49792500  1
  C  159  1  0.61210200  0.53168500  0.49246100  1
  C  160  1  0.53980700  0.57996300  0.49981400  1
  C  161  1  0.46643000  0.53845900  0.51260000  1
  C  162  1  0.46478900  0.45224300  0.51812700  1
  C  164  1  0.75516500  0.52311700  0.47249600  1
  C  165  1  0.75397900  0.43653800  0.47846200  1
  C  171  1  0.86866000  0.36892000  0.50764900  1
  C  175  1  0.52926300  0.31817700  0.51416900  1
  C  177  1  0.53637400  0.66464700  0.49165900  1
  H  26  1  0.79829100  0.47698400  0.06916200  1
  H  27  1  0.91289900  0.38401900  0.06897100  1
  H  28  1  0.76158200  0.43276800  0.94035200  1
  H  29  1  0.87735700  0.34182200  0.93968000  1
  H  30  1  0.04768100  0.38050600  0.94921600  1
  H  31  1  0.17056300  0.46247200  0.95361000  1
  H  32  1  0.19364200  0.40071600  0.08138100  1
  H  33  1  0.07063900  0.32042000  0.07742000  1
  H  34  1  0.08276100  0.16748400  0.03908600  1
  H  35  1  0.07462700  0.07989800  0.09898700  1
  H  36  1  0.82671500  0.15462400  0.11857600  1
  H  37  1  0.83293600  0.23920000  0.05776900  1
  H  38  1  0.84608600  0.18958100  0.97147300  1
  H  39  1  0.10496700  0.22261000  0.95810600  1
  H  40  1  0.10310000  0.14044700  0.89659100  1
  H  45  1  0.84463300  0.10603100  0.90991100  1
  H  71  1  0.45426600  0.18440200  0.56091500  1
  H  72  1  0.37006100  0.06315400  0.56405600  1
  H  73  1  0.40104300  0.20857800  0.43227400  1
  H  74  1  0.31920300  0.08607400  0.43478500  1
  H  75  1  0.38292900  0.92524700  0.44535500  1
  H  76  1  0.47551200  0.81033300  0.44848300  1
  H  77  1  0.42324400  0.78228400  0.57711800  1
  H  78  1  0.33210500  0.89758500  0.57436800  1
  H  79  1  0.18229300  0.86173300  0.53941000  1
  H  80  1  0.09533800  0.86118900  0.59969100  1
  H  81  1  0.12716100  0.12021400  0.61189400  1
  H  82  1  0.21266700  0.12123000  0.55148500  1
  H  83  1  0.16461300  0.09547000  0.46788400  1
  H  84  1  0.23753900  0.84438300  0.45621200  1
  H  85  1  0.15734000  0.83232100  0.39427800  1
  H  90  1  0.08157900  0.08184200  0.40649700  1
  H  101  1  0.22148300  0.80999400  0.26814200  1
  H  102  1  0.87201900  0.05758400  0.22459700  1
  H  103  1  0.89129400  0.04750800  0.29777000  1
  H  106  1  0.23895300  0.70806300  0.15046500  1
  H  107  1  0.13212000  0.73031000  0.15699800  1
  H  108  1  0.19138900  0.68895500  0.19943100  1
  H  110  1  0.99625900  0.96169200  0.14361300  1
  H  112  1  0.97553600  0.01307000  0.35666700  1
  H  123  1  0.72739100  0.85349200  0.77903100  1
  H  124  1  0.10320000  0.04785200  0.72421700  1
  H  125  1  0.06051400  0.09221000  0.79122800  1
  H  128  1  0.74528000  0.67319000  0.68553500  1
  H  129  1  0.78520300  0.68712600  0.73662600  1
  H  130  1  0.84973900  0.70472400  0.69196900  1
  H  132  1  0.02120900  0.88394800  0.66421800  1
  H  134  1  0.86444500  0.05132200  0.84043200  1
  H  145  1  0.40706600  0.79298800  0.95510500  1
  H  146  1  0.55759800  0.42916800  0.05036300  1
  H  147  1  0.41364800  0.41648600  0.03775800  1
  H  150  1  0.61780400  0.93234900  0.98680800  1
  H  151  1  0.62324600  0.84929700  0.02290800  1
  H  152  1  0.52671700  0.90072400  0.01336900  1
  H  154  1  0.68230700  0.57240800  0.05444000  1
  H  156  1  0.29078000  0.54747700  0.97355100  1
  H  167  1  0.80796400  0.55283100  0.46295700  1
  H  168  1  0.40988600  0.42525100  0.52712800  1
  H  169  1  0.41209000  0.57039200  0.51724700  1
  H  172  1  0.92224100  0.33159800  0.49849200  1
  H  173  1  0.83123000  0.33239600  0.52951400  1
  H  174  1  0.89146500  0.42484400  0.52336000  1
  H  176  1  0.56184000  0.28889500  0.53608700  1
  H  178  1  0.55895800  0.68639600  0.46485200  1
  N  41  1  0.69476600  0.49796600  0.00495100  1
  N  42  1  0.26829300  0.47288100  0.02142000  1
  N  43  1  0.97743800  0.07951800  0.85979200  1
  N  44  1  0.94847300  0.07344500  0.15155200  1
  N  86  1  0.46984400  0.28184500  0.49451500  1
  N  87  1  0.48981900  0.71043500  0.51479500  1
  N  88  1  0.07923300  0.94932400  0.35682400  1
  N  89  1  0.06580300  0.99453900  0.64874400  1
  N  97  1  0.11876500  0.88252600  0.28137600  1
  N  100  1  0.09706300  0.89564800  0.19827200  1
  N  119  1  0.82939000  0.92998200  0.78689400  1
  N  122  1  0.87743900  0.88100600  0.70974600  1
  N  141  1  0.40028800  0.67503300  0.98047300  1
  N  144  1  0.56553700  0.68826800  0.99447700  1
  N  163  1  0.68476800  0.56713900  0.47981200  1
  N  166  1  0.68146800  0.40028800  0.49033700  1
  O  104  1  0.21595500  0.81377600  0.18480600  1
  O  126  1  0.75854500  0.79567500  0.70273300  1
  O  148  1  0.56804900  0.82295600  0.96479400  1
  O  170  1  0.82263000  0.38920300  0.47046400  1
