# generated using pymatgen
data_VH10(C4O)5
_symmetry_space_group_name_H-M   'P 1'
_cell_length_a   7.22334000
_cell_length_b   12.14010000
_cell_length_c   29.09774000
_cell_angle_alpha   90.00063000
_cell_angle_beta   89.98642000
_cell_angle_gamma   89.76657000
_symmetry_Int_Tables_number   1
_chemical_formula_structural   VH10(C4O)5
_chemical_formula_sum   'V4 H40 C80 O20'
_cell_volume   2551.61980251
_cell_formula_units_Z   4
loop_
 _symmetry_equiv_pos_site_id
 _symmetry_equiv_pos_as_xyz
  1  'x, y, z'
loop_
 _atom_site_type_symbol
 _atom_site_label
 _atom_site_symmetry_multiplicity
 _atom_site_fract_x
 _atom_site_fract_y
 _atom_site_fract_z
 _atom_site_occupancy
  V  V0  1  0.79420000  0.76286000  0.75000000  1
  V  V1  1  0.20580000  0.23714000  0.25000000  1
  V  V2  1  0.29420000  0.73714000  0.75000000  1
  V  V3  1  0.70580000  0.26286000  0.25000000  1
  H  H4  1  0.03697000  0.22462000  0.54493000  1
  H  H5  1  0.96303000  0.77538000  0.45507000  1
  H  H6  1  0.96562000  0.77548000  0.04496000  1
  H  H7  1  0.03438000  0.22452000  0.95504000  1
  H  H8  1  0.46152000  0.27507000  0.95478000  1
  H  H9  1  0.53848000  0.72493000  0.04522000  1
  H  H10  1  0.53607000  0.72482000  0.45478000  1
  H  H11  1  0.46393000  0.27518000  0.54522000  1
  H  H12  1  0.96310000  0.60964000  0.30886000  1
  H  H13  1  0.03690000  0.39036000  0.69114000  1
  H  H14  1  0.03511000  0.39030000  0.80884000  1
  H  H15  1  0.96489000  0.60970000  0.19116000  1
  H  H16  1  0.51715000  0.89070000  0.19137000  1
  H  H17  1  0.48285000  0.10930000  0.80863000  1
  H  H18  1  0.48449000  0.10938000  0.69138000  1
  H  H19  1  0.51551000  0.89062000  0.30863000  1
  H  H20  1  0.04217000  0.26094000  0.62656000  1
  H  H21  1  0.95783000  0.73906000  0.37344000  1
  H  H22  1  0.96040000  0.73916000  0.12658000  1
  H  H23  1  0.03960000  0.26084000  0.87341000  1
  H  H24  1  0.46525000  0.23864000  0.87315000  1
  H  H25  1  0.53475000  0.76136000  0.12686000  1
  H  H26  1  0.53239000  0.76125000  0.37314000  1
  H  H27  1  0.46761000  0.23875000  0.62686000  1
  H  H28  1  0.02585000  0.28350000  0.46742000  1
  H  H29  1  0.97415000  0.71650000  0.53258000  1
  H  H30  1  0.97608000  0.71659000  0.96744000  1
  H  H31  1  0.02392000  0.28341000  0.03256000  1
  H  H32  1  0.46887000  0.21647000  0.03236000  1
  H  H33  1  0.53113000  0.78353000  0.96764000  1
  H  H34  1  0.52933000  0.78344000  0.53235000  1
  H  H35  1  0.47067000  0.21656000  0.46765000  1
  H  H36  1  0.01466000  0.33762000  0.40044000  1
  H  H37  1  0.98534000  0.66238000  0.59956000  1
  H  H38  1  0.98659000  0.66246000  0.90046000  1
  H  H39  1  0.01341000  0.33754000  0.09954000  1
  H  H40  1  0.47611000  0.16253000  0.09938000  1
  H  H41  1  0.52389000  0.83747000  0.90062000  1
  H  H42  1  0.52277000  0.83741000  0.59938000  1
  H  H43  1  0.47723000  0.16259000  0.40062000  1
  C  C44  1  0.51397000  0.88777000  0.68667000  1
  C  C45  1  0.48603000  0.11223000  0.31332000  1
  C  C46  1  0.48606000  0.11223000  0.18668000  1
  C  C47  1  0.51394000  0.88777000  0.81332000  1
  C  C48  1  0.01454000  0.61219000  0.81334000  1
  C  C49  1  0.98546000  0.38781000  0.18666000  1
  C  C50  1  0.98543000  0.38781000  0.31334000  1
  C  C51  1  0.01457000  0.61219000  0.68666000  1
  C  C52  1  0.00880000  0.53441000  0.64829000  1
  C  C53  1  0.99120000  0.46559000  0.35171000  1
  C  C54  1  0.99136000  0.46558000  0.14829000  1
  C  C55  1  0.00864000  0.53442000  0.85171000  1
  C  C56  1  0.50491000  0.96532000  0.85172000  1
  C  C57  1  0.49509000  0.03467000  0.14828000  1
  C  C58  1  0.49493000  0.03467000  0.35172000  1
  C  C59  1  0.50507000  0.96533000  0.64828000  1
  C  C60  1  0.02911000  0.34834000  0.61957000  1
  C  C61  1  0.97089000  0.65166000  0.38043000  1
  C  C62  1  0.97260000  0.65171000  0.11959000  1
  C  C63  1  0.02740000  0.34829000  0.88042000  1
  C  C64  1  0.47825000  0.15128000  0.88024000  1
  C  C65  1  0.52175000  0.84872000  0.11976000  1
  C  C66  1  0.52017000  0.84865000  0.38024000  1
  C  C67  1  0.47983000  0.15135000  0.61976000  1
  C  C68  1  0.02566000  0.42157000  0.65636000  1
  C  C69  1  0.97434000  0.57843000  0.34364000  1
  C  C70  1  0.97560000  0.57846000  0.15638000  1
  C  C71  1  0.02440000  0.42154000  0.84362000  1
  C  C72  1  0.48825000  0.07809000  0.84349000  1
  C  C73  1  0.51175000  0.92191000  0.15651000  1
  C  C74  1  0.51058000  0.92186000  0.34349000  1
  C  C75  1  0.48942000  0.07814000  0.65651000  1
  C  C76  1  0.99648000  0.57436000  0.60328000  1
  C  C77  1  0.00352000  0.42564000  0.39672000  1
  C  C78  1  0.00306000  0.42560000  0.10327000  1
  C  C79  1  0.99693000  0.57440000  0.89673000  1
  C  C80  1  0.51126000  0.92540000  0.89681000  1
  C  C81  1  0.48874000  0.07460000  0.10319000  1
  C  C82  1  0.48915000  0.07462000  0.39681000  1
  C  C83  1  0.51085000  0.92537000  0.60319000  1
  C  C84  1  0.00272000  0.50194000  0.56507000  1
  C  C85  1  0.99728000  0.49806000  0.43493000  1
  C  C86  1  0.99736000  0.49805000  0.06507000  1
  C  C87  1  0.00264000  0.50195000  0.93493000  1
  C  C88  1  0.50084000  0.99786000  0.93494000  1
  C  C89  1  0.49916000  0.00214000  0.06506000  1
  C  C90  1  0.49907000  0.00214000  0.43494000  1
  C  C91  1  0.50093000  0.99786000  0.56506000  1
  C  C92  1  0.01850000  0.38734000  0.57420000  1
  C  C93  1  0.98150000  0.61265000  0.42580000  1
  C  C94  1  0.98267000  0.61269000  0.07421000  1
  C  C95  1  0.01733000  0.38731000  0.92579000  1
  C  C96  1  0.48443000  0.11237000  0.92568000  1
  C  C97  1  0.51557000  0.88763000  0.07432000  1
  C  C98  1  0.51448000  0.88759000  0.42567000  1
  C  C99  1  0.48552000  0.11241000  0.57433000  1
  C  C100  1  0.99574000  0.53924000  0.51836000  1
  C  C101  1  0.00426000  0.46076000  0.48164000  1
  C  C102  1  0.00393000  0.46074000  0.01836000  1
  C  C103  1  0.99607000  0.53926000  0.98164000  1
  C  C104  1  0.50577000  0.96072000  0.98168000  1
  C  C105  1  0.49423000  0.03928000  0.01832000  1
  C  C106  1  0.49453000  0.03929000  0.48168000  1
  C  C107  1  0.50547000  0.96071000  0.51832000  1
  C  C108  1  0.01872000  0.34770000  0.49285000  1
  C  C109  1  0.98128000  0.65230000  0.50715000  1
  C  C110  1  0.98266000  0.65236000  0.99286000  1
  C  C111  1  0.01734000  0.34764000  0.00714000  1
  C  C112  1  0.47840000  0.15222000  0.00700000  1
  C  C113  1  0.52161000  0.84778000  0.99300000  1
  C  C114  1  0.52032000  0.84772000  0.50699000  1
  C  C115  1  0.47968000  0.15228000  0.49301000  1
  C  C116  1  0.02523000  0.31221000  0.53812000  1
  C  C117  1  0.97477000  0.68780000  0.46188000  1
  C  C118  1  0.97654000  0.68786000  0.03813000  1
  C  C119  1  0.02346000  0.31214000  0.96187000  1
  C  C120  1  0.47394000  0.18755000  0.96169000  1
  C  C121  1  0.52606000  0.81244000  0.03831000  1
  C  C122  1  0.52441000  0.81237000  0.46168000  1
  C  C123  1  0.47559000  0.18763000  0.53832000  1
  O  O124  1  0.35283000  0.84918000  0.79878000  1
  O  O125  1  0.64717000  0.15082000  0.20122000  1
  O  O126  1  0.64717000  0.15082000  0.29878000  1
  O  O127  1  0.35283000  0.84918000  0.70122000  1
  O  O128  1  0.85283000  0.65082000  0.70122000  1
  O  O129  1  0.14717000  0.34918000  0.29878000  1
  O  O130  1  0.14717000  0.34918000  0.20122000  1
  O  O131  1  0.85283000  0.65082000  0.79878000  1
  O  O132  1  0.68257000  0.86221000  0.70155000  1
  O  O133  1  0.31743000  0.13779000  0.29845000  1
  O  O134  1  0.31743000  0.13779000  0.20155000  1
  O  O135  1  0.68257000  0.86221000  0.79845000  1
  O  O136  1  0.18257000  0.63779000  0.79845000  1
  O  O137  1  0.81743000  0.36221000  0.20155000  1
  O  O138  1  0.81743000  0.36221000  0.29845000  1
  O  O139  1  0.18257000  0.63779000  0.70155000  1
  O  O140  1  0.51937000  0.68063000  0.75000000  1
  O  O141  1  0.48063000  0.31937000  0.25000000  1
  O  O142  1  0.01937000  0.81937000  0.75000000  1
  O  O143  1  0.98063000  0.18063000  0.25000000  1
