# generated using pymatgen
data_H7C14(NO)2
_symmetry_space_group_name_H-M   'P 1'
_cell_length_a   9.91093333
_cell_length_b   95.68570000
_cell_length_c   95.68570000
_cell_angle_alpha   120.00000000
_cell_angle_beta   90.00000000
_cell_angle_gamma   90.00000000
_symmetry_Int_Tables_number   1
_chemical_formula_structural   H7C14(NO)2
_chemical_formula_sum   'H126 C252 N36 O36'
_cell_volume   78584.92865631
_cell_formula_units_Z   18
loop_
 _symmetry_equiv_pos_site_id
 _symmetry_equiv_pos_as_xyz
  1  'x, y, z'
loop_
 _atom_site_type_symbol
 _atom_site_label
 _atom_site_symmetry_multiplicity
 _atom_site_fract_x
 _atom_site_fract_y
 _atom_site_fract_z
 _atom_site_occupancy
  C  1  1  0.98215500  0.89827800  0.44775100  1
  C  2  1  0.97163300  0.79892500  0.44473100  1
  C  3  1  0.97923000  0.79420500  0.35756600  1
  C  4  1  0.02044000  0.78322800  0.43415600  1
  C  5  1  0.94622600  0.77409400  0.45280900  1
  C  6  1  0.89848600  0.78992400  0.46334600  1
  C  7  1  0.91089100  0.80220200  0.45939300  1
  C  8  1  0.97893800  0.90832400  0.46470500  1
  C  9  1  0.98922400  0.92523800  0.47179100  1
  C  10  1  0.00334900  0.93253600  0.46213400  1
  C  11  1  0.00543800  0.92235600  0.44516000  1
  C  12  1  0.99454000  0.90548100  0.43804500  1
  C  13  1  0.99674000  0.79486800  0.34326100  1
  C  14  1  0.00781400  0.78051200  0.32823700  1
  C  15  1  0.00238900  0.76525300  0.32724200  1
  C  16  1  0.98345300  0.76473200  0.34162400  1
  C  17  1  0.97152700  0.77900800  0.35659600  1
  C  29  1  0.97481200  0.82623200  0.40146200  1
  C  30  1  0.97485100  0.84328400  0.40967000  1
  C  31  1  0.97553700  0.85226000  0.42675800  1
  C  32  1  0.97657500  0.84401200  0.43559000  1
  C  33  1  0.97686400  0.82696500  0.42746600  1
  C  34  1  0.97586600  0.81818300  0.41044200  1
  C  39  1  0.97551700  0.80722000  0.37178100  1
  C  40  1  0.97448900  0.81746400  0.38571300  1
  C  41  1  0.97599700  0.80994000  0.44048400  1
  C  42  1  0.97723400  0.81894400  0.43521600  1
  C  43  1  0.97591000  0.86808100  0.43433200  1
  C  44  1  0.97758600  0.88251800  0.44099900  1
  C  45  1  0.02349300  0.75094800  0.31292000  1
  C  46  1  0.02366900  0.94905100  0.46874400  1
  C  47  1  0.92497700  0.76198000  0.45660000  1
  C  48  1  0.00808600  0.77099800  0.43817500  1
  C  52  1  0.98230300  0.53825100  0.09274000  1
  C  53  1  0.97142600  0.63457700  0.19209900  1
  C  54  1  0.97918100  0.55211100  0.19680000  1
  C  55  1  0.02023500  0.63970100  0.20779600  1
  C  56  1  0.94607600  0.66749000  0.21692500  1
  C  57  1  0.89838500  0.66219600  0.20109300  1
  C  58  1  0.91075600  0.64596300  0.18881700  1
  C  59  1  0.97768600  0.54514600  0.08268800  1
  C  60  1  0.98796600  0.53532000  0.06577200  1
  C  61  1  0.00372800  0.51838400  0.05848200  1
  C  62  1  0.00734500  0.51160800  0.06867400  1
  C  63  1  0.99624100  0.52136000  0.08554700  1
  C  64  1  0.99715400  0.53714700  0.19613400  1
  C  65  1  0.00828300  0.53647600  0.21048700  1
  C  66  1  0.00235000  0.55073100  0.22574900  1
  C  67  1  0.98317600  0.56563300  0.22627300  1
  C  68  1  0.97123400  0.56633200  0.21199900  1
  C  80  1  0.97480000  0.56399900  0.16478400  1
  C  81  1  0.97486700  0.55515700  0.14773200  1
  C  82  1  0.97553300  0.56327200  0.13876100  1
  C  83  1  0.97652100  0.58035300  0.14701100  1
  C  84  1  0.97678400  0.58927300  0.16405800  1
  C  85  1  0.97581000  0.58102600  0.17283600  1
  C  90  1  0.97551600  0.55331900  0.18378900  1
  C  91  1  0.97449700  0.55701400  0.17355000  1
  C  92  1  0.97583500  0.61931500  0.18108600  1
  C  93  1  0.97711200  0.60504400  0.17208200  1
  C  94  1  0.97593600  0.55502900  0.12293900  1
  C  95  1  0.97766100  0.54726100  0.10850100  1
  C  96  1  0.02349800  0.55071800  0.24005400  1
  C  97  1  0.02430600  0.50849600  0.04196900  1
  C  98  1  0.92488600  0.68339800  0.22903700  1
  C  99  1  0.00780900  0.65595000  0.22002600  1
  C  103  1  0.98214100  0.54326300  0.45277500  1
  C  104  1  0.97146600  0.54629700  0.35644700  1
  C  105  1  0.97904900  0.63346100  0.43891200  1
  C  106  1  0.02034500  0.55686500  0.35132100  1
  C  107  1  0.94617600  0.53820600  0.32353300  1
  C  108  1  0.89848600  0.52766800  0.32882600  1
  C  109  1  0.91084000  0.53162500  0.34506000  1
  C  110  1  0.97904900  0.52630900  0.44586500  1
  C  111  1  0.98925400  0.51922300  0.45569500  1
  C  112  1  0.00333300  0.52888100  0.47265100  1
  C  113  1  0.00533600  0.54585500  0.47944500  1
  C  114  1  0.99436400  0.55297000  0.46968600  1
  C  115  1  0.99731100  0.64775300  0.45387100  1
  C  116  1  0.00834400  0.66278000  0.45454500  1
  C  117  1  0.00226900  0.66378700  0.44029100  1
  C  118  1  0.98277000  0.64941600  0.42539300  1
  C  119  1  0.97085500  0.63444200  0.42469400  1
  C  131  1  0.97483000  0.58955500  0.42702200  1
  C  132  1  0.97486200  0.58134600  0.43586500  1
  C  133  1  0.97553300  0.56426000  0.42775200  1
  C  134  1  0.97656100  0.55542900  0.41067200  1
  C  135  1  0.97684900  0.56355500  0.40175000  1
  C  136  1  0.97586600  0.58057900  0.40999500  1
  C  141  1  0.97544700  0.61924000  0.43770100  1
  C  142  1  0.97448300  0.60530500  0.43400600  1
  C  143  1  0.97590200  0.55054100  0.37170900  1
  C  144  1  0.97718700  0.55580600  0.38597900  1
  C  145  1  0.97590500  0.55668400  0.43599700  1
  C  146  1  0.97757600  0.55001600  0.44376700  1
  C  147  1  0.02361400  0.67810100  0.44030100  1
  C  148  1  0.02368000  0.52226900  0.48255400  1
  C  149  1  0.92497700  0.53441100  0.30762600  1
  C  150  1  0.00789900  0.55284800  0.33507300  1
  C  154  1  0.97268700  0.08827300  0.54777500  1
  C  155  1  0.97755100  0.18763200  0.55076800  1
  C  156  1  0.98469400  0.19230200  0.63787700  1
  C  157  1  0.02625300  0.20333900  0.56132200  1
  C  158  1  0.95004000  0.21248200  0.54274400  1
  C  159  1  0.90228500  0.19664600  0.53223500  1
  C  160  1  0.91577500  0.18435700  0.53615800  1
  C  161  1  0.02166200  0.07786900  0.53203100  1
  C  162  1  0.00804100  0.06097800  0.52490300  1
  C  163  1  0.94490500  0.05401800  0.53327300  1
  C  164  1  0.89707900  0.06461400  0.54909200  1
  C  165  1  0.91078600  0.08146000  0.55626500  1
  C  166  1  0.00242000  0.19167400  0.65219700  1
  C  167  1  0.01217300  0.20605000  0.66722200  1
  C  168  1  0.00515500  0.22129700  0.66820600  1
  C  169  1  0.98605000  0.22177800  0.65380400  1
  C  170  1  0.97547700  0.20748100  0.63883000  1
  C  182  1  0.98381600  0.16027500  0.59397700  1
  C  183  1  0.98441700  0.14322400  0.58576500  1
  C  184  1  0.98576700  0.13425600  0.56867800  1
  C  185  1  0.98620300  0.14251000  0.55985100  1
  C  186  1  0.98590900  0.15955800  0.56798200  1
  C  187  1  0.98470900  0.16833100  0.58500600  1
  C  192  1  0.98238900  0.17927800  0.62366000  1
  C  193  1  0.98251100  0.16903600  0.60972800  1
  C  194  1  0.98307900  0.17660300  0.55499000  1
  C  195  1  0.98535000  0.16758700  0.56024000  1
  C  196  1  0.98481100  0.11843600  0.56110100  1
  C  197  1  0.98129900  0.10400400  0.55446100  1
  C  198  1  0.02499100  0.23563900  0.68253300  1
  C  199  1  0.92332700  0.03744100  0.52639100  1
  C  200  1  0.92794300  0.22460000  0.53898000  1
  C  201  1  0.01276200  0.21558200  0.55733500  1
  C  205  1  0.97257600  0.44825500  0.90273100  1
  C  206  1  0.97747400  0.35189400  0.80337000  1
  C  207  1  0.98463400  0.43437400  0.79873000  1
  C  208  1  0.02623200  0.34673400  0.78766400  1
  C  209  1  0.95004000  0.31901500  0.77853200  1
  C  210  1  0.90238500  0.32434400  0.79437200  1
  C  211  1  0.91579500  0.34056000  0.80665400  1
  C  212  1  0.02114200  0.44289100  0.91313200  1
  C  213  1  0.00750100  0.45265300  0.93002300  1
  C  214  1  0.94485000  0.46801100  0.93698700  1
  C  215  1  0.89741200  0.47325700  0.92639400  1
  C  216  1  0.91115900  0.46358500  0.90954700  1
  C  217  1  0.00318700  0.44931900  0.79937500  1
  C  218  1  0.01299400  0.44998800  0.78501000  1
  C  219  1  0.00535500  0.43574100  0.76975500  1
  C  220  1  0.98555700  0.42085900  0.76925300  1
  C  221  1  0.97476100  0.42016800  0.78354100  1
  C  233  1  0.98375100  0.42246300  0.83073000  1
  C  234  1  0.98431000  0.43129800  0.84778200  1
  C  235  1  0.98561900  0.42317800  0.85674800  1
  C  236  1  0.98608300  0.40609600  0.84849100  1
  C  237  1  0.98584900  0.39718200  0.83144200  1
  C  238  1  0.98465900  0.40543600  0.82267200  1
  C  243  1  0.98233900  0.43315900  0.81174000  1
  C  244  1  0.98246000  0.42945600  0.82197400  1
  C  245  1  0.98301500  0.36714500  0.81439800  1
  C  246  1  0.98529300  0.38141100  0.82341200  1
  C  247  1  0.98464300  0.43141800  0.87256700  1
  C  248  1  0.98113800  0.43920900  0.88699900  1
  C  249  1  0.02567300  0.43573300  0.75542500  1
  C  250  1  0.92317100  0.47770100  0.95356200  1
  C  251  1  0.92806000  0.30312600  0.76642100  1
  C  252  1  0.01271100  0.33050300  0.77542500  1
  C  256  1  0.97264200  0.44323700  0.54274500  1
  C  257  1  0.97762700  0.44024400  0.63911000  1
  C  258  1  0.98468300  0.35311800  0.55662700  1
  C  259  1  0.02639500  0.42969600  0.64426700  1
  C  260  1  0.95003000  0.44826800  0.67198300  1
  C  261  1  0.90232500  0.45877800  0.66665500  1
  C  262  1  0.91580100  0.45485200  0.65044200  1
  C  263  1  0.02164100  0.45898100  0.54808400  1
  C  264  1  0.00800500  0.46610900  0.53832100  1
  C  265  1  0.94485500  0.45774100  0.52299300  1
  C  266  1  0.89696200  0.44192500  0.51777300  1
  C  267  1  0.91068500  0.43475100  0.52744600  1
  C  268  1  0.00319800  0.33882000  0.54167900  1
  C  269  1  0.01310400  0.32378600  0.54100900  1
  C  270  1  0.00542800  0.32277500  0.55525300  1
  C  271  1  0.98550700  0.33715200  0.57013600  1
  C  272  1  0.97471900  0.35213300  0.57083100  1
  C  284  1  0.98373100  0.39703100  0.56853900  1
  C  285  1  0.98434100  0.40524700  0.55970400  1
  C  286  1  0.98570300  0.42233300  0.56782400  1
  C  287  1  0.98614200  0.43115800  0.58490500  1
  C  288  1  0.98583400  0.42302400  0.59382000  1
  C  289  1  0.98462800  0.40600000  0.58556600  1
  C  294  1  0.98232300  0.36734400  0.55784400  1
  C  295  1  0.98242900  0.38128100  0.56154600  1
  C  296  1  0.98308000  0.43601900  0.62385800  1
  C  297  1  0.98530500  0.43076500  0.60959000  1
  C  298  1  0.98474600  0.42991200  0.55958200  1
  C  299  1  0.98124400  0.43655100  0.55179000  1
  C  300  1  0.02592000  0.30845500  0.55526000  1
  C  301  1  0.92331300  0.46462000  0.51329400  1
  C  302  1  0.92793300  0.45203300  0.68786600  1
  C  303  1  0.01291400  0.43368600  0.66049700  1
  C  307  1  0.98343300  0.01042000  0.50657700  1
  C  308  1  0.10137700  0.00118600  0.49951300  1
  C  309  1  0.09387400  0.98410000  0.49108200  1
  C  310  1  0.97071500  0.97588200  0.48927800  1
  C  311  1  0.85276900  0.98509500  0.49632800  1
  C  313  1  0.86023500  0.00217400  0.50471300  1
  C  323  1  0.98337200  0.48491000  0.98058300  1
  C  324  1  0.10130200  0.48704600  0.98980900  1
  C  325  1  0.09388700  0.49569800  0.00689500  1
  C  326  1  0.97083100  0.50214600  0.01512600  1
  C  327  1  0.85289400  0.50001800  0.00592000  1
  C  329  1  0.86027200  0.49132600  0.98884000  1
  C  339  1  0.98341400  0.48443700  0.50609100  1
  C  340  1  0.10136200  0.49149900  0.50391900  1
  C  341  1  0.09386000  0.49993100  0.49526500  1
  C  342  1  0.97070500  0.50173600  0.48885200  1
  C  343  1  0.85275000  0.49468700  0.49101500  1
  C  345  1  0.86021500  0.48630300  0.49971000  1
  C  355  1  0.97625900  0.73439700  0.28519000  1
  C  356  1  0.85806500  0.72808000  0.27578900  1
  C  357  1  0.86492700  0.71325400  0.26105100  1
  C  358  1  0.98756300  0.70466700  0.25536000  1
  C  359  1  0.10621500  0.71114800  0.26461900  1
  C  361  1  0.09949700  0.72601200  0.27930200  1
  C  371  1  0.97619800  0.53955900  0.25662200  1
  C  372  1  0.85800100  0.53649300  0.26295300  1
  C  373  1  0.86491200  0.53658300  0.27778000  1
  C  374  1  0.98760000  0.53946300  0.28635400  1
  C  375  1  0.10624700  0.54222400  0.27985900  1
  C  377  1  0.09948400  0.54204000  0.26499400  1
  C  387  1  0.97622300  0.70582500  0.45144800  1
  C  388  1  0.85803100  0.71522400  0.45452000  1
  C  389  1  0.86493300  0.72996300  0.45443100  1
  C  390  1  0.98761400  0.73565500  0.45154700  1
  C  391  1  0.10625500  0.72639700  0.44877900  1
  C  393  1  0.09949600  0.71171500  0.44896100  1
  C  403  1  0.97913900  0.25206600  0.71029100  1
  C  404  1  0.86101300  0.25838900  0.71970200  1
  C  405  1  0.86800000  0.27321900  0.73443800  1
  C  406  1  0.99069700  0.28179800  0.74011200  1
  C  407  1  0.10927300  0.27530500  0.73083900  1
  C  409  1  0.10243000  0.26044000  0.71615900  1
  C  419  1  0.97912900  0.44698300  0.73893700  1
  C  420  1  0.86094300  0.45003300  0.73259200  1
  C  421  1  0.86792900  0.44993900  0.71776300  1
  C  422  1  0.99068400  0.44706900  0.70920200  1
  C  423  1  0.10931200  0.44432500  0.71571300  1
  C  425  1  0.10246600  0.44451100  0.73057800  1
  C  435  1  0.97917000  0.28072300  0.54403300  1
  C  436  1  0.86097300  0.27133000  0.54098500  1
  C  437  1  0.86794500  0.25659500  0.54108000  1
  C  438  1  0.99069400  0.25090300  0.54395000  1
  C  439  1  0.10933200  0.26015600  0.54669200  1
  C  441  1  0.10250100  0.27483400  0.54650400  1
  H  18  1  0.85190600  0.79264100  0.47396800  1
  H  19  1  0.87278300  0.81342300  0.46719200  1
  H  20  1  0.04167500  0.75966900  0.43004900  1
  H  21  1  0.99807200  0.89854200  0.42570900  1
  H  22  1  0.97135000  0.90344300  0.47207500  1
  H  23  1  0.98984700  0.93215500  0.48411300  1
  H  24  1  0.01659800  0.92714200  0.43774800  1
  H  25  1  0.00442900  0.80574000  0.34366000  1
  H  26  1  0.98009700  0.75391000  0.34138400  1
  H  27  1  0.96012000  0.77811300  0.36677700  1
  H  28  1  0.02421400  0.78131300  0.31809700  1
  H  35  1  0.97716100  0.85042400  0.44798400  1
  H  36  1  0.97438600  0.84916000  0.40315700  1
  H  37  1  0.97593600  0.80576300  0.40451100  1
  H  38  1  0.06310100  0.78042700  0.42329900  1
  H  49  1  0.85411100  0.76358500  0.46462300  1
  H  50  1  0.08417000  0.95270100  0.46289900  1
  H  51  1  0.07694500  0.74236300  0.31335300  1
  H  69  1  0.85198100  0.67010300  0.19836700  1
  H  70  1  0.87279300  0.64254300  0.17759100  1
  H  71  1  0.04138300  0.65915400  0.23135700  1
  H  72  1  0.00099200  0.51597700  0.09249300  1
  H  73  1  0.96891800  0.55738400  0.08756100  1
  H  74  1  0.98766400  0.54072100  0.05885100  1
  H  75  1  0.01974400  0.49942700  0.06389700  1
  H  76  1  0.00499200  0.52667700  0.18525900  1
  H  77  1  0.97955200  0.57621000  0.23709700  1
  H  78  1  0.95957600  0.57740500  0.21289600  1
  H  79  1  0.02475400  0.52553500  0.20968400  1
  H  86  1  0.97709300  0.58633700  0.14060100  1
  H  87  1  0.97443800  0.54276900  0.14185400  1
  H  88  1  0.97586000  0.58751300  0.18525700  1
  H  89  1  0.06274800  0.63164300  0.21060500  1
  H  100  1  0.85407100  0.68981900  0.22742700  1
  H  101  1  0.08536000  0.49905000  0.03832700  1
  H  102  1  0.07726200  0.55971600  0.24861900  1
  H  120  1  0.85198700  0.51704100  0.32092200  1
  H  121  1  0.87277300  0.52382500  0.34848300  1
  H  122  1  0.04159100  0.56096700  0.33186600  1
  H  123  1  0.99782900  0.56530600  0.47508300  1
  H  124  1  0.97155100  0.51894000  0.43361500  1
  H  125  1  0.99005600  0.50690100  0.45028700  1
  H  126  1  0.01636500  0.55326600  0.49164400  1
  H  127  1  0.00536100  0.64734500  0.46433700  1
  H  128  1  0.97910400  0.64966300  0.41481600  1
  H  129  1  0.95901500  0.62426900  0.41362200  1
  H  130  1  0.02523400  0.67291000  0.46547700  1
  H  137  1  0.97713200  0.54303500  0.40468800  1
  H  138  1  0.97439800  0.58785800  0.44825400  1
  H  139  1  0.97592600  0.58651200  0.40350700  1
  H  140  1  0.06292900  0.56772800  0.35937800  1
  H  151  1  0.85415600  0.52638100  0.30120500  1
  H  152  1  0.08414800  0.52811600  0.49205100  1
  H  153  1  0.07729600  0.67766300  0.43129800  1
  H  171  1  0.85511500  0.19392600  0.52164600  1
  H  172  1  0.87774700  0.17312600  0.52837400  1
  H  173  1  0.04649900  0.22691200  0.56543600  1
  H  174  1  0.87358900  0.08865500  0.56768600  1
  H  175  1  0.06632000  0.08246200  0.52552400  1
  H  176  1  0.04248800  0.05381500  0.51337400  1
  H  177  1  0.85024100  0.06015500  0.55559200  1
  H  178  1  0.01124800  0.18081600  0.65181000  1
  H  179  1  0.98158000  0.23259100  0.65403300  1
  H  180  1  0.96392600  0.20835200  0.62863800  1
  H  181  1  0.02870900  0.20527600  0.67737400  1
  H  188  1  0.98648100  0.13610300  0.54745700  1
  H  189  1  0.98358500  0.13734300  0.59227200  1
  H  190  1  0.98416400  0.18075300  0.59094400  1
  H  191  1  0.06968500  0.20613900  0.57214200  1
  H  202  1  0.85635800  0.22300900  0.53103900  1
  H  203  1  0.85325300  0.03381200  0.53131800  1
  H  204  1  0.07705600  0.24431900  0.68210800  1
  H  222  1  0.85533600  0.31647500  0.79710200  1
  H  223  1  0.87788800  0.34400800  0.81789100  1
  H  224  1  0.04641200  0.32727100  0.76409300  1
  H  225  1  0.87419600  0.46782600  0.90235500  1
  H  226  1  0.06536700  0.43176800  0.90853700  1
  H  227  1  0.04157800  0.44826500  0.93718400  1
  H  228  1  0.85089700  0.48423300  0.93085500  1
  H  229  1  0.01248500  0.45977500  0.81023800  1
  H  230  1  0.98074300  0.41028800  0.75843400  1
  H  231  1  0.96278500  0.40910300  0.78265700  1
  H  232  1  0.03021700  0.46090600  0.78579200  1
  H  239  1  0.98634400  0.40010700  0.85489500  1
  H  240  1  0.98345800  0.44368700  0.85366600  1
  H  241  1  0.98415300  0.39895400  0.81025000  1
  H  242  1  0.06951800  0.35475400  0.78485500  1
  H  253  1  0.85663800  0.29676600  0.76802500  1
  H  254  1  0.85311800  0.48625800  0.95718800  1
  H  255  1  0.07839200  0.42666600  0.74679100  1
  H  273  1  0.85503500  0.46936100  0.67451900  1
  H  274  1  0.87771700  0.46263100  0.64699200  1
  H  275  1  0.04652200  0.42557900  0.66372500  1
  H  276  1  0.87346800  0.42333100  0.52322000  1
  H  277  1  0.06633100  0.46548600  0.55918100  1
  H  278  1  0.04252700  0.47763700  0.54268600  1
  H  279  1  0.85014100  0.43542400  0.50681300  1
  H  280  1  0.01261700  0.33923200  0.53122700  1
  H  281  1  0.98069300  0.33690200  0.58070700  1
  H  282  1  0.96266800  0.36231000  0.58189600  1
  H  283  1  0.03042200  0.31365400  0.53009200  1
  H  290  1  0.98642500  0.44355100  0.59089300  1
  H  291  1  0.98350300  0.39874100  0.54731500  1
  H  292  1  0.98408400  0.40006000  0.59204800  1
  H  293  1  0.06975200  0.41887300  0.63624900  1
  H  304  1  0.85632500  0.45997200  0.69421200  1
  H  305  1  0.85324300  0.45969500  0.50473800  1
  H  306  1  0.07867400  0.30889300  0.56432500  1
  H  312  1  0.18041600  0.97759300  0.48633000  1
  H  314  1  0.77342800  0.00863000  0.50940800  1
  H  328  1  0.18044500  0.49742800  0.01339300  1
  H  330  1  0.77346600  0.48959200  0.98239100  1
  H  344  1  0.18041000  0.50468100  0.49350800  1
  H  346  1  0.77340700  0.48160900  0.50147100  1
  H  360  1  0.77782600  0.70847600  0.25469100  1
  H  362  1  0.18581900  0.73059800  0.28591900  1
  H  376  1  0.77781100  0.53501500  0.28256800  1
  H  378  1  0.18580800  0.54405800  0.26039900  1
  H  392  1  0.77784100  0.73632100  0.45600600  1
  H  394  1  0.18581600  0.70510100  0.44694000  1
  H  408  1  0.78095900  0.27800000  0.74080700  1
  H  410  1  0.18866800  0.25584600  0.70952600  1
  H  424  1  0.78085400  0.45150200  0.71296900  1
  H  426  1  0.18876100  0.44250200  0.73518600  1
  H  440  1  0.78086300  0.25023900  0.53951800  1
  H  442  1  0.18881000  0.28144800  0.54851100  1
  N  315  1  0.72897100  0.97699500  0.49459600  1
  N  316  1  0.22527500  0.00927500  0.50126500  1
  N  321  1  0.99158300  0.02658300  0.51439300  1
  N  322  1  0.96325800  0.95974400  0.48159900  1
  N  331  1  0.72918300  0.50641800  0.01402700  1
  N  332  1  0.22510400  0.48067200  0.98171100  1
  N  337  1  0.99146200  0.47656400  0.96442000  1
  N  338  1  0.96337900  0.51059800  0.03126600  1
  N  347  1  0.72895100  0.49642100  0.48464800  1
  N  348  1  0.22526400  0.48974600  0.51025500  1
  N  353  1  0.99155400  0.47662000  0.51443700  1
  N  354  1  0.96325300  0.50941400  0.48039100  1
  N  363  1  0.22929600  0.70260400  0.25899400  1
  N  364  1  0.73460100  0.73647900  0.28159000  1
  N  369  1  0.96821700  0.74791700  0.29951500  1
  N  370  1  0.99341800  0.69006400  0.24222600  1
  N  379  1  0.22938000  0.54512800  0.28839200  1
  N  380  1  0.73448000  0.53391300  0.25456900  1
  N  385  1  0.96809300  0.54036200  0.24310000  1
  N  386  1  0.99349600  0.54093400  0.30095700  1
  N  395  1  0.22937600  0.73202300  0.44587000  1
  N  396  1  0.73452200  0.70942300  0.45710700  1
  N  401  1  0.96813100  0.69150300  0.45064800  1
  N  402  1  0.99351700  0.74879000  0.45008000  1
  N  411  1  0.23242000  0.28383900  0.73644500  1
  N  412  1  0.73752200  0.24999500  0.71391400  1
  N  417  1  0.97120100  0.23854100  0.69597100  1
  N  418  1  0.99680100  0.29639600  0.75324900  1
  N  427  1  0.23251900  0.44143100  0.70719700  1
  N  428  1  0.73739200  0.45260500  0.74096800  1
  N  433  1  0.97115800  0.44619200  0.75246500  1
  N  434  1  0.99682500  0.44561100  0.69460500  1
  N  443  1  0.23253500  0.25453100  0.54958400  1
  N  444  1  0.73742600  0.27713600  0.53841400  1
  N  449  1  0.97121700  0.29504000  0.54482000  1
  N  450  1  0.99682600  0.23776300  0.54540600  1
  O  317  1  0.64336900  0.98054300  0.48717700  1
  O  318  1  0.31079300  0.00569000  0.50866300  1
  O  319  1  0.27352500  0.00587000  0.48778000  1
  O  320  1  0.68077800  0.98043300  0.50809300  1
  O  333  1  0.64334300  0.49547500  0.01048100  1
  O  334  1  0.31087700  0.49163000  0.98529400  1
  O  335  1  0.27307000  0.47057500  0.98510800  1
  O  336  1  0.68125700  0.51649500  0.01060000  1
  O  349  1  0.64336100  0.50384200  0.49561700  1
  O  350  1  0.31076700  0.48234600  0.49927000  1
  O  351  1  0.27352600  0.50322900  0.52033500  1
  O  352  1  0.68074700  0.48292600  0.47459100  1
  O  365  1  0.31606400  0.71082300  0.25669300  1
  O  366  1  0.68676100  0.74049300  0.27194200  1
  O  367  1  0.64849000  0.72806300  0.28370000  1
  O  368  1  0.27642100  0.69878300  0.26882000  1
  O  381  1  0.31604300  0.53459500  0.28016500  1
  O  382  1  0.68650400  0.52025800  0.25056100  1
  O  383  1  0.64849500  0.54445300  0.26299300  1
  O  384  1  0.27661800  0.55876800  0.29220600  1
  O  397  1  0.31607500  0.73432600  0.45639800  1
  O  398  1  0.68660500  0.71907200  0.47076500  1
  O  399  1  0.64849500  0.70731100  0.44657300  1
  O  400  1  0.27657100  0.72219800  0.43222800  1
  O  413  1  0.31919100  0.27561400  0.73874000  1
  O  414  1  0.68973200  0.24598800  0.72357000  1
  O  415  1  0.65140600  0.25841300  0.71180700  1
  O  416  1  0.27947400  0.28765300  0.72661200  1
  O  429  1  0.31907600  0.45197500  0.71543200  1
  O  430  1  0.68933400  0.46625500  0.74496700  1
  O  431  1  0.65148700  0.44205700  0.73254100  1
  O  432  1  0.27984200  0.42779800  0.70339000  1
  O  445  1  0.31908600  0.25222100  0.53903900  1
  O  446  1  0.68935900  0.26748400  0.52476500  1
  O  447  1  0.65152200  0.27925800  0.54896400  1
  O  448  1  0.27987200  0.26435800  0.56321700  1
