# generated using pymatgen
data_H28C55(N2O)4
_symmetry_space_group_name_H-M   'P 1'
_cell_length_a   22.08020000
_cell_length_b   22.08020000
_cell_length_c   87.91900000
_cell_angle_alpha   90.00110000
_cell_angle_beta   90.00170000
_cell_angle_gamma   90.00000000
_symmetry_Int_Tables_number   1
_chemical_formula_structural   H28C55(N2O)4
_chemical_formula_sum   'H224 C440 N64 O32'
_cell_volume   42863.61003896
_cell_formula_units_Z   8
loop_
 _symmetry_equiv_pos_site_id
 _symmetry_equiv_pos_as_xyz
  1  'x, y, z'
loop_
 _atom_site_type_symbol
 _atom_site_label
 _atom_site_symmetry_multiplicity
 _atom_site_fract_x
 _atom_site_fract_y
 _atom_site_fract_z
 _atom_site_occupancy
  C  1  1  0.96661200  0.95950000  0.13436700  1
  C  2  1  0.90240200  0.96106700  0.13434700  1
  C  3  1  0.90239100  0.07572300  0.13450000  1
  C  4  1  0.96659100  0.07727000  0.13455000  1
  C  5  1  0.99515300  0.13550700  0.13458400  1
  C  6  1  0.96210200  0.19093900  0.13457000  1
  C  7  1  0.89817400  0.18649900  0.13454500  1
  C  8  1  0.86896700  0.13020000  0.13451500  1
  C  9  1  0.86897400  0.90660200  0.13428200  1
  C  10  1  0.89818200  0.85031200  0.13426000  1
  C  11  1  0.96211200  0.84586800  0.13429500  1
  C  12  1  0.99518900  0.90128900  0.13433200  1
  C  13  1  0.03886900  0.01886800  0.11974300  1
  C  14  1  0.10307600  0.02003700  0.12008200  1
  C  15  1  0.10311600  0.01969400  0.14883700  1
  C  16  1  0.03890400  0.01814200  0.14919100  1
  C  17  1  0.13641900  0.01972300  0.16253700  1
  C  18  1  0.10703200  0.01761400  0.17663900  1
  C  19  1  0.04312800  0.01583000  0.17763300  1
  C  20  1  0.01011100  0.01619600  0.16374700  1
  C  21  1  0.00998200  0.01858700  0.10519300  1
  C  22  1  0.04280000  0.01918500  0.09127400  1
  C  23  1  0.10676400  0.02021600  0.09227400  1
  C  24  1  0.13627900  0.02068400  0.10637200  1
  C  37  1  0.00269800  0.01839400  0.13446800  1
  C  38  1  0.13795400  0.02087700  0.13445700  1
  C  41  1  0.86762200  0.01839400  0.13440600  1
  C  44  1  0.01451000  0.01140800  0.19183900  1
  C  45  1  0.99071400  0.78878100  0.13430900  1
  C  46  1  0.01350600  0.01888400  0.07707700  1
  C  50  1  0.99074000  0.24802000  0.13456700  1
  C  52  1  0.07806500  0.96506600  0.63471800  1
  C  53  1  0.07650600  0.90086100  0.63476600  1
  C  54  1  0.96184000  0.90084000  0.63491200  1
  C  55  1  0.96028900  0.96503800  0.63489300  1
  C  56  1  0.90206000  0.99361400  0.63487600  1
  C  57  1  0.84662400  0.96057300  0.63487300  1
  C  58  1  0.85106000  0.89664400  0.63492100  1
  C  59  1  0.90735800  0.86742800  0.63494300  1
  C  60  1  0.13098100  0.86744800  0.63472300  1
  C  61  1  0.18726700  0.89667200  0.63464900  1
  C  62  1  0.19169700  0.96060400  0.63461100  1
  C  63  1  0.13626700  0.99366400  0.63463600  1
  C  64  1  0.01870200  0.03699200  0.62001000  1
  C  65  1  0.01753600  0.10120300  0.62028700  1
  C  66  1  0.01783600  0.10179400  0.64903900  1
  C  67  1  0.01939800  0.03759100  0.64946500  1
  C  68  1  0.01777200  0.13535100  0.66270000  1
  C  69  1  0.01984900  0.10622100  0.67683500  1
  C  70  1  0.02165300  0.04233900  0.67790200  1
  C  71  1  0.02132000  0.00906600  0.66405500  1
  C  72  1  0.01899800  0.00782400  0.60549000  1
  C  73  1  0.01841300  0.04037700  0.59153400  1
  C  74  1  0.01738500  0.10438800  0.59248500  1
  C  75  1  0.01690700  0.13416300  0.60654500  1
  C  88  1  0.01916600  0.00112800  0.63478100  1
  C  89  1  0.01667400  0.13635700  0.63461900  1
  C  92  1  0.01917800  0.86607900  0.63486400  1
  C  95  1  0.02608400  0.01399000  0.69214300  1
  C  96  1  0.24877500  0.98922500  0.63456800  1
  C  97  1  0.01873300  0.01091900  0.57734300  1
  C  101  1  0.78955000  0.98922100  0.63481400  1
  C  103  1  0.95895100  0.96535700  0.38421300  1
  C  104  1  0.96051800  0.90115400  0.38427400  1
  C  105  1  0.07519100  0.90115400  0.38410700  1
  C  106  1  0.07672600  0.96535200  0.38401600  1
  C  107  1  0.13494600  0.99394800  0.38398600  1
  C  108  1  0.19039300  0.96092800  0.38404700  1
  C  109  1  0.18597300  0.89699700  0.38410800  1
  C  110  1  0.12968400  0.86776200  0.38413200  1
  C  111  1  0.90604600  0.86774200  0.38439600  1
  C  112  1  0.84975600  0.89696200  0.38443400  1
  C  113  1  0.84532000  0.96089600  0.38435900  1
  C  114  1  0.90074700  0.99395400  0.38426400  1
  C  115  1  0.01834200  0.03744000  0.39885100  1
  C  116  1  0.01944600  0.10164300  0.39853700  1
  C  117  1  0.01899900  0.10194000  0.36978300  1
  C  118  1  0.01754400  0.03772800  0.36939700  1
  C  119  1  0.01894600  0.13535800  0.35610200  1
  C  120  1  0.01687800  0.10608100  0.34198500  1
  C  121  1  0.01518600  0.04218200  0.34095600  1
  C  122  1  0.01562200  0.00904800  0.35482400  1
  C  123  1  0.01815000  0.00839800  0.41338600  1
  C  124  1  0.01878800  0.04106600  0.42732400  1
  C  125  1  0.01975300  0.10506800  0.42634000  1
  C  126  1  0.02012100  0.13472400  0.41226300  1
  C  139  1  0.01784200  0.00142500  0.38410500  1
  C  140  1  0.02017200  0.13665400  0.38418200  1
  C  143  1  0.01785900  0.86638100  0.38423100  1
  C  146  1  0.01086400  0.01369400  0.32673000  1
  C  147  1  0.78824400  0.98951900  0.38436600  1
  C  148  1  0.01855800  0.01169200  0.44152400  1
  C  152  1  0.24745700  0.98959600  0.38407000  1
  C  154  1  0.03199500  0.02690200  0.21910700  1
  C  155  1  0.06957400  0.06427000  0.22804500  1
  C  157  1  0.02725500  0.02659300  0.25123900  1
  C  158  1  0.98838600  0.98713500  0.24297800  1
  C  159  1  0.99135200  0.98802600  0.22682700  1
  C  161  1  0.02639000  0.02728200  0.26733600  1
  C  162  1  0.06370800  0.06944800  0.29058400  1
  C  163  1  0.02637600  0.03164500  0.29947100  1
  C  164  1  0.98774000  0.99093400  0.29169800  1
  C  167  1  0.98699500  0.98817200  0.27554400  1
  C  168  1  0.94846600  0.94889000  0.26727100  1
  C  169  1  0.94913900  0.94839000  0.25119700  1
  C  176  1  0.01077400  0.03199100  0.71939400  1
  C  178  1  0.03482900  0.01889100  0.04955000  1
  C  179  1  0.97802000  0.01895700  0.04218900  1
  C  181  1  0.02444600  0.01884700  0.01743700  1
  C  182  1  0.08293700  0.01878200  0.02420300  1
  C  183  1  0.08699300  0.01882100  0.04027500  1
  C  186  1  0.13490600  0.01869000  0.01478700  1
  C  189  1  0.01877000  0.03662900  0.54978700  1
  C  190  1  0.01871000  0.98244800  0.54126900  1
  C  192  1  0.01879400  0.03691500  0.51751500  1
  C  193  1  0.01886400  0.09285800  0.52557600  1
  C  194  1  0.01883700  0.09160000  0.54165400  1
  C  196  1  0.01878800  0.03703700  0.50134400  1
  C  197  1  0.01865800  0.98292700  0.47753900  1
  C  198  1  0.01874300  0.03723300  0.46907100  1
  C  199  1  0.01886700  0.09208300  0.47725600  1
  C  202  1  0.01887600  0.09310000  0.49333600  1
  C  203  1  0.01896500  0.14827600  0.50148800  1
  C  204  1  0.01894800  0.14815500  0.51747600  1
  C  211  1  0.96756200  0.67890900  0.13438200  1
  C  212  1  0.91449200  0.64334000  0.13439200  1
  C  214  1  0.97064000  0.55053200  0.13444900  1
  C  215  1  0.02608000  0.58338900  0.13444400  1
  C  216  1  0.02361200  0.64780800  0.13441000  1
  C  218  1  0.97066000  0.48630800  0.13447600  1
  C  219  1  0.91455600  0.39347300  0.13449800  1
  C  220  1  0.96763800  0.35792400  0.13452200  1
  C  221  1  0.02367500  0.38905300  0.13452400  1
  C  224  1  0.02611600  0.45347600  0.13450100  1
  C  225  1  0.08113000  0.48644000  0.13450100  1
  C  226  1  0.08111200  0.55046400  0.13447300  1
  C  233  1  0.35865600  0.96609200  0.63458900  1
  C  234  1  0.39422100  0.91302100  0.63461100  1
  C  236  1  0.48703400  0.96916400  0.63462100  1
  C  237  1  0.45417900  0.02460600  0.63459600  1
  C  238  1  0.38976000  0.02213800  0.63458100  1
  C  240  1  0.55125700  0.96917800  0.63464800  1
  C  241  1  0.64408400  0.91306400  0.63471000  1
  C  242  1  0.67964200  0.96614100  0.63472000  1
  C  243  1  0.64851800  0.02218200  0.63468700  1
  C  246  1  0.58409700  0.02463200  0.63465100  1
  C  247  1  0.55113500  0.07964700  0.63462100  1
  C  248  1  0.48711200  0.07963500  0.63459500  1
  C  255  1  0.67836000  0.96641800  0.38435800  1
  C  256  1  0.64278000  0.91335800  0.38435900  1
  C  258  1  0.54998200  0.96952800  0.38431300  1
  C  259  1  0.58285400  0.02495900  0.38431400  1
  C  260  1  0.64726800  0.02247600  0.38433800  1
  C  262  1  0.48576200  0.96955500  0.38428000  1
  C  263  1  0.39292500  0.91345500  0.38423400  1
  C  264  1  0.35737600  0.96653400  0.38419300  1
  C  265  1  0.38850800  0.02257100  0.38420400  1
  C  268  1  0.45293200  0.02501300  0.38424700  1
  C  269  1  0.48590400  0.08002100  0.38425600  1
  C  270  1  0.54992800  0.07999700  0.38428900  1
  C  1105  1  0.97342000  0.06966300  0.72831000  1
  C  1107  1  0.05046800  0.98850900  0.74328400  1
  C  1108  1  0.04956500  0.99132700  0.72713300  1
  C  1133  1  0.07167700  0.95901400  0.88453700  1
  C  1134  1  0.13589300  0.96059200  0.88455700  1
  C  1135  1  0.13589700  0.07520800  0.88439300  1
  C  1136  1  0.07168700  0.07675600  0.88434900  1
  C  1137  1  0.04317500  0.13501700  0.88429700  1
  C  1138  1  0.07626400  0.19043300  0.88429400  1
  C  1139  1  0.14018700  0.18596700  0.88431700  1
  C  1140  1  0.16936100  0.12965900  0.88436400  1
  C  1141  1  0.16937100  0.90615600  0.88462100  1
  C  1142  1  0.14020900  0.84985000  0.88463700  1
  C  1143  1  0.07628300  0.84537400  0.88459500  1
  C  1144  1  0.04316100  0.90077200  0.88456100  1
  C  1145  1  0.99915000  0.01836800  0.89913300  1
  C  1146  1  0.93494000  0.01945300  0.89875500  1
  C  1147  1  0.93516800  0.01907500  0.87001400  1
  C  1148  1  0.99939000  0.01762400  0.86968200  1
  C  1149  1  0.90187600  0.01906600  0.85631500  1
  C  1150  1  0.93128300  0.01706700  0.84222000  1
  C  1151  1  0.99518800  0.01538900  0.84123400  1
  C  1152  1  0.02820000  0.01575900  0.85512400  1
  C  1153  1  0.02776200  0.01815500  0.91371700  1
  C  1154  1  0.99466700  0.01875800  0.92760500  1
  C  1155  1  0.93075400  0.01970100  0.92655800  1
  C  1156  1  0.90150000  0.02008800  0.91243200  1
  C  1169  1  0.03552500  0.01789200  0.88442500  1
  C  1170  1  0.90020800  0.02019900  0.88436800  1
  C  1173  1  0.17067500  0.01790200  0.88449300  1
  C  1176  1  0.02374500  0.01112400  0.82701700  1
  C  1177  1  0.04774100  0.78825600  0.88457200  1
  C  1178  1  0.02366800  0.01853000  0.94182600  1
  C  1182  1  0.04767900  0.24753500  0.88428600  1
  C  1184  1  0.01104400  0.02748000  0.75152700  1
  C  1185  1  0.01033000  0.02669800  0.76762300  1
  C  1186  1  0.96814700  0.06411000  0.79086200  1
  C  1187  1  0.00589200  0.02675500  0.79975900  1
  C  1188  1  0.04658800  0.98807400  0.79199800  1
  C  1190  1  0.04939000  0.98729300  0.77584600  1
  C  1191  1  0.08866300  0.94870000  0.76759000  1
  C  1192  1  0.08917900  0.94928400  0.75151900  1
  C  1197  1  0.01875200  0.01882300  0.00136800  1
  C  1198  1  0.95509900  0.01889300  0.97930700  1
  C  1199  1  0.00511600  0.01876200  0.96932000  1
  C  1200  1  0.06347300  0.01868000  0.97591700  1
  C  1202  1  0.07121300  0.01871600  0.99194100  1
  C  1203  1  0.12909900  0.01865200  0.99882500  1
  C  1208  1  0.07097100  0.67840900  0.88450900  1
  C  1209  1  0.12404500  0.64284400  0.88450800  1
  C  1211  1  0.06790500  0.55002700  0.88444100  1
  C  1212  1  0.01246500  0.58288600  0.88443800  1
  C  1213  1  0.01492900  0.64730200  0.88447300  1
  C  1215  1  0.06787700  0.48580400  0.88440800  1
  C  1216  1  0.12395800  0.39295100  0.88438700  1
  C  1217  1  0.07086600  0.35741600  0.88435000  1
  C  1218  1  0.01484000  0.38856100  0.88434200  1
  C  1221  1  0.01241500  0.45298100  0.88437200  1
  C  1222  1  0.95740600  0.48594700  0.88436700  1
  C  1223  1  0.95742900  0.54996800  0.88440000  1
  C  1521  1  0.37421800  0.36710600  0.19123800  1
  C  1522  1  0.31000800  0.36867300  0.19121800  1
  C  1523  1  0.30999700  0.48332900  0.19137100  1
  C  1524  1  0.37419700  0.48487600  0.19142100  1
  C  1525  1  0.40275900  0.54311300  0.19145500  1
  C  1526  1  0.36970800  0.59854500  0.19144100  1
  C  1527  1  0.30578000  0.59410500  0.19141600  1
  C  1528  1  0.27657300  0.53780600  0.19138600  1
  C  1529  1  0.27658000  0.31420800  0.19115300  1
  C  1530  1  0.30578800  0.25791800  0.19113100  1
  C  1531  1  0.36971800  0.25347400  0.19116600  1
  C  1532  1  0.40279500  0.30889500  0.19120300  1
  C  1533  1  0.44647500  0.42647400  0.17661400  1
  C  1534  1  0.51068200  0.42764300  0.17695300  1
  C  1535  1  0.51072200  0.42730000  0.20570800  1
  C  1536  1  0.44651000  0.42574800  0.20606200  1
  C  1537  1  0.54402500  0.42732900  0.21940800  1
  C  1538  1  0.51463800  0.42522000  0.23351000  1
  C  1539  1  0.45073400  0.42343600  0.23450400  1
  C  1540  1  0.41771700  0.42380200  0.22061800  1
  C  1541  1  0.41758800  0.42619300  0.16206400  1
  C  1542  1  0.45040600  0.42679100  0.14814500  1
  C  1543  1  0.51437000  0.42782200  0.14914500  1
  C  1544  1  0.54388500  0.42829000  0.16324300  1
  C  1557  1  0.41030400  0.42600000  0.19133900  1
  C  1558  1  0.54556000  0.42848300  0.19132800  1
  C  1561  1  0.27522800  0.42600000  0.19127700  1
  C  1564  1  0.42211600  0.41901400  0.24871000  1
  C  1565  1  0.39832000  0.19638650  0.19118000  1
  C  1566  1  0.42111200  0.42649000  0.13394800  1
  C  1570  1  0.39834600  0.65562600  0.19143800  1
  C  1572  1  0.48567100  0.37267200  0.69158900  1
  C  1573  1  0.48411200  0.30846700  0.69163700  1
  C  1574  1  0.36944600  0.30844600  0.69178300  1
  C  1575  1  0.36789500  0.37264400  0.69176400  1
  C  1576  1  0.30966600  0.40122000  0.69174700  1
  C  1577  1  0.25423000  0.36817900  0.69174400  1
  C  1578  1  0.25866600  0.30425000  0.69179200  1
  C  1579  1  0.31496400  0.27503400  0.69181400  1
  C  1580  1  0.53858700  0.27505400  0.69159400  1
  C  1581  1  0.59487300  0.30427800  0.69152000  1
  C  1582  1  0.59930300  0.36821000  0.69148200  1
  C  1583  1  0.54387300  0.40127000  0.69150700  1
  C  1584  1  0.42630800  0.44459800  0.67688100  1
  C  1585  1  0.42514200  0.50880900  0.67715800  1
  C  1586  1  0.42544200  0.50940000  0.70591000  1
  C  1587  1  0.42700400  0.44519700  0.70633600  1
  C  1588  1  0.42537800  0.54295700  0.71957100  1
  C  1589  1  0.42745500  0.51382700  0.73370600  1
  C  1590  1  0.42925900  0.44994500  0.73477300  1
  C  1591  1  0.42892600  0.41667200  0.72092600  1
  C  1592  1  0.42660400  0.41543000  0.66236100  1
  C  1593  1  0.42601900  0.44798300  0.64840500  1
  C  1594  1  0.42499100  0.51199400  0.64935600  1
  C  1595  1  0.42451300  0.54176900  0.66341600  1
  C  1608  1  0.42677200  0.40873400  0.69165200  1
  C  1609  1  0.42428000  0.54396300  0.69149000  1
  C  1612  1  0.42678400  0.27368500  0.69173500  1
  C  1615  1  0.43369000  0.42159600  0.74901400  1
  C  1616  1  0.65638100  0.39683100  0.69143900  1
  C  1617  1  0.42633900  0.41852500  0.63421400  1
  C  1621  1  0.19715550  0.39682700  0.69168500  1
  C  1623  1  0.36655700  0.37296300  0.44108400  1
  C  1624  1  0.36812400  0.30876000  0.44114500  1
  C  1625  1  0.48279700  0.30876000  0.44097800  1
  C  1626  1  0.48433200  0.37295800  0.44088700  1
  C  1627  1  0.54255200  0.40155400  0.44085700  1
  C  1628  1  0.59799900  0.36853400  0.44091800  1
  C  1629  1  0.59357900  0.30460300  0.44097900  1
  C  1630  1  0.53729000  0.27536800  0.44100300  1
  C  1631  1  0.31365200  0.27534800  0.44126700  1
  C  1632  1  0.25736200  0.30456800  0.44130500  1
  C  1633  1  0.25292600  0.36850200  0.44123000  1
  C  1634  1  0.30835300  0.40156000  0.44113500  1
  C  1635  1  0.42594800  0.44504600  0.45572200  1
  C  1636  1  0.42705200  0.50924900  0.45540800  1
  C  1637  1  0.42660500  0.50954600  0.42665400  1
  C  1638  1  0.42515000  0.44533400  0.42626800  1
  C  1639  1  0.42655200  0.54296400  0.41297300  1
  C  1640  1  0.42448400  0.51368700  0.39885600  1
  C  1641  1  0.42279200  0.44978800  0.39782700  1
  C  1642  1  0.42322800  0.41665400  0.41169500  1
  C  1643  1  0.42575600  0.41600400  0.47025700  1
  C  1644  1  0.42639400  0.44867200  0.48419500  1
  C  1645  1  0.42735900  0.51267400  0.48321100  1
  C  1646  1  0.42772700  0.54233000  0.46913400  1
  C  1659  1  0.42544800  0.40903100  0.44097600  1
  C  1660  1  0.42777800  0.54426000  0.44105300  1
  C  1663  1  0.42546500  0.27398700  0.44110200  1
  C  1666  1  0.41847000  0.42130000  0.38360100  1
  C  1667  1  0.19584950  0.39712500  0.44123700  1
  C  1668  1  0.42616400  0.41929800  0.49839500  1
  C  1672  1  0.65506300  0.39720200  0.44094100  1
  C  1674  1  0.43960100  0.43450800  0.27597800  1
  C  1675  1  0.47718000  0.47187600  0.28491600  1
  C  1677  1  0.43486100  0.43419900  0.30811000  1
  C  1678  1  0.39599200  0.39474100  0.29984900  1
  C  1679  1  0.39895800  0.39563200  0.28369800  1
  C  1681  1  0.43399600  0.43488800  0.32420700  1
  C  1682  1  0.47131400  0.47705400  0.34745500  1
  C  1683  1  0.43398200  0.43925100  0.35634200  1
  C  1684  1  0.39534600  0.39854000  0.34856900  1
  C  1687  1  0.39460100  0.39577800  0.33241500  1
  C  1688  1  0.35607200  0.35649600  0.32414200  1
  C  1689  1  0.35674500  0.35599600  0.30806800  1
  C  1696  1  0.41838000  0.43959700  0.77626500  1
  C  1698  1  0.44243500  0.42649700  0.10642100  1
  C  1699  1  0.38562600  0.42656300  0.09905950  1
  C  1701  1  0.43205200  0.42645300  0.07430750  1
  C  1702  1  0.49054300  0.42638800  0.08107350  1
  C  1703  1  0.49459900  0.42642700  0.09714550  1
  C  1706  1  0.54251200  0.42629600  0.07165750  1
  C  1709  1  0.42637600  0.44423500  0.60665800  1
  C  1710  1  0.42631600  0.39005400  0.59814000  1
  C  1712  1  0.42640000  0.44452100  0.57438600  1
  C  1713  1  0.42647000  0.50046400  0.58244700  1
  C  1714  1  0.42644300  0.49920600  0.59852500  1
  C  1716  1  0.42639400  0.44464300  0.55821500  1
  C  1717  1  0.42626400  0.39053300  0.53441000  1
  C  1718  1  0.42634900  0.44483900  0.52594200  1
  C  1719  1  0.42647300  0.49968900  0.53412700  1
  C  1722  1  0.42648200  0.50070600  0.55020700  1
  C  1723  1  0.42657100  0.55588200  0.55835900  1
  C  1724  1  0.42655400  0.55576100  0.57434700  1
  C  1731  1  0.37516800  0.08651450  0.19125300  1
  C  1732  1  0.32209800  0.05094550  0.19126300  1
  C  1734  1  0.37824600  0.95813800  0.19132000  1
  C  1735  1  0.43368600  0.99099500  0.19131500  1
  C  1736  1  0.43121800  0.05541350  0.19128100  1
  C  1738  1  0.37826600  0.89391400  0.19134700  1
  C  1739  1  0.32216200  0.80107900  0.19136900  1
  C  1740  1  0.37524400  0.76553000  0.19139300  1
  C  1741  1  0.43128100  0.79665900  0.19139500  1
  C  1744  1  0.43372200  0.86108200  0.19137200  1
  C  1745  1  0.48873600  0.89404600  0.19137200  1
  C  1746  1  0.48871800  0.95807000  0.19134400  1
  C  1753  1  0.76626200  0.37369800  0.69146000  1
  C  1754  1  0.80182700  0.32062700  0.69148200  1
  C  1756  1  0.89464000  0.37677000  0.69149200  1
  C  1757  1  0.86178500  0.43221200  0.69146700  1
  C  1758  1  0.79736600  0.42974400  0.69145200  1
  C  1760  1  0.95886300  0.37678400  0.69151900  1
  C  1761  1  0.05168950  0.32067000  0.69158100  1
  C  1762  1  0.08724750  0.37374700  0.69159100  1
  C  1763  1  0.05612350  0.42978800  0.69155800  1
  C  1766  1  0.99170300  0.43223800  0.69152200  1
  C  1767  1  0.95874100  0.48725300  0.69149200  1
  C  1768  1  0.89471800  0.48724100  0.69146600  1
  C  1775  1  0.08596550  0.37402400  0.44122900  1
  C  1776  1  0.05038550  0.32096400  0.44123000  1
  C  1778  1  0.95758800  0.37713400  0.44118400  1
  C  1779  1  0.99046000  0.43256500  0.44118500  1
  C  1780  1  0.05487350  0.43008200  0.44120900  1
  C  1782  1  0.89336800  0.37716100  0.44115100  1
  C  1783  1  0.80053100  0.32106100  0.44110500  1
  C  1784  1  0.76498200  0.37414000  0.44106400  1
  C  1785  1  0.79611400  0.43017700  0.44107500  1
  C  1788  1  0.86053800  0.43261900  0.44111800  1
  C  1789  1  0.89351000  0.48762700  0.44112700  1
  C  1790  1  0.95753400  0.48760300  0.44116000  1
  C  2625  1  0.38102600  0.47726900  0.78518100  1
  C  2627  1  0.45807400  0.39611500  0.80015500  1
  C  2628  1  0.45717100  0.39893300  0.78400400  1
  C  2653  1  0.47928300  0.36662000  0.94140800  1
  C  2654  1  0.54349900  0.36819800  0.94142800  1
  C  2655  1  0.54350300  0.48281400  0.94126400  1
  C  2656  1  0.47929300  0.48436200  0.94122000  1
  C  2657  1  0.45078100  0.54262300  0.94116800  1
  C  2658  1  0.48387000  0.59803900  0.94116500  1
  C  2659  1  0.54779300  0.59357300  0.94118800  1
  C  2660  1  0.57696700  0.53726500  0.94123500  1
  C  2661  1  0.57697700  0.31376200  0.94149200  1
  C  2662  1  0.54781500  0.25745600  0.94150800  1
  C  2663  1  0.48388900  0.25298000  0.94146600  1
  C  2664  1  0.45076700  0.30837800  0.94143200  1
  C  2665  1  0.40675600  0.42597400  0.95600400  1
  C  2666  1  0.34254600  0.42705900  0.95562600  1
  C  2667  1  0.34277400  0.42668100  0.92688500  1
  C  2668  1  0.40699600  0.42523000  0.92655300  1
  C  2669  1  0.30948200  0.42667200  0.91318600  1
  C  2670  1  0.33888900  0.42467300  0.89909100  1
  C  2671  1  0.40279400  0.42299500  0.89810500  1
  C  2672  1  0.43580600  0.42336500  0.91199500  1
  C  2673  1  0.43536800  0.42576100  0.97058800  1
  C  2674  1  0.40227300  0.42636400  0.98447600  1
  C  2675  1  0.33836000  0.42730700  0.98342900  1
  C  2676  1  0.30910600  0.42769400  0.96930300  1
  C  2689  1  0.44313100  0.42549800  0.94129600  1
  C  2690  1  0.30781400  0.42780500  0.94123900  1
  C  2693  1  0.57828100  0.42550800  0.94136400  1
  C  2696  1  0.43135100  0.41873000  0.88388800  1
  C  2697  1  0.45534700  0.19586150  0.94144300  1
  C  2698  1  0.43127400  0.42613600  0.99869700  1
  C  2702  1  0.45528500  0.65514100  0.94115700  1
  C  2704  1  0.41865000  0.43508600  0.80839800  1
  C  2705  1  0.41793600  0.43430400  0.82449400  1
  C  2706  1  0.37575300  0.47171600  0.84773300  1
  C  2707  1  0.41349800  0.43436100  0.85663000  1
  C  2708  1  0.45419400  0.39568000  0.84886900  1
  C  2710  1  0.45699600  0.39489900  0.83271700  1
  C  2711  1  0.49626900  0.35630600  0.82446100  1
  C  2712  1  0.49678500  0.35689000  0.80839000  1
  C  2717  1  0.42635800  0.42642900  0.05823850  1
  C  2718  1  0.36270500  0.42649900  0.03617750  1
  C  2719  1  0.41272200  0.42636800  0.02619050  1
  C  2720  1  0.47107900  0.42628600  0.03278750  1
  C  2722  1  0.47881900  0.42632200  0.04881150  1
  C  2723  1  0.53670500  0.42625800  0.05569550  1
  C  2728  1  0.47857700  0.08601450  0.94138000  1
  C  2729  1  0.53165100  0.05044950  0.94137900  1
  C  2731  1  0.47551100  0.95763300  0.94131200  1
  C  2732  1  0.42007100  0.99049200  0.94130900  1
  C  2733  1  0.42253500  0.05490750  0.94134400  1
  C  2735  1  0.47548300  0.89341000  0.94127900  1
  C  2736  1  0.53156400  0.80055700  0.94125800  1
  C  2737  1  0.47847200  0.76502200  0.94122100  1
  C  2738  1  0.42244600  0.79616700  0.94121300  1
  C  2741  1  0.42002100  0.86058700  0.94124300  1
  C  2742  1  0.36501200  0.89355300  0.94123800  1
  C  2743  1  0.36503500  0.95757400  0.94127100  1
  H  25  1  0.13313500  0.02075500  0.08270300  1
  H  26  1  0.18264900  0.02155400  0.10654300  1
  H  27  1  0.18279000  0.02057400  0.16234900  1
  H  28  1  0.13338300  0.01656800  0.18621500  1
  H  29  1  0.96381200  0.01476200  0.16420000  1
  H  30  1  0.96366000  0.01792800  0.10478000  1
  H  31  1  0.04146000  0.13739600  0.13459100  1
  H  32  1  0.87154900  0.22443500  0.13453600  1
  H  33  1  0.82259100  0.12930900  0.13447700  1
  H  34  1  0.04150200  0.89943200  0.13436000  1
  H  35  1  0.82259600  0.90749600  0.13426800  1
  H  36  1  0.87154600  0.81237700  0.13422800  1
  H  39  1  0.16808300  0.98151500  0.13442000  1
  H  40  1  0.16590800  0.06180800  0.13448700  1
  H  42  1  0.83847500  0.01819600  0.14447500  1
  H  43  1  0.83864700  0.01859300  0.12430500  1
  H  47  1  0.96855200  0.01857600  0.07660500  1
  H  48  1  0.97271200  0.99493000  0.19248600  1
  H  49  1  0.03563700  0.78644200  0.13429700  1
  H  51  1  0.03566400  0.25033100  0.13458400  1
  H  76  1  0.01685600  0.13066000  0.58289700  1
  H  77  1  0.01604000  0.18054000  0.60666400  1
  H  78  1  0.01690000  0.18171700  0.66245800  1
  H  79  1  0.02087000  0.13275200  0.68638000  1
  H  80  1  0.02277800  0.96277400  0.66456000  1
  H  81  1  0.01965700  0.96149700  0.60512500  1
  H  82  1  0.90018100  0.03992200  0.63483100  1
  H  83  1  0.81311800  0.87002400  0.63492400  1
  H  84  1  0.90824200  0.82105200  0.63495500  1
  H  85  1  0.13810900  0.03997800  0.63461100  1
  H  86  1  0.13009900  0.82107200  0.63475700  1
  H  87  1  0.22520700  0.87004800  0.63463200  1
  H  90  1  0.05603700  0.16648800  0.63455300  1
  H  91  1  0.97574200  0.16431300  0.63461200  1
  H  93  1  0.01937100  0.83712200  0.64496700  1
  H  94  1  0.01898800  0.83691200  0.62479800  1
  H  98  1  0.01902200  0.96598800  0.57680500  1
  H  99  1  0.04251400  0.97218300  0.69283600  1
  H  100  1  0.25110200  0.03414800  0.63453200  1
  H  102  1  0.78724700  0.03414800  0.63480300  1
  H  127  1  0.02031000  0.13141100  0.43591600  1
  H  128  1  0.02093700  0.18109900  0.41211900  1
  H  129  1  0.01974000  0.18172500  0.35631300  1
  H  130  1  0.01579000  0.13251600  0.33242300  1
  H  131  1  0.01425900  0.96275000  0.35435000  1
  H  132  1  0.01753200  0.96207400  0.41377600  1
  H  133  1  0.13681100  0.04025600  0.38396200  1
  H  134  1  0.22392500  0.87038900  0.38415500  1
  H  135  1  0.12881400  0.82138600  0.38420500  1
  H  136  1  0.89890200  0.04026900  0.38421600  1
  H  137  1  0.90693100  0.82136600  0.38444700  1
  H  138  1  0.81181900  0.87034000  0.38451300  1
  H  141  1  0.98075800  0.16671500  0.38424300  1
  H  142  1  0.06105200  0.16468000  0.38415800  1
  H  144  1  0.01764000  0.83712400  0.37418300  1
  H  145  1  0.01808600  0.83752200  0.39435200  1
  H  149  1  0.01821600  0.96676000  0.44207500  1
  H  150  1  0.99448700  0.97186500  0.32605100  1
  H  151  1  0.78592400  0.03444500  0.38435600  1
  H  153  1  0.24974600  0.03452200  0.38402700  1
  H  160  1  0.96502300  0.95910400  0.22059800  1
  H  165  1  0.10067400  0.09234100  0.22308500  1
  H  170  1  0.95887700  0.96440200  0.29789000  1
  H  171  1  0.09165300  0.10055700  0.29558600  1
  H  184  1  0.12871400  0.01879500  0.04537600  1
  H  185  1  0.93878000  0.01904800  0.04833300  1
  H  195  1  0.01885600  0.13149500  0.54761400  1
  H  200  1  0.01862500  0.94138600  0.54661100  1
  H  205  1  0.01893900  0.13206400  0.47133300  1
  H  206  1  0.01858900  0.94194200  0.47215900  1
  H  217  1  0.06277900  0.67250200  0.13440700  1
  H  222  1  0.87266600  0.66323600  0.13437400  1
  H  227  1  0.06285600  0.36437400  0.13454100  1
  H  228  1  0.87273600  0.37356400  0.13449400  1
  H  239  1  0.36506700  0.06130900  0.63456900  1
  H  244  1  0.37432600  0.87119200  0.63462000  1
  H  249  1  0.67320200  0.06135900  0.63469700  1
  H  250  1  0.66399000  0.87124200  0.63473500  1
  H  261  1  0.67197400  0.06163900  0.38433400  1
  H  266  1  0.66266200  0.87152600  0.38437200  1
  H  271  1  0.36383000  0.06175500  0.38417600  1
  H  272  1  0.37301500  0.87163200  0.38423000  1
  H  1109  1  0.07845900  0.96491400  0.72091800  1
  H  1110  1  0.94534000  0.10071200  0.72333200  1
  H  1157  1  0.90426600  0.02022700  0.93610900  1
  H  1158  1  0.85513000  0.02089100  0.91221300  1
  H  1159  1  0.85550200  0.01983900  0.85649500  1
  H  1160  1  0.90492800  0.01597800  0.83264500  1
  H  1161  1  0.07450000  0.01439200  0.85467300  1
  H  1162  1  0.07408000  0.01755000  0.91417600  1
  H  1163  1  0.99686700  0.13693400  0.88428600  1
  H  1164  1  0.16683800  0.22388800  0.88431400  1
  H  1165  1  0.21573800  0.12874500  0.88439600  1
  H  1166  1  0.99684900  0.89887400  0.88452400  1
  H  1167  1  0.21575100  0.90708000  0.88463700  1
  H  1168  1  0.16687400  0.81193800  0.88466600  1
  H  1171  1  0.87016100  0.98077100  0.88439000  1
  H  1172  1  0.87217200  0.06107500  0.88431900  1
  H  1174  1  0.19981800  0.01768600  0.87442300  1
  H  1175  1  0.19965300  0.01812200  0.89459500  1
  H  1179  1  0.06862700  0.01816400  0.94224300  1
  H  1180  1  0.06558700  0.99477400  0.82634800  1
  H  1181  1  0.00282300  0.78587600  0.88457000  1
  H  1183  1  0.00275800  0.24988400  0.88425500  1
  H  1193  1  0.07306100  0.95918400  0.79819800  1
  H  1194  1  0.93702500  0.09206300  0.79585400  1
  H  1204  1  0.10053200  0.01862100  0.96894800  1
  H  1205  1  0.91181800  0.01897400  0.97516900  1
  H  1214  1  0.97575600  0.67199200  0.88447100  1
  H  1219  1  0.16587000  0.66274400  0.88453300  1
  H  1224  1  0.97565400  0.36389200  0.88431800  1
  H  1225  1  0.16577400  0.37302800  0.88439500  1
  H  1545  1  0.54074100  0.42836100  0.13957400  1
  H  1546  1  0.59025500  0.42916000  0.16341400  1
  H  1547  1  0.59039600  0.42818000  0.21922000  1
  H  1548  1  0.54098900  0.42417400  0.24308600  1
  H  1549  1  0.37141800  0.42236800  0.22107100  1
  H  1550  1  0.37126600  0.42553400  0.16165100  1
  H  1551  1  0.44906600  0.54500200  0.19146200  1
  H  1552  1  0.27915500  0.63204100  0.19140700  1
  H  1553  1  0.23019700  0.53691500  0.19134800  1
  H  1554  1  0.44910800  0.30703800  0.19123100  1
  H  1555  1  0.23020200  0.31510200  0.19113900  1
  H  1556  1  0.27915200  0.21998300  0.19109900  1
  H  1559  1  0.57568900  0.38912100  0.19129100  1
  H  1560  1  0.57351400  0.46941400  0.19135800  1
  H  1562  1  0.24608100  0.42580200  0.20134600  1
  H  1563  1  0.24625300  0.42619900  0.18117600  1
  H  1567  1  0.37615800  0.42618200  0.13347600  1
  H  1568  1  0.38031800  0.40253600  0.24935700  1
  H  1569  1  0.44324300  0.19404750  0.19116800  1
  H  1571  1  0.44327000  0.65793700  0.19145500  1
  H  1596  1  0.42446200  0.53826600  0.63976800  1
  H  1597  1  0.42364600  0.58814600  0.66353500  1
  H  1598  1  0.42450600  0.58932300  0.71932900  1
  H  1599  1  0.42847600  0.54035800  0.74325100  1
  H  1600  1  0.43038400  0.37038000  0.72143100  1
  H  1601  1  0.42726300  0.36910300  0.66199600  1
  H  1602  1  0.30778700  0.44752800  0.69170200  1
  H  1603  1  0.22072400  0.27763000  0.69179500  1
  H  1604  1  0.31584800  0.22865800  0.69182600  1
  H  1605  1  0.54571500  0.44758400  0.69148200  1
  H  1606  1  0.53770500  0.22867800  0.69162800  1
  H  1607  1  0.63281300  0.27765400  0.69150300  1
  H  1610  1  0.46364300  0.57409400  0.69142400  1
  H  1611  1  0.38334800  0.57191900  0.69148300  1
  H  1613  1  0.42697700  0.24472800  0.70183800  1
  H  1614  1  0.42659400  0.24451800  0.68166900  1
  H  1618  1  0.42662800  0.37359400  0.63367600  1
  H  1619  1  0.45012000  0.37978900  0.74970700  1
  H  1620  1  0.65870800  0.44175400  0.69140300  1
  H  1622  1  0.19485250  0.44175400  0.69167400  1
  H  1647  1  0.42791600  0.53901700  0.49278700  1
  H  1648  1  0.42854300  0.58870500  0.46899000  1
  H  1649  1  0.42734600  0.58933100  0.41318400  1
  H  1650  1  0.42339600  0.54012200  0.38929400  1
  H  1651  1  0.42186500  0.37035600  0.41122100  1
  H  1652  1  0.42513800  0.36968000  0.47064700  1
  H  1653  1  0.54441700  0.44786200  0.44083300  1
  H  1654  1  0.63153100  0.27799500  0.44102600  1
  H  1655  1  0.53642000  0.22899200  0.44107600  1
  H  1656  1  0.30650800  0.44787500  0.44108700  1
  H  1657  1  0.31453700  0.22897200  0.44131800  1
  H  1658  1  0.21942500  0.27794600  0.44138400  1
  H  1661  1  0.38836400  0.57432100  0.44111400  1
  H  1662  1  0.46865800  0.57228600  0.44102900  1
  H  1664  1  0.42524600  0.24473000  0.43105400  1
  H  1665  1  0.42569200  0.24512800  0.45122300  1
  H  1669  1  0.42582200  0.37436600  0.49894600  1
  H  1670  1  0.40209300  0.37947100  0.38292200  1
  H  1671  1  0.19352950  0.44205100  0.44122700  1
  H  1673  1  0.65735200  0.44212800  0.44089800  1
  H  1680  1  0.37262900  0.36671000  0.27746900  1
  H  1685  1  0.50828000  0.49994700  0.27995600  1
  H  1690  1  0.36648300  0.37200800  0.35476100  1
  H  1691  1  0.49925900  0.50816300  0.35245700  1
  H  1704  1  0.53632000  0.42640100  0.10224700  1
  H  1705  1  0.34638600  0.42665400  0.10520400  1
  H  1715  1  0.42646200  0.53910100  0.60448500  1
  H  1720  1  0.42623100  0.34899200  0.60348200  1
  H  1725  1  0.42654500  0.53967000  0.52820400  1
  H  1726  1  0.42619500  0.34954800  0.52903000  1
  H  1737  1  0.47038500  0.08010750  0.19127800  1
  H  1742  1  0.28027200  0.07084150  0.19124500  1
  H  1747  1  0.47046200  0.77198000  0.19141200  1
  H  1748  1  0.28034200  0.78117000  0.19136500  1
  H  1759  1  0.77267300  0.46891500  0.69144000  1
  H  1764  1  0.78193200  0.27879800  0.69149100  1
  H  1769  1  0.08080750  0.46896500  0.69156800  1
  H  1770  1  0.07159550  0.27884800  0.69160600  1
  H  1781  1  0.07957950  0.46924500  0.44120500  1
  H  1786  1  0.07026750  0.27913200  0.44124300  1
  H  1791  1  0.77143600  0.46936100  0.44104700  1
  H  1792  1  0.78062100  0.27923800  0.44110100  1
  H  2629  1  0.48606500  0.37252000  0.77778900  1
  H  2630  1  0.35294600  0.50831800  0.78020300  1
  H  2677  1  0.31187200  0.42783300  0.99298000  1
  H  2678  1  0.26273600  0.42849700  0.96908400  1
  H  2679  1  0.26310800  0.42744500  0.91336600  1
  H  2680  1  0.31253400  0.42358400  0.88951600  1
  H  2681  1  0.48210600  0.42199800  0.91154400  1
  H  2682  1  0.48168600  0.42515600  0.97104700  1
  H  2683  1  0.40447300  0.54454000  0.94115700  1
  H  2684  1  0.57444400  0.63149400  0.94118500  1
  H  2685  1  0.62334400  0.53635100  0.94126700  1
  H  2686  1  0.40445500  0.30648000  0.94139500  1
  H  2687  1  0.62335700  0.31468600  0.94150800  1
  H  2688  1  0.57448000  0.21954400  0.94153700  1
  H  2691  1  0.27776700  0.38837700  0.94126100  1
  H  2692  1  0.27977800  0.46868100  0.94119000  1
  H  2694  1  0.60742400  0.42529200  0.93129400  1
  H  2695  1  0.60725900  0.42572800  0.95146600  1
  H  2699  1  0.47623300  0.42577000  0.99911400  1
  H  2700  1  0.47319300  0.40238000  0.88321900  1
  H  2701  1  0.41042900  0.19348150  0.94144100  1
  H  2703  1  0.41036400  0.65749000  0.94112600  1
  H  2713  1  0.48066700  0.36679000  0.85506900  1
  H  2714  1  0.34463100  0.49966900  0.85272500  1
  H  2724  1  0.50813800  0.42622700  0.02581850  1
  H  2725  1  0.31942400  0.42658000  0.03203950  1
  H  2734  1  0.38336200  0.07959750  0.94134200  1
  H  2739  1  0.57347600  0.07034950  0.94140400  1
  H  2744  1  0.38326000  0.77149800  0.94118900  1
  H  2745  1  0.57338000  0.78063400  0.94126600  1
  N  156  1  0.06586200  0.06312600  0.24343400  1
  N  166  1  0.06272200  0.06591400  0.27519200  1
  N  174  1  0.04211600  0.02677300  0.20416600  1
  N  175  1  0.02616600  0.04148200  0.31442300  1
  N  177  1  0.01081800  0.04185200  0.70444300  1
  N  180  1  0.97494600  0.01893500  0.02671900  1
  N  188  1  0.04372300  0.01901100  0.06453700  1
  N  191  1  0.01872000  0.98451200  0.52575700  1
  N  201  1  0.01868400  0.98475800  0.49305300  1
  N  209  1  0.01864400  0.04142000  0.56486500  1
  N  210  1  0.01877700  0.04223700  0.45399600  1
  N  213  1  0.91767600  0.58196200  0.13442300  1
  N  223  1  0.91771200  0.45485300  0.13447600  1
  N  231  1  0.96009000  0.73897800  0.13435000  1
  N  232  1  0.96015800  0.29784800  0.13453900  1
  N  235  1  0.45560200  0.91620000  0.63462700  1
  N  245  1  0.58270600  0.91622800  0.63467700  1
  N  253  1  0.29858700  0.95861400  0.63459500  1
  N  254  1  0.73971600  0.95865000  0.63477400  1
  N  257  1  0.58140000  0.91655800  0.38433500  1
  N  267  1  0.45430400  0.91661000  0.38427300  1
  N  275  1  0.73842700  0.95892100  0.38436500  1
  N  276  1  0.29730100  0.95904400  0.38414700  1
  N  1106  1  0.97454400  0.06605500  0.74370100  1
  N  1189  1  0.97171000  0.06308000  0.77546800  1
  N  1196  1  0.99600300  0.02649000  0.81470700  1
  N  1201  1  0.96332600  0.01891200  0.99461800  1
  N  1207  1  0.99364000  0.01880100  0.95441700  1
  N  1210  1  0.12086700  0.58146200  0.88447500  1
  N  1220  1  0.12082000  0.45433500  0.88441400  1
  N  1228  1  0.07841600  0.73848100  0.88454200  1
  N  1229  1  0.07830700  0.29733500  0.88433100  1
  N  1676  1  0.47346800  0.47073200  0.30030500  1
  N  1686  1  0.47032800  0.47352000  0.33206300  1
  N  1694  1  0.44972200  0.43437900  0.26103700  1
  N  1695  1  0.43377200  0.44908800  0.37129400  1
  N  1697  1  0.41842400  0.44945800  0.76131400  1
  N  1700  1  0.38255200  0.42654100  0.08358950  1
  N  1708  1  0.45132900  0.42661700  0.12140800  1
  N  1711  1  0.42632600  0.39211800  0.58262800  1
  N  1721  1  0.42629000  0.39236400  0.54992400  1
  N  1729  1  0.42625000  0.44902600  0.62173600  1
  N  1730  1  0.42638300  0.44984300  0.51086700  1
  N  1733  1  0.32528200  0.98956800  0.19129400  1
  N  1743  1  0.32531800  0.86245900  0.19134700  1
  N  1751  1  0.36769600  0.14658350  0.19122100  1
  N  1752  1  0.36776400  0.70545400  0.19141000  1
  N  1755  1  0.86320800  0.32380600  0.69149800  1
  N  1765  1  0.99031200  0.32383400  0.69154800  1
  N  1773  1  0.70619300  0.36622000  0.69146600  1
  N  1774  1  0.14732150  0.36625600  0.69164500  1
  N  1777  1  0.98900600  0.32416400  0.44120600  1
  N  1787  1  0.86191000  0.32421600  0.44114400  1
  N  1795  1  0.14603250  0.36652700  0.44123600  1
  N  1796  1  0.70490700  0.36665000  0.44101800  1
  N  2626  1  0.38215000  0.47366100  0.80057200  1
  N  2709  1  0.37931600  0.47068600  0.83233900  1
  N  2716  1  0.40360900  0.43409600  0.87157800  1
  N  2721  1  0.37093200  0.42651800  0.05148850  1
  N  2727  1  0.40124600  0.42640700  0.01128750  1
  N  2730  1  0.52847300  0.98906800  0.94134600  1
  N  2740  1  0.52842600  0.86194100  0.94128500  1
  N  2748  1  0.48602200  0.14608650  0.94141300  1
  N  2749  1  0.48591300  0.70494100  0.94120200  1
  O  172  1  0.91006400  0.91105800  0.27463000  1
  O  173  1  0.91151600  0.90993900  0.24378600  1
  O  187  1  0.19128300  0.01862800  0.02087900  1
  O  207  1  0.01905300  0.20232900  0.49418000  1
  O  208  1  0.01901200  0.20210000  0.52483500  1
  O  229  1  0.13500500  0.45708600  0.13452600  1
  O  230  1  0.13496600  0.57985600  0.13447100  1
  O  251  1  0.58049600  0.13351900  0.63462300  1
  O  252  1  0.45772100  0.13349100  0.63457100  1
  O  273  1  0.45655400  0.13390100  0.38422900  1
  O  274  1  0.57933000  0.13384600  0.38429200  1
  O  1111  1  0.12761000  0.91159000  0.74412500  1
  O  1195  1  0.12644900  0.91030100  0.77496700  1
  O  1206  1  0.18010800  0.01855500  0.99025600  1
  O  1226  1  0.90352800  0.45659800  0.88433300  1
  O  1227  1  0.90357800  0.57936600  0.88439600  1
  O  1692  1  0.31767000  0.31866400  0.33150100  1
  O  1693  1  0.31912200  0.31754500  0.30065700  1
  O  1707  1  0.59888900  0.42623400  0.07774950  1
  O  1727  1  0.42665900  0.60993500  0.55105100  1
  O  1728  1  0.42661800  0.60970600  0.58170600  1
  O  1749  1  0.54261100  0.86469200  0.19139700  1
  O  1750  1  0.54257200  0.98746200  0.19134200  1
  O  1771  1  0.98810200  0.54112500  0.69149400  1
  O  1772  1  0.86532700  0.54109700  0.69144200  1
  O  1793  1  0.86416000  0.54150700  0.44110000  1
  O  1794  1  0.98693600  0.54145200  0.44116300  1
  O  2631  1  0.53521600  0.31919600  0.80099600  1
  O  2715  1  0.53405500  0.31790700  0.83183800  1
  O  2726  1  0.58771400  0.42616100  0.04712650  1
  O  2746  1  0.31113400  0.86420400  0.94120400  1
  O  2747  1  0.31118400  0.98697200  0.94126700  1
