# generated using pymatgen
data_TbCu4H12C18I4(NO2)3
_symmetry_space_group_name_H-M   'P 1'
_cell_length_a   8.05460000
_cell_length_b   15.31800000
_cell_length_c   29.44400000
_cell_angle_alpha   99.92000000
_cell_angle_beta   90.00000000
_cell_angle_gamma   90.00000000
_symmetry_Int_Tables_number   1
_chemical_formula_structural   TbCu4H12C18I4(NO2)3
_chemical_formula_sum   'Tb4 Cu16 H48 C72 I16 N12 O24'
_cell_volume   3578.49815289
_cell_formula_units_Z   4
loop_
 _symmetry_equiv_pos_site_id
 _symmetry_equiv_pos_as_xyz
  1  'x, y, z'
loop_
 _atom_site_type_symbol
 _atom_site_label
 _atom_site_symmetry_multiplicity
 _atom_site_fract_x
 _atom_site_fract_y
 _atom_site_fract_z
 _atom_site_occupancy
  Tb  Tb1  1  0.25444000  0.95225000  0.49040000  1.0
  Tb  Tb2  1  0.75444000  0.54775000  0.00960000  1.0
  Tb  Tb3  1  0.74556000  0.04775000  0.50960000  1.0
  Tb  Tb4  1  0.24556000  0.45225000  0.99040000  1.0
  Cu  Cu1  1  0.42210000  0.42949000  0.24799000  1.0
  Cu  Cu2  1  0.69420000  0.35598000  0.28455000  1.0
  Cu  Cu3  1  0.57230000  0.50659000  0.32809000  1.0
  Cu  Cu4  1  0.37690000  0.35071000  0.31906000  1.0
  Cu  Cu5  1  0.92210000  0.07051000  0.25201000  1.0
  Cu  Cu6  1  0.19420000  0.14402000  0.21545000  1.0
  Cu  Cu7  1  0.07230000  0.99341000  0.17191000  1.0
  Cu  Cu8  1  0.87690000  0.14929000  0.18094000  1.0
  Cu  Cu9  1  0.57790000  0.57051000  0.75201000  1.0
  Cu  Cu10  1  0.30580000  0.64402000  0.71545000  1.0
  Cu  Cu11  1  0.42770000  0.49341000  0.67191000  1.0
  Cu  Cu12  1  0.62310000  0.64929000  0.68094000  1.0
  Cu  Cu13  1  0.07790000  0.92949000  0.74799000  1.0
  Cu  Cu14  1  0.80580000  0.85598000  0.78455000  1.0
  Cu  Cu15  1  0.92770000  0.00659000  0.82809000  1.0
  Cu  Cu16  1  0.12310000  0.85071000  0.81906000  1.0
  H  H1  1  0.61900000  0.13550000  0.40280000  1.0
  H  H2  1  0.74280000  0.91740000  0.27840000  1.0
  H  H3  1  0.57770000  0.88180000  0.33650000  1.0
  H  H4  1  0.90330000  0.56870000  0.36540000  1.0
  H  H5  1  0.77300000  0.16570000  0.34100000  1.0
  H  H6  1  0.02940000  0.69310000  0.40810000  1.0
  H  H7  1  0.47680000  0.69240000  0.36860000  1.0
  H  H8  1  0.96520000  0.26990000  0.43150000  1.0
  H  H9  1  0.10030000  0.35970000  0.38770000  1.0
  H  H10  1  0.58980000  0.82010000  0.41280000  1.0
  H  H11  1  0.25410000  0.06640000  0.37280000  1.0
  H  H12  1  0.37420000  0.16080000  0.32800000  1.0
  H  H13  1  0.11900000  0.36450000  0.09720000  1.0
  H  H14  1  0.24280000  0.58260000  0.22160000  1.0
  H  H15  1  0.07770000  0.61820000  0.16350000  1.0
  H  H16  1  0.40330000  0.93130000  0.13460000  1.0
  H  H17  1  0.27300000  0.33430000  0.15900000  1.0
  H  H18  1  0.52940000  0.80690000  0.09190000  1.0
  H  H19  1  0.97680000  0.80760000  0.13140000  1.0
  H  H20  1  0.46520000  0.23010000  0.06850000  1.0
  H  H21  1  0.60030000  0.14030000  0.11230000  1.0
  H  H22  1  0.08980000  0.67990000  0.08720000  1.0
  H  H23  1  0.75410000  0.43360000  0.12720000  1.0
  H  H24  1  0.87420000  0.33920000  0.17200000  1.0
  H  H25  1  0.38100000  0.86450000  0.59720000  1.0
  H  H26  1  0.25720000  0.08260000  0.72160000  1.0
  H  H27  1  0.42230000  0.11820000  0.66350000  1.0
  H  H28  1  0.09670000  0.43130000  0.63460000  1.0
  H  H29  1  0.22700000  0.83430000  0.65900000  1.0
  H  H30  1  0.97060000  0.30690000  0.59190000  1.0
  H  H31  1  0.52320000  0.30760000  0.63140000  1.0
  H  H32  1  0.03480000  0.73010000  0.56850000  1.0
  H  H33  1  0.89970000  0.64030000  0.61230000  1.0
  H  H34  1  0.41020000  0.17990000  0.58720000  1.0
  H  H35  1  0.74590000  0.93360000  0.62720000  1.0
  H  H36  1  0.62580000  0.83920000  0.67200000  1.0
  H  H37  1  0.88100000  0.63550000  0.90280000  1.0
  H  H38  1  0.75720000  0.41740000  0.77840000  1.0
  H  H39  1  0.92230000  0.38180000  0.83650000  1.0
  H  H40  1  0.59670000  0.06870000  0.86540000  1.0
  H  H41  1  0.72700000  0.66570000  0.84100000  1.0
  H  H42  1  0.47060000  0.19310000  0.90810000  1.0
  H  H43  1  0.02320000  0.19240000  0.86860000  1.0
  H  H44  1  0.53480000  0.76990000  0.93150000  1.0
  H  H45  1  0.39970000  0.85970000  0.88770000  1.0
  H  H46  1  0.91020000  0.32010000  0.91280000  1.0
  H  H47  1  0.24590000  0.56640000  0.87280000  1.0
  H  H48  1  0.12580000  0.66080000  0.82800000  1.0
  C  C1  1  0.48220000  0.98240000  0.41650000  1.0
  C  C2  1  0.09650000  0.15810000  0.40770000  1.0
  C  C3  1  0.58370000  0.00290000  0.37690000  1.0
  C  C4  1  0.64270000  0.08960000  0.37750000  1.0
  C  C5  1  0.02020000  0.10000000  0.43830000  1.0
  C  C6  1  0.71690000  0.96250000  0.30380000  1.0
  C  C7  1  0.82240000  0.76950000  0.41510000  1.0
  C  C8  1  0.61970000  0.94040000  0.33880000  1.0
  C  C9  1  0.83830000  0.62020000  0.37540000  1.0
  C  C10  1  0.73570000  0.10680000  0.34060000  1.0
  C  C11  1  0.91470000  0.69430000  0.40080000  1.0
  C  C12  1  0.59020000  0.69200000  0.37740000  1.0
  C  C13  1  0.05140000  0.24610000  0.41110000  1.0
  C  C14  1  0.13210000  0.29930000  0.38460000  1.0
  C  C15  1  0.65700000  0.76920000  0.40340000  1.0
  C  C16  1  0.89970000  0.85430000  0.44450000  1.0
  C  C17  1  0.21970000  0.12650000  0.37640000  1.0
  C  C18  1  0.29270000  0.18360000  0.35020000  1.0
  C  C19  1  0.98220000  0.51760000  0.08350000  1.0
  C  C20  1  0.59650000  0.34190000  0.09230000  1.0
  C  C21  1  0.08370000  0.49710000  0.12310000  1.0
  C  C22  1  0.14270000  0.41040000  0.12250000  1.0
  C  C23  1  0.52020000  0.40000000  0.06170000  1.0
  C  C24  1  0.21690000  0.53750000  0.19620000  1.0
  C  C25  1  0.32240000  0.73050000  0.08490000  1.0
  C  C26  1  0.11970000  0.55960000  0.16120000  1.0
  C  C27  1  0.33830000  0.87980000  0.12460000  1.0
  C  C28  1  0.23570000  0.39320000  0.15940000  1.0
  C  C29  1  0.41470000  0.80570000  0.09920000  1.0
  C  C30  1  0.09020000  0.80800000  0.12260000  1.0
  C  C31  1  0.55140000  0.25390000  0.08890000  1.0
  C  C32  1  0.63210000  0.20070000  0.11540000  1.0
  C  C33  1  0.15700000  0.73080000  0.09660000  1.0
  C  C34  1  0.39970000  0.64570000  0.05550000  1.0
  C  C35  1  0.71970000  0.37350000  0.12360000  1.0
  C  C36  1  0.79270000  0.31640000  0.14980000  1.0
  C  C37  1  0.51780000  0.01760000  0.58350000  1.0
  C  C38  1  0.90350000  0.84190000  0.59230000  1.0
  C  C39  1  0.41630000  0.99710000  0.62310000  1.0
  C  C40  1  0.35730000  0.91040000  0.62250000  1.0
  C  C41  1  0.97980000  0.90000000  0.56170000  1.0
  C  C42  1  0.28310000  0.03750000  0.69620000  1.0
  C  C43  1  0.17760000  0.23050000  0.58490000  1.0
  C  C44  1  0.38030000  0.05960000  0.66120000  1.0
  C  C45  1  0.16170000  0.37980000  0.62460000  1.0
  C  C46  1  0.26430000  0.89320000  0.65940000  1.0
  C  C47  1  0.08530000  0.30570000  0.59920000  1.0
  C  C48  1  0.40980000  0.30800000  0.62260000  1.0
  C  C49  1  0.94860000  0.75390000  0.58890000  1.0
  C  C50  1  0.86790000  0.70070000  0.61540000  1.0
  C  C51  1  0.34300000  0.23080000  0.59660000  1.0
  C  C52  1  0.10030000  0.14570000  0.55550000  1.0
  C  C53  1  0.78030000  0.87350000  0.62360000  1.0
  C  C54  1  0.70730000  0.81640000  0.64980000  1.0
  C  C55  1  0.01780000  0.48240000  0.91650000  1.0
  C  C56  1  0.40350000  0.65810000  0.90770000  1.0
  C  C57  1  0.91630000  0.50290000  0.87690000  1.0
  C  C58  1  0.85730000  0.58960000  0.87750000  1.0
  C  C59  1  0.47980000  0.60000000  0.93830000  1.0
  C  C60  1  0.78310000  0.46250000  0.80380000  1.0
  C  C61  1  0.67760000  0.26950000  0.91510000  1.0
  C  C62  1  0.88030000  0.44040000  0.83880000  1.0
  C  C63  1  0.66170000  0.12020000  0.87540000  1.0
  C  C64  1  0.76430000  0.60680000  0.84060000  1.0
  C  C65  1  0.58530000  0.19430000  0.90080000  1.0
  C  C66  1  0.90980000  0.19200000  0.87740000  1.0
  C  C67  1  0.44860000  0.74610000  0.91110000  1.0
  C  C68  1  0.36790000  0.79930000  0.88460000  1.0
  C  C69  1  0.84300000  0.26920000  0.90340000  1.0
  C  C70  1  0.60030000  0.35430000  0.94450000  1.0
  C  C71  1  0.28030000  0.62650000  0.87640000  1.0
  C  C72  1  0.20730000  0.68360000  0.85020000  1.0
  I  I1  1  0.66510000  0.37342000  0.37490000  1.0
  I  I2  1  0.45439000  0.25049000  0.23856000  1.0
  I  I3  1  0.72810000  0.49737000  0.24757000  1.0
  I  I4  1  0.24632000  0.50933000  0.32475000  1.0
  I  I5  1  0.16510000  0.12658000  0.12510000  1.0
  I  I6  1  0.95439000  0.24951000  0.26144000  1.0
  I  I7  1  0.22810000  0.00263000  0.25243000  1.0
  I  I8  1  0.74632000  0.99067000  0.17525000  1.0
  I  I9  1  0.33490000  0.62658000  0.62510000  1.0
  I  I10  1  0.54561000  0.74951000  0.76144000  1.0
  I  I11  1  0.27190000  0.50263000  0.75243000  1.0
  I  I12  1  0.75368000  0.49067000  0.67525000  1.0
  I  I13  1  0.83490000  0.87342000  0.87490000  1.0
  I  I14  1  0.04561000  0.75049000  0.73856000  1.0
  I  I15  1  0.77190000  0.99737000  0.74757000  1.0
  I  I16  1  0.25368000  0.00933000  0.82475000  1.0
  N  N1  1  0.25220000  0.26930000  0.35520000  1.0
  N  N2  1  0.77700000  0.04470000  0.30380000  1.0
  N  N3  1  0.67750000  0.61830000  0.36450000  1.0
  N  N4  1  0.75220000  0.23070000  0.14480000  1.0
  N  N5  1  0.27700000  0.45530000  0.19620000  1.0
  N  N6  1  0.17750000  0.88170000  0.13550000  1.0
  N  N7  1  0.74780000  0.73070000  0.64480000  1.0
  N  N8  1  0.22300000  0.95530000  0.69620000  1.0
  N  N9  1  0.32250000  0.38170000  0.63550000  1.0
  N  N10  1  0.24780000  0.76930000  0.85520000  1.0
  N  N11  1  0.72300000  0.54470000  0.80380000  1.0
  N  N12  1  0.82250000  0.11830000  0.86450000  1.0
  O  O1  1  0.50450000  0.02610000  0.45730000  1.0
  O  O2  1  0.05210000  0.85340000  0.45230000  1.0
  O  O3  1  0.11240000  0.03890000  0.44860000  1.0
  O  O4  1  0.87780000  0.11500000  0.45260000  1.0
  O  O5  1  0.37400000  0.92230000  0.41010000  1.0
  O  O6  1  0.80000000  0.91790000  0.45650000  1.0
  O  O7  1  0.00450000  0.47390000  0.04270000  1.0
  O  O8  1  0.55210000  0.64660000  0.04770000  1.0
  O  O9  1  0.61240000  0.46110000  0.05140000  1.0
  O  O10  1  0.37780000  0.38500000  0.04740000  1.0
  O  O11  1  0.87400000  0.57770000  0.08990000  1.0
  O  O12  1  0.30000000  0.58210000  0.04350000  1.0
  O  O13  1  0.49550000  0.97390000  0.54270000  1.0
  O  O14  1  0.94790000  0.14660000  0.54770000  1.0
  O  O15  1  0.88760000  0.96110000  0.55140000  1.0
  O  O16  1  0.12220000  0.88500000  0.54740000  1.0
  O  O17  1  0.62600000  0.07770000  0.58990000  1.0
  O  O18  1  0.20000000  0.08210000  0.54350000  1.0
  O  O19  1  0.99550000  0.52610000  0.95730000  1.0
  O  O20  1  0.44790000  0.35340000  0.95230000  1.0
  O  O21  1  0.38760000  0.53890000  0.94860000  1.0
  O  O22  1  0.62220000  0.61500000  0.95260000  1.0
  O  O23  1  0.12600000  0.42230000  0.91010000  1.0
  O  O24  1  0.70000000  0.41790000  0.95650000  1.0
