# generated using pymatgen
data_Cd2H18C25S2(NO4)2
_symmetry_space_group_name_H-M   'P 1'
_cell_length_a   10.21290000
_cell_length_b   10.65640000
_cell_length_c   28.21217000
_cell_angle_alpha   89.82429000
_cell_angle_beta   89.84789000
_cell_angle_gamma   103.72036000
_symmetry_Int_Tables_number   1
_chemical_formula_structural   Cd2H18C25S2(NO4)2
_chemical_formula_sum   'Cd8 H72 C100 S8 N8 O32'
_cell_volume   2982.76146863
_cell_formula_units_Z   4
loop_
 _symmetry_equiv_pos_site_id
 _symmetry_equiv_pos_as_xyz
  1  'x, y, z'
loop_
 _atom_site_type_symbol
 _atom_site_label
 _atom_site_symmetry_multiplicity
 _atom_site_fract_x
 _atom_site_fract_y
 _atom_site_fract_z
 _atom_site_occupancy
  Cd  Cd1  1  0.06169000  0.94241000  0.30508000  1.0
  Cd  Cd2  1  0.08365000  0.10794000  0.41267000  1.0
  Cd  Cd3  1  0.44133000  0.55762000  0.80428000  1.0
  Cd  Cd4  1  0.41690000  0.39001000  0.91248000  1.0
  Cd  Cd5  1  0.93831000  0.05759000  0.69492000  1.0
  Cd  Cd6  1  0.91635000  0.89207000  0.58732000  1.0
  Cd  Cd7  1  0.55867000  0.44239000  0.19571000  1.0
  Cd  Cd8  1  0.58310000  0.60999000  0.08752000  1.0
  H  H1  1  0.53971000  0.27917000  0.37733000  1.0
  H  H2  1  0.78873000  0.24489000  0.37860000  1.0
  H  H3  1  0.79705000  0.42732000  0.48651000  1.0
  H  H4  1  0.80430000  0.67792000  0.47524000  1.0
  H  H5  1  0.81777000  0.85909000  0.23235000  1.0
  H  H6  1  0.75650000  0.92629000  0.15197000  1.0
  H  H7  1  0.17480000  0.12375000  0.13297000  1.0
  H  H8  1  0.22057000  0.04198000  0.21285000  1.0
  H  H9  1  0.00463000  0.09870000  0.06481000  1.0
  H  H10  1  0.82974000  0.04025000  0.07713000  1.0
  H  H11  1  0.00734000  0.28643000  0.12079000  1.0
  H  H12  1  0.83174000  0.23291000  0.12747000  1.0
  H  H13  1  0.80302000  0.26573000  0.03951000  1.0
  H  H14  1  0.87810000  0.40802000  0.07073000  1.0
  H  H15  1  0.93663000  0.17281000  0.98089000  1.0
  H  H16  1  0.14543000  0.21010000  0.93123000  1.0
  H  H17  1  0.32568000  0.53676000  0.00783000  1.0
  H  H18  1  0.12825000  0.50961000  0.06166000  1.0
  H  H19  1  0.96081000  0.22217000  0.87924000  1.0
  H  H20  1  0.71204000  0.25722000  0.87989000  1.0
  H  H21  1  0.70134000  0.06994000  0.98600000  1.0
  H  H22  1  0.69585000  0.81985000  0.97408000  1.0
  H  H23  1  0.68200000  0.64184000  0.73018000  1.0
  H  H24  1  0.74291000  0.57547000  0.64976000  1.0
  H  H25  1  0.32464000  0.37747000  0.63217000  1.0
  H  H26  1  0.27942000  0.45792000  0.71223000  1.0
  H  H27  1  0.49478000  0.40275000  0.56346000  1.0
  H  H28  1  0.66962000  0.46183000  0.57530000  1.0
  H  H29  1  0.49304000  0.21572000  0.62022000  1.0
  H  H30  1  0.66860000  0.26977000  0.62621000  1.0
  H  H31  1  0.69707000  0.23559000  0.53842000  1.0
  H  H32  1  0.62233000  0.09388000  0.57045000  1.0
  H  H33  1  0.56301000  0.32732000  0.47955000  1.0
  H  H34  1  0.35513000  0.28743000  0.42989000  1.0
  H  H35  1  0.17584000  0.96164000  0.50825000  1.0
  H  H36  1  0.37244000  0.99102000  0.56200000  1.0
  H  H37  1  0.46029000  0.72083000  0.62267000  1.0
  H  H38  1  0.21127000  0.75511000  0.62140000  1.0
  H  H39  1  0.20295000  0.57268000  0.51349000  1.0
  H  H40  1  0.19570000  0.32209000  0.52475000  1.0
  H  H41  1  0.18223000  0.14092000  0.76764000  1.0
  H  H42  1  0.24350000  0.07371000  0.84803000  1.0
  H  H43  1  0.82520000  0.87625000  0.86703000  1.0
  H  H44  1  0.77943000  0.95803000  0.78715000  1.0
  H  H45  1  0.99537000  0.90131000  0.93519000  1.0
  H  H46  1  0.17026000  0.95975000  0.92287000  1.0
  H  H47  1  0.99266000  0.71358000  0.87921000  1.0
  H  H48  1  0.16826000  0.76709000  0.87253000  1.0
  H  H49  1  0.19698000  0.73427000  0.96049000  1.0
  H  H50  1  0.12190000  0.59199000  0.92927000  1.0
  H  H51  1  0.06337000  0.82720000  0.01911000  1.0
  H  H52  1  0.85457000  0.78990000  0.06877000  1.0
  H  H53  1  0.67432000  0.46324000  0.99216000  1.0
  H  H54  1  0.87175000  0.49039000  0.93834000  1.0
  H  H55  1  0.03919000  0.77783000  0.12075000  1.0
  H  H56  1  0.28796000  0.74279000  0.12010000  1.0
  H  H57  1  0.29866000  0.93006000  0.01400000  1.0
  H  H58  1  0.30415000  0.18016000  0.02591000  1.0
  H  H59  1  0.31800000  0.35816000  0.26982000  1.0
  H  H60  1  0.25709000  0.42454000  0.35024000  1.0
  H  H61  1  0.67536000  0.62253000  0.36783000  1.0
  H  H62  1  0.72058000  0.54209000  0.28777000  1.0
  H  H63  1  0.50522000  0.59726000  0.43653000  1.0
  H  H64  1  0.33038000  0.53818000  0.42469000  1.0
  H  H65  1  0.50696000  0.78428000  0.37977000  1.0
  H  H66  1  0.33140000  0.73024000  0.37379000  1.0
  H  H67  1  0.30293000  0.76442000  0.46158000  1.0
  H  H68  1  0.37767000  0.90612000  0.42955000  1.0
  H  H69  1  0.43699000  0.67268000  0.52044000  1.0
  H  H70  1  0.64487000  0.71257000  0.57010000  1.0
  H  H71  1  0.82416000  0.03836000  0.49175000  1.0
  H  H72  1  0.62756000  0.00899000  0.43800000  1.0
  C  C1  1  0.48210000  0.10116000  0.33711000  1.0
  C  C2  1  0.57086000  0.19842000  0.36137000  1.0
  C  C3  1  0.70340000  0.18090000  0.36165000  1.0
  C  C4  1  0.71323000  0.06826000  0.33864000  1.0
  C  C5  1  0.33545000  0.08207000  0.33048000  1.0
  C  C6  1  0.83205000  0.01557000  0.33136000  1.0
  C  C7  1  0.95885000  0.45313000  0.43477000  1.0
  C  C8  1  0.86274000  0.49259000  0.46214000  1.0
  C  C9  1  0.86714000  0.62536000  0.45634000  1.0
  C  C10  1  0.96501000  0.68460000  0.42381000  1.0
  C  C11  1  0.99489000  0.32701000  0.43289000  1.0
  C  C12  1  0.00868000  0.82028000  0.40853000  1.0
  C  C13  1  0.89376000  0.91592000  0.20880000  1.0
  C  C14  1  0.86012000  0.95592000  0.16444000  1.0
  C  C15  1  0.96001000  0.03506000  0.13639000  1.0
  C  C16  1  0.09273000  0.06413000  0.15357000  1.0
  C  C17  1  0.11937000  0.01967000  0.19800000  1.0
  C  C18  1  0.92563000  0.09647000  0.09154000  1.0
  C  C19  1  0.91528000  0.23573000  0.10253000  1.0
  C  C20  1  0.89443000  0.31502000  0.05856000  1.0
  C  C21  1  0.01449000  0.33800000  0.02599000  1.0
  C  C22  1  0.02136000  0.25358000  0.98851000  1.0
  C  C23  1  0.13660000  0.27375000  0.96052000  1.0
  C  C24  1  0.23864000  0.45614000  0.00329000  1.0
  C  C25  1  0.12702000  0.44063000  0.03315000  1.0
  C  C26  1  0.01942000  0.39803000  0.83729000  1.0
  C  C27  1  0.93000000  0.30202000  0.86231000  1.0
  C  C28  1  0.79765000  0.31994000  0.86230000  1.0
  C  C29  1  0.78806000  0.43105000  0.83798000  1.0
  C  C30  1  0.16644000  0.41585000  0.83127000  1.0
  C  C31  1  0.66831000  0.48187000  0.83045000  1.0
  C  C32  1  0.53965000  0.04454000  0.93456000  1.0
  C  C33  1  0.63612000  0.00506000  0.96163000  1.0
  C  C34  1  0.63278000  0.87269000  0.95546000  1.0
  C  C35  1  0.53535000  0.81407000  0.92298000  1.0
  C  C36  1  0.50172000  0.16971000  0.93280000  1.0
  C  C37  1  0.49197000  0.67870000  0.90773000  1.0
  C  C38  1  0.60589000  0.58504000  0.70695000  1.0
  C  C39  1  0.63933000  0.54554000  0.66252000  1.0
  C  C40  1  0.53938000  0.46659000  0.63484000  1.0
  C  C41  1  0.40676000  0.43709000  0.65246000  1.0
  C  C42  1  0.38042000  0.48089000  0.69699000  1.0
  C  C43  1  0.57385000  0.40536000  0.59004000  1.0
  C  C44  1  0.58481000  0.26639000  0.60150000  1.0
  C  C45  1  0.60571000  0.18654000  0.55784000  1.0
  C  C46  1  0.48574000  0.16256000  0.52549000  1.0
  C  C47  1  0.47872000  0.24618000  0.48758000  1.0
  C  C48  1  0.36396000  0.22462000  0.45958000  1.0
  C  C49  1  0.26243000  0.04264000  0.50329000  1.0
  C  C50  1  0.37366000  0.05947000  0.53314000  1.0
  C  C51  1  0.51790000  0.89884000  0.66289000  1.0
  C  C52  1  0.42914000  0.80158000  0.63863000  1.0
  C  C53  1  0.29660000  0.81910000  0.63834000  1.0
  C  C54  1  0.28677000  0.93174000  0.66135000  1.0
  C  C55  1  0.66455000  0.91794000  0.66952000  1.0
  C  C56  1  0.16795000  0.98444000  0.66864000  1.0
  C  C57  1  0.04115000  0.54688000  0.56522000  1.0
  C  C58  1  0.13726000  0.50741000  0.53786000  1.0
  C  C59  1  0.13286000  0.37465000  0.54366000  1.0
  C  C60  1  0.03499000  0.31541000  0.57619000  1.0
  C  C61  1  0.00511000  0.67299000  0.56711000  1.0
  C  C62  1  0.99132000  0.17972000  0.59147000  1.0
  C  C63  1  0.10624000  0.08409000  0.79120000  1.0
  C  C64  1  0.13988000  0.04409000  0.83555000  1.0
  C  C65  1  0.03999000  0.96495000  0.86361000  1.0
  C  C66  1  0.90727000  0.93587000  0.84643000  1.0
  C  C67  1  0.88063000  0.98034000  0.80199000  1.0
  C  C68  1  0.07437000  0.90353000  0.90846000  1.0
  C  C69  1  0.08472000  0.76428000  0.89747000  1.0
  C  C70  1  0.10557000  0.68498000  0.94144000  1.0
  C  C71  1  0.98551000  0.66200000  0.97400000  1.0
  C  C72  1  0.97864000  0.74642000  0.01149000  1.0
  C  C73  1  0.86340000  0.72626000  0.03948000  1.0
  C  C74  1  0.76136000  0.54386000  0.99670000  1.0
  C  C75  1  0.87298000  0.55938000  0.96685000  1.0
  C  C76  1  0.98058000  0.60198000  0.16270000  1.0
  C  C77  1  0.07000000  0.69798000  0.13769000  1.0
  C  C78  1  0.20235000  0.68007000  0.13769000  1.0
  C  C79  1  0.21194000  0.56896000  0.16201000  1.0
  C  C80  1  0.83356000  0.58415000  0.16872000  1.0
  C  C81  1  0.33169000  0.51814000  0.16954000  1.0
  C  C82  1  0.46035000  0.95546000  0.06544000  1.0
  C  C83  1  0.36388000  0.99495000  0.03837000  1.0
  C  C84  1  0.36722000  0.12732000  0.04454000  1.0
  C  C85  1  0.46465000  0.18594000  0.07701000  1.0
  C  C86  1  0.49829000  0.83030000  0.06720000  1.0
  C  C87  1  0.50803000  0.32131000  0.09226000  1.0
  C  C88  1  0.39411000  0.41496000  0.29305000  1.0
  C  C89  1  0.36067000  0.45446000  0.33747000  1.0
  C  C90  1  0.46062000  0.53342000  0.36515000  1.0
  C  C91  1  0.59324000  0.56291000  0.34754000  1.0
  C  C92  1  0.61958000  0.51912000  0.30300000  1.0
  C  C93  1  0.42615000  0.59465000  0.40996000  1.0
  C  C94  1  0.41519000  0.73362000  0.39850000  1.0
  C  C95  1  0.39429000  0.81347000  0.44215000  1.0
  C  C96  1  0.51426000  0.83744000  0.47450000  1.0
  C  C97  1  0.52128000  0.75383000  0.51242000  1.0
  C  C98  1  0.63604000  0.77539000  0.54042000  1.0
  C  C99  1  0.73757000  0.95736000  0.49671000  1.0
  C  C100  1  0.62634000  0.94054000  0.46686000  1.0
  S  S1  1  0.56092000  0.98748000  0.31481000  1.0
  S  S2  1  0.05125000  0.57757000  0.40071000  1.0
  S  S3  1  0.94095000  0.51068000  0.81363000  1.0
  S  S4  1  0.44835000  0.92096000  0.90035000  1.0
  S  S5  1  0.43908000  0.01252000  0.68519000  1.0
  S  S6  1  0.94875000  0.42243000  0.59928000  1.0
  S  S7  1  0.05905000  0.48933000  0.18637000  1.0
  S  S8  1  0.55165000  0.07904000  0.09965000  1.0
  N  N1  1  0.02089000  0.94867000  0.22584000  1.0
  N  N2  1  0.24377000  0.37380000  0.96744000  1.0
  N  N3  1  0.47898000  0.55183000  0.72446000  1.0
  N  N4  1  0.25731000  0.12407000  0.46694000  1.0
  N  N5  1  0.97911000  0.05134000  0.77416000  1.0
  N  N6  1  0.75623000  0.62620000  0.03256000  1.0
  N  N7  1  0.52102000  0.44817000  0.27554000  1.0
  N  N8  1  0.74269000  0.87594000  0.53306000  1.0
  O  O1  1  0.28436000  0.00097000  0.29768000  1.0
  O  O2  1  0.27171000  0.14298000  0.35687000  1.0
  O  O3  1  0.81728000  0.90245000  0.31447000  1.0
  O  O4  1  0.94987000  0.08873000  0.34038000  1.0
  O  O5  1  0.10366000  0.32546000  0.40951000  1.0
  O  O6  1  0.92084000  0.22839000  0.45246000  1.0
  O  O7  1  0.09275000  0.84313000  0.37375000  1.0
  O  O8  1  0.96616000  0.90608000  0.43118000  1.0
  O  O9  1  0.21985000  0.49401000  0.79764000  1.0
  O  O10  1  0.22784000  0.35641000  0.85907000  1.0
  O  O11  1  0.68177000  0.59417000  0.81249000  1.0
  O  O12  1  0.55128000  0.40806000  0.84039000  1.0
  O  O13  1  0.39290000  0.16994000  0.90954000  1.0
  O  O14  1  0.57454000  0.26887000  0.95223000  1.0
  O  O15  1  0.40908000  0.65644000  0.87279000  1.0
  O  O16  1  0.53335000  0.59282000  0.93086000  1.0
  O  O17  1  0.71564000  0.99903000  0.70231000  1.0
  O  O18  1  0.72829000  0.85702000  0.64313000  1.0
  O  O19  1  0.18272000  0.09756000  0.68553000  1.0
  O  O20  1  0.05013000  0.91128000  0.65962000  1.0
  O  O21  1  0.89634000  0.67455000  0.59048000  1.0
  O  O22  1  0.07916000  0.77162000  0.54754000  1.0
  O  O23  1  0.90725000  0.15688000  0.62625000  1.0
  O  O24  1  0.03384000  0.09393000  0.56881000  1.0
  O  O25  1  0.78015000  0.50600000  0.20236000  1.0
  O  O26  1  0.77216000  0.64360000  0.14092000  1.0
  O  O27  1  0.31823000  0.40583000  0.18750000  1.0
  O  O28  1  0.44872000  0.59195000  0.15961000  1.0
  O  O29  1  0.60710000  0.83007000  0.09046000  1.0
  O  O30  1  0.42546000  0.73114000  0.04776000  1.0
  O  O31  1  0.59092000  0.34357000  0.12721000  1.0
  O  O32  1  0.46665000  0.40719000  0.06913000  1.0
