# generated using pymatgen
data_H8C14N5O4
_symmetry_space_group_name_H-M   'P 1'
_cell_length_a   9.99846667
_cell_length_b   31.47945000
_cell_length_c   31.47940000
_cell_angle_alpha   119.99984237
_cell_angle_beta   90.00000000
_cell_angle_gamma   90.00000000
_symmetry_Int_Tables_number   1
_chemical_formula_structural   H8C14N5O4
_chemical_formula_sum   'H48 C84 N30 O24'
_cell_volume   8580.61283265
_cell_formula_units_Z   6
loop_
 _symmetry_equiv_pos_site_id
 _symmetry_equiv_pos_as_xyz
  1  'x, y, z'
loop_
 _atom_site_type_symbol
 _atom_site_label
 _atom_site_symmetry_multiplicity
 _atom_site_fract_x
 _atom_site_fract_y
 _atom_site_fract_z
 _atom_site_occupancy
  C  1  1  0.99543200  0.02617600  0.51346600  1
  C  2  1  0.02139800  0.05313600  0.56471600  1
  C  3  1  0.01182200  0.10465300  0.59221500  1
  C  4  1  0.99599800  0.13206700  0.56778000  1
  C  5  1  0.98080500  0.10602300  0.51586800  1
  C  6  1  0.97034000  0.05447400  0.49052400  1
  C  9  1  0.99534800  0.97362900  0.48651900  1
  C  10  1  0.97016900  0.94535700  0.50948300  1
  C  11  1  0.98057100  0.89381000  0.48415900  1
  C  12  1  0.99559300  0.86774100  0.43224100  1
  C  13  1  0.01141700  0.89513100  0.40778200  1
  C  14  1  0.02128300  0.94664700  0.43526900  1
  C  27  1  0.99522900  0.48716400  0.97368400  1
  C  28  1  0.02123200  0.51147400  0.94674300  1
  C  29  1  0.01132700  0.48749600  0.89523200  1
  C  30  1  0.99546300  0.43565300  0.86780000  1
  C  31  1  0.98047500  0.40976000  0.89382600  1
  C  32  1  0.96991000  0.43594000  0.94537100  1
  C  35  1  0.99529700  0.51271900  0.02622900  1
  C  36  1  0.97014000  0.56395600  0.05454400  1
  C  37  1  0.98085000  0.59014400  0.10608600  1
  C  38  1  0.99589300  0.56425600  0.13211600  1
  C  39  1  0.01153100  0.51240200  0.10468400  1
  C  40  1  0.02124900  0.48840600  0.05316700  1
  C  53  1  0.99554900  0.48639700  0.51271100  1
  C  54  1  0.02146500  0.43514200  0.48841800  1
  C  55  1  0.01169200  0.40763600  0.51243000  1
  C  56  1  0.99594400  0.43207400  0.56428200  1
  C  57  1  0.98093000  0.48399100  0.59015700  1
  C  58  1  0.97052500  0.50934000  0.56395600  1
  C  61  1  0.99544800  0.51336400  0.48713000  1
  C  62  1  0.97016000  0.49043200  0.43590200  1
  C  63  1  0.98061500  0.51578300  0.40970100  1
  C  64  1  0.99569400  0.56770000  0.43557500  1
  C  65  1  0.01150700  0.59213300  0.48742300  1
  C  66  1  0.02129900  0.56462200  0.51142700  1
  C  79  1  0.95832300  0.80615600  0.27847300  1
  C  81  1  0.13777600  0.75313500  0.22941700  1
  C  82  1  0.04268200  0.71944700  0.19600100  1
  C  84  1  0.86429700  0.77390800  0.24333400  1
  C  85  1  0.72667200  0.77962500  0.24692800  1
  C  86  1  0.27455200  0.74514600  0.22569000  1
  C  93  1  0.92434600  0.84278900  0.32624200  1
  C  95  1  0.07216500  0.67047800  0.16124900  1
  C  97  1  0.95818700  0.47202000  0.19358500  1
  C  99  1  0.13756200  0.47595300  0.24662300  1
  C  100  1  0.04248100  0.47628400  0.28034500  1
  C  102  1  0.86412300  0.46915300  0.22583300  1
  C  103  1  0.72643100  0.46716700  0.22013500  1
  C  104  1  0.27432300  0.48025500  0.25464400  1
  C  111  1  0.92422700  0.48312200  0.15691700  1
  C  113  1  0.07182500  0.49062300  0.32934700  1
  C  115  1  0.95792300  0.72153400  0.52803400  1
  C  117  1  0.13739000  0.77059300  0.52403800  1
  C  118  1  0.04235100  0.80400200  0.52371800  1
  C  120  1  0.86394300  0.75665300  0.53087400  1
  C  121  1  0.72632700  0.75289500  0.53276100  1
  C  122  1  0.27415100  0.77426800  0.51969000  1
  C  129  1  0.92426700  0.67365500  0.51662000  1
  C  131  1  0.07172000  0.83866000  0.50937000  1
  C  133  1  0.95818700  0.19345700  0.72155900  1
  C  135  1  0.13741100  0.24678800  0.77049100  1
  C  136  1  0.04215200  0.28044600  0.80384900  1
  C  138  1  0.86409200  0.22569300  0.75665600  1
  C  139  1  0.72654200  0.21978200  0.75303000  1
  C  140  1  0.27414200  0.25509700  0.77421500  1
  C  147  1  0.92458200  0.15686200  0.67372400  1
  C  149  1  0.07153200  0.32942800  0.83857300  1
  C  151  1  0.95832300  0.52783600  0.80627700  1
  C  153  1  0.13777600  0.52371700  0.75318500  1
  C  154  1  0.04269700  0.52344400  0.71949300  1
  C  156  1  0.86432300  0.53071900  0.77401600  1
  C  157  1  0.72670700  0.53292100  0.77976300  1
  C  158  1  0.27453800  0.51938600  0.74517000  1
  C  165  1  0.92428700  0.51679600  0.84298000  1
  C  167  1  0.07216000  0.50916300  0.67050700  1
  C  169  1  0.95826800  0.27835500  0.47207000  1
  C  171  1  0.13765100  0.22924900  0.47599300  1
  C  172  1  0.04257200  0.19586500  0.47634400  1
  C  174  1  0.86420400  0.24324600  0.46921800  1
  C  175  1  0.72650700  0.24697000  0.46724800  1
  C  176  1  0.27441800  0.22552100  0.48027300  1
  C  183  1  0.92431700  0.32612600  0.48318800  1
  C  185  1  0.07194200  0.16119900  0.49068000  1
  H  7  1  0.04250600  0.03531500  0.58354700  1
  H  16  1  0.04221200  0.96444900  0.41640800  1
  H  17  1  0.96964400  0.79845800  0.42164400  1
  H  18  1  0.01653300  0.79906300  0.37201100  1
  H  19  1  0.97010000  0.20137500  0.57844200  1
  H  20  1  0.01700200  0.20071400  0.62804900  1
  H  21  1  0.95009000  0.03759800  0.45384000  1
  H  22  1  0.94995100  0.96224600  0.54616900  1
  H  33  1  0.04226100  0.54812700  0.96457500  1
  H  42  1  0.04211200  0.45173700  0.03533300  1
  H  43  1  0.97022900  0.62290700  0.20143400  1
  H  44  1  0.01690800  0.57261000  0.20075200  1
  H  45  1  0.96938400  0.37702700  0.79848900  1
  H  46  1  0.01634300  0.42728800  0.79915000  1
  H  47  1  0.94989500  0.41609700  0.96222700  1
  H  48  1  0.95011200  0.58379700  0.03768900  1
  H  59  1  0.04230200  0.41629400  0.45175100  1
  H  68  1  0.04242200  0.58345000  0.54807500  1
  H  69  1  0.96991800  0.57835200  0.37691400  1
  H  70  1  0.01688400  0.62795000  0.42717600  1
  H  71  1  0.97017500  0.42142900  0.62294600  1
  H  72  1  0.01696400  0.37181100  0.57267000  1
  H  73  1  0.95026500  0.54602200  0.58376800  1
  H  74  1  0.95019600  0.45373100  0.41607100  1
  H  89  1  0.70670300  0.84139600  0.25193500  1
  H  92  1  0.41664900  0.73430100  0.18208600  1
  H  94  1  0.83169800  0.84145700  0.33942100  1
  H  96  1  0.16078500  0.65595100  0.16438800  1
  H  107  1  0.70750400  0.41068000  0.15796200  1
  H  110  1  0.41642300  0.44756500  0.26559000  1
  H  112  1  0.83171300  0.49777600  0.15839500  1
  H  114  1  0.16053000  0.50821800  0.34387600  1
  H  125  1  0.70637800  0.74631400  0.58867700  1
  H  128  1  0.41635800  0.81786900  0.55232000  1
  H  130  1  0.83172300  0.66044500  0.50201200  1
  H  132  1  0.16042000  0.83553200  0.49175000  1
  H  143  1  0.70788900  0.15727100  0.74652000  1
  H  146  1  0.41561900  0.26385000  0.81731300  1
  H  148  1  0.83193300  0.15823400  0.66056700  1
  H  150  1  0.16032000  0.34395700  0.83556800  1
  H  161  1  0.70692800  0.58974000  0.84150300  1
  H  164  1  0.41675400  0.55206700  0.73427600  1
  H  166  1  0.83161800  0.50226500  0.84156400  1
  H  168  1  0.16076000  0.49148300  0.65596800  1
  H  179  1  0.70754300  0.25266300  0.41076600  1
  H  182  1  0.41648300  0.18187900  0.44756000  1
  H  184  1  0.83181700  0.33934300  0.49783100  1
  H  186  1  0.16066000  0.16431600  0.50828800  1
  N  8  1  0.99510300  0.18212000  0.59345800  1
  N  15  1  0.99461300  0.81768500  0.40659600  1
  N  23  1  0.01578800  0.87427000  0.35823700  1
  N  24  1  0.98187600  0.87219000  0.51221700  1
  N  25  1  0.98211600  0.12766100  0.48782700  1
  N  26  1  0.01623800  0.12549300  0.64175800  1
  N  34  1  0.99443800  0.41129200  0.81774400  1
  N  41  1  0.99506800  0.58862300  0.18217100  1
  N  49  1  0.01584200  0.48368600  0.12551400  1
  N  50  1  0.98224600  0.63982200  0.12773600  1
  N  51  1  0.98172100  0.36007700  0.87214200  1
  N  52  1  0.01577800  0.51621700  0.87440900  1
  N  60  1  0.99496300  0.40639200  0.58865500  1
  N  67  1  0.99475400  0.59337900  0.41119900  1
  N  75  1  0.01570300  0.64167900  0.51615300  1
  N  76  1  0.98199500  0.48774800  0.36002100  1
  N  77  1  0.98231000  0.51203200  0.63983600  1
  N  78  1  0.01590300  0.35809000  0.48372100  1
  N  80  1  0.08983500  0.79437500  0.26897700  1
  N  83  1  0.91141500  0.73216900  0.20434600  1
  N  98  1  0.08967800  0.47427700  0.20537500  1
  N  101  1  0.91123000  0.47196400  0.26760300  1
  N  116  1  0.08942400  0.73102800  0.52570200  1
  N  119  1  0.91109600  0.79559300  0.52803800  1
  N  134  1  0.08962300  0.20544200  0.73099800  1
  N  137  1  0.91101000  0.26755200  0.79555400  1
  N  152  1  0.08982900  0.52547700  0.79446200  1
  N  155  1  0.91144000  0.52789200  0.73224300  1
  N  170  1  0.08976300  0.26881800  0.47431500  1
  N  173  1  0.91131600  0.20429200  0.47203500  1
  O  87  1  0.66675300  0.75437400  0.26012200  1
  O  88  1  0.67170800  0.81885200  0.25760600  1
  O  90  1  0.34200300  0.76196000  0.26320700  1
  O  91  1  0.32905600  0.73703100  0.18706800  1
  O  105  1  0.66476300  0.50481600  0.24665100  1
  O  106  1  0.67149900  0.43847100  0.18091100  1
  O  108  1  0.34178800  0.50092700  0.23780300  1
  O  109  1  0.32883500  0.44979700  0.26283000  1
  O  123  1  0.66416300  0.74217300  0.49529800  1
  O  124  1  0.67064300  0.74194100  0.56102300  1
  O  126  1  0.34153300  0.73673200  0.49902000  1
  O  127  1  0.32876000  0.81290300  0.55012000  1
  O  141  1  0.66352100  0.24641400  0.74239000  1
  O  142  1  0.67153400  0.18047800  0.74216800  1
  O  144  1  0.34062200  0.23813600  0.73647400  1
  O  145  1  0.32804600  0.26145000  0.81229700  1
  O  159  1  0.66665200  0.49449400  0.75456100  1
  O  160  1  0.67183400  0.56152800  0.81898800  1
  O  162  1  0.34190800  0.49868100  0.76200000  1
  O  163  1  0.32915100  0.54985400  0.73702200  1
  O  177  1  0.66486200  0.25809400  0.50489800  1
  O  178  1  0.67155800  0.25750200  0.43855700  1
  O  180  1  0.34189800  0.26303300  0.50093800  1
  O  181  1  0.32889500  0.18687600  0.44980500  1
