# generated using pymatgen
data_Cd3H8(C6O5)4
_symmetry_space_group_name_H-M   'P 1'
_cell_length_a   9.45227000
_cell_length_b   10.37649000
_cell_length_c   11.35659000
_cell_angle_alpha   64.22585000
_cell_angle_beta   72.42047000
_cell_angle_gamma   84.03969000
_symmetry_Int_Tables_number   1
_chemical_formula_structural   Cd3H8(C6O5)4
_chemical_formula_sum   'Cd3 H8 C24 O20'
_cell_volume   955.72223234
_cell_formula_units_Z   1
loop_
 _symmetry_equiv_pos_site_id
 _symmetry_equiv_pos_as_xyz
  1  'x, y, z'
loop_
 _atom_site_type_symbol
 _atom_site_label
 _atom_site_symmetry_multiplicity
 _atom_site_fract_x
 _atom_site_fract_y
 _atom_site_fract_z
 _atom_site_occupancy
  Cd  Cd0  1  0.00377000  0.35033000  0.18119000  1
  Cd  Cd1  1  0.99622000  0.64967000  0.81881000  1
  Cd  Cd2  1  0.00000000  0.00000000  0.50000000  1
  H  H3  1  0.18277000  0.16965000  0.63079000  1
  H  H4  1  0.45008000  0.08532000  0.68957000  1
  H  H5  1  0.26134000  0.86355000  0.84943000  1
  H  H6  1  0.27257000  0.10557000  0.89473000  1
  H  H7  1  0.81722000  0.83035000  0.36921000  1
  H  H8  1  0.54991000  0.91468000  0.31043000  1
  H  H9  1  0.73865000  0.13644000  0.15057000  1
  H  H10  1  0.72742000  0.89443000  0.10527000  1
  C  C11  1  0.08510000  0.05602000  0.17637000  1
  C  C12  1  0.06447000  0.63686000  0.09295000  1
  C  C13  1  0.11276000  0.78252000  0.05776000  1
  C  C14  1  0.22795000  0.27948000  0.32702000  1
  C  C15  1  0.32258000  0.21766000  0.42079000  1
  C  C16  1  0.69944000  0.14814000  0.43310000  1
  C  C17  1  0.53467000  0.15102000  0.46779000  1
  C  C18  1  0.29223000  0.17281000  0.56179000  1
  C  C19  1  0.42692000  0.12825000  0.59184000  1
  C  C20  1  0.12455000  0.97182000  0.09466000  1
  C  C21  1  0.20660000  0.88224000  0.93917000  1
  C  C22  1  0.21328000  0.00404000  0.96286000  1
  C  C23  1  0.91489000  0.94398000  0.82362000  1
  C  C24  1  0.93552000  0.36314000  0.90705000  1
  C  C25  1  0.88723000  0.21747000  0.94224000  1
  C  C26  1  0.77204000  0.72051000  0.67298000  1
  C  C27  1  0.67741000  0.78234000  0.57921000  1
  C  C28  1  0.30055000  0.85186000  0.56689000  1
  C  C29  1  0.46532000  0.84898000  0.53221000  1
  C  C30  1  0.70776000  0.82718000  0.43821000  1
  C  C31  1  0.57307000  0.87175000  0.40816000  1
  C  C32  1  0.87544000  0.02818000  0.90534000  1
  C  C33  1  0.79339000  0.11776000  0.06083000  1
  C  C34  1  0.78671000  0.99595000  0.03714000  1
  O  O35  1  0.00748000  0.99104000  0.29967000  1
  O  O36  1  0.13149000  0.18621000  0.11204000  1
  O  O37  1  0.99056000  0.55842000  0.21417000  1
  O  O38  1  0.76989000  0.23685000  0.31618000  1
  O  O39  1  0.74863000  0.05625000  0.52940000  1
  O  O40  1  0.47050000  0.20724000  0.36319000  1
  O  O41  1  0.06305000  0.83618000  0.15363000  1
  O  O42  1  0.09010000  0.23573000  0.37828000  1
  O  O43  1  0.10495000  0.59386000  0.99753000  1
  O  O44  1  0.28466000  0.36966000  0.20880000  1
  O  O45  1  0.99251000  0.00896000  0.70033000  1
  O  O46  1  0.86850000  0.81379000  0.88795000  1
  O  O47  1  0.00943000  0.44157000  0.78583000  1
  O  O48  1  0.23011000  0.76315000  0.68382000  1
  O  O49  1  0.25137000  0.94375000  0.47059000  1
  O  O50  1  0.52949000  0.79276000  0.63681000  1
  O  O51  1  0.93694000  0.16382000  0.84637000  1
  O  O52  1  0.90989000  0.76426000  0.62172000  1
  O  O53  1  0.89504000  0.40614000  0.00246000  1
  O  O54  1  0.71533000  0.63034000  0.79120000  1
