# generated using pymatgen
data_Cr6H32C59O29F2
_symmetry_space_group_name_H-M   'P 1'
_cell_length_a   10.93079000
_cell_length_b   11.00986052
_cell_length_c   18.74721000
_cell_angle_alpha   89.91136375
_cell_angle_beta   89.44483000
_cell_angle_gamma   60.66198648
_symmetry_Int_Tables_number   1
_chemical_formula_structural   Cr6H32C59O29F2
_chemical_formula_sum   'Cr6 H32 C59 O29 F2'
_cell_volume   1966.68977874
_cell_formula_units_Z   1
loop_
 _symmetry_equiv_pos_site_id
 _symmetry_equiv_pos_as_xyz
  1  'x, y, z'
loop_
 _atom_site_type_symbol
 _atom_site_label
 _atom_site_symmetry_multiplicity
 _atom_site_fract_x
 _atom_site_fract_y
 _atom_site_fract_z
 _atom_site_occupancy
  Cr  Cr0  1  0.40141000  0.39025000  0.49993000  1
  Cr  Cr1  1  0.39023000  0.70829000  0.50054000  1
  Cr  Cr2  1  0.70834000  0.40143000  0.49948000  1
  Cr  Cr3  1  0.94890000  0.92589000  0.00007000  1
  Cr  Cr4  1  0.62545000  0.94867000  0.99930000  1
  Cr  Cr5  1  0.92610000  0.62532000  0.00092000  1
  H  H6  1  0.16765000  0.33826000  0.76106000  1
  H  H7  1  0.21002000  0.36966000  0.88492000  1
  H  H8  1  0.07873000  0.51489000  0.67099000  1
  H  H9  1  0.00378000  0.55528000  0.79869000  1
  H  H10  1  0.06399000  0.91072000  0.80170000  1
  H  H11  1  0.11291000  0.88440000  0.67549000  1
  H  H12  1  0.79986000  0.43909000  0.29931000  1
  H  H13  1  0.79718000  0.46108000  0.17294000  1
  H  H14  1  0.48197000  0.89594000  0.19021000  1
  H  H15  1  0.51056000  0.90185000  0.80849000  1
  H  H16  1  0.47471000  0.86926000  0.32005000  1
  H  H17  1  0.52592000  0.08112000  0.19530000  1
  H  H18  1  0.85016000  0.20737000  0.31409000  1
  H  H19  1  0.08240000  0.87932000  0.32720000  1
  H  H20  1  0.04635000  0.90060000  0.20067000  1
  H  H21  1  0.19287000  0.45861000  0.18281000  1
  H  H22  1  0.23524000  0.43533000  0.31131000  1
  H  H23  1  0.81967000  0.46535000  0.82109000  1
  H  H24  1  0.82017000  0.44498000  0.69522000  1
  H  H25  1  0.09039000  0.13335000  0.67790000  1
  H  H26  1  0.89724000  0.20936000  0.88443000  1
  H  H27  1  0.89569000  0.13333000  0.62665000  1
  H  H28  1  0.43621000  0.34116000  0.91972000  1
  H  H29  1  0.29218000  0.95014000  0.73126000  1
  H  H30  1  0.35857000  0.78688000  0.68521000  1
  H  H31  1  0.27750000  0.94482000  0.63484000  1
  H  H32  1  0.15666000  0.28710000  0.62434000  1
  H  H33  1  0.28720000  0.14834000  0.67772000  1
  H  H34  1  0.32319000  0.16525000  0.58606000  1
  H  H35  1  0.14348000  0.02033000  0.89427000  1
  H  H36  1  0.10080000  0.19803000  0.91968000  1
  H  H37  1  0.27579000  0.07095000  0.89501000  1
  C  C38  1  0.22008000  0.64157000  0.60220000  1
  C  C39  1  0.74798000  0.55612000  0.79116000  1
  C  C40  1  0.75048000  0.54566000  0.71845000  1
  C  C41  1  0.65913000  0.66001000  0.67708000  1
  C  C42  1  0.66728000  0.21359000  0.83998000  1
  C  C43  1  0.89602000  0.19391000  0.82759000  1
  C  C44  1  0.01278000  0.16838000  0.78536000  1
  C  C45  1  0.00284000  0.15650000  0.71210000  1
  C  C46  1  0.88299000  0.16701000  0.68131000  1
  C  C47  1  0.75870000  0.20887000  0.72165000  1
  C  C48  1  0.77373000  0.20628000  0.79656000  1
  C  C49  1  0.63914000  0.63112000  0.60380000  1
  C  C50  1  0.50702000  0.27714000  0.73972000  1
  C  C51  1  0.53104000  0.27688000  0.81412000  1
  C  C52  1  0.36930000  0.30012000  0.72138000  1
  C  C53  1  0.26933000  0.32389000  0.77517000  1
  C  C54  1  0.29157000  0.34369000  0.84517000  1
  C  C55  1  0.41957000  0.32743000  0.86405000  1
  C  C56  1  0.62365000  0.24734000  0.69092000  1
  C  C57  1  0.07942000  0.59894000  0.70007000  1
  C  C58  1  0.03664000  0.62212000  0.77248000  1
  C  C59  1  0.04851000  0.72409000  0.81205000  1
  C  C60  1  0.60019000  0.28216000  0.61233000  1
  C  C61  1  0.06778000  0.82290000  0.77459000  1
  C  C62  1  0.10020000  0.80522000  0.70250000  1
  C  C63  1  0.12901000  0.68135000  0.66751000  1
  C  C64  1  0.72993000  0.53995000  0.27679000  1
  C  C65  1  0.72618000  0.55191000  0.20400000  1
  C  C66  1  0.64443000  0.68225000  0.17243000  1
  C  C67  1  0.54953000  0.79577000  0.21410000  1
  C  C68  1  0.54824000  0.78174000  0.28788000  1
  C  C69  1  0.64358000  0.65510000  0.31955000  1
  C  C70  1  0.59443000  0.11790000  0.29283000  1
  C  C71  1  0.22641000  0.63833000  0.39802000  1
  C  C72  1  0.59744000  0.10945000  0.21994000  1
  C  C73  1  0.69171000  0.13435000  0.17963000  1
  C  C74  1  0.78739000  0.16381000  0.21413000  1
  C  C75  1  0.78094000  0.17751000  0.28802000  1
  C  C76  1  0.67906000  0.16195000  0.32711000  1
  C  C77  1  0.10577000  0.78681000  0.29664000  1
  C  C78  1  0.08824000  0.79807000  0.22400000  1
  C  C79  1  0.12452000  0.67927000  0.18210000  1
  C  C80  1  0.16972000  0.54995000  0.21431000  1
  C  C81  1  0.19038000  0.53789000  0.28758000  1
  C  C82  1  0.63534000  0.63004000  0.39479000  1
  C  C83  1  0.16397000  0.65582000  0.32835000  1
  C  C84  1  0.70048000  0.11527000  0.90044000  1
  C  C85  1  0.69550000  0.70125000  0.89670000  1
  C  C86  1  0.03656000  0.73451000  0.89084000  1
  C  C87  1  0.70292000  0.10132000  0.10423000  1
  C  C88  1  0.68862000  0.70355000  0.10251000  1
  C  C89  1  0.09491000  0.69991000  0.10670000  1
  C  C90  1  0.63551000  0.22547000  0.39709000  1
  C  C91  1  0.57111000  0.78812000  0.71010000  1
  C  C92  1  0.57558000  0.80102000  0.78373000  1
  C  C93  1  0.66353000  0.68433000  0.82430000  1
  C  C94  1  0.34465000  0.89406000  0.68153000  1
  C  C95  1  0.27047000  0.22421000  0.63529000  1
  C  C96  1  0.16355000  0.10840000  0.88349000  1
  O  O97  1  0.51646000  0.25004000  0.57979000  1
  O  O98  1  0.51679000  0.70190000  0.42596000  1
  O  O99  1  0.73305000  0.51644000  0.41942000  1
  O  O100  1  0.70097000  0.28191000  0.42489000  1
  O  O101  1  0.49999000  0.49999000  0.49998000  1
  O  O102  1  0.08825000  0.80686000  0.92043000  1
  O  O103  1  0.82529000  0.04697000  0.92500000  1
  O  O104  1  0.60637000  0.08506000  0.91855000  1
  O  O105  1  0.62903000  0.82246000  0.92525000  1
  O  O106  1  0.80997000  0.60336000  0.92044000  1
  O  O107  1  0.04986000  0.62625000  0.92675000  1
  O  O108  1  0.28179000  0.51678000  0.57478000  1
  O  O109  1  0.08548000  0.80987000  0.08095000  1
  O  O110  1  0.82273000  0.04976000  0.07380000  1
  O  O111  1  0.60361000  0.08807000  0.07907000  1
  O  O112  1  0.62647000  0.82525000  0.07405000  1
  O  O113  1  0.80721000  0.60637000  0.08096000  1
  O  O114  1  0.04730000  0.62904000  0.07555000  1
  O  O115  1  0.83349000  0.83329000  0.00009000  1
  O  O116  1  0.25105000  0.73295000  0.58109000  1
  O  O117  1  0.51771000  0.70089000  0.57476000  1
  O  O118  1  0.73404000  0.51535000  0.57994000  1
  O  O119  1  0.70189000  0.28090000  0.57370000  1
  O  O120  1  0.51547000  0.25113000  0.41926000  1
  O  O121  1  0.28087000  0.51779000  0.42598000  1
  O  O122  1  0.25006000  0.73404000  0.42057000  1
  O  O123  1  0.47121000  0.89633000  0.67140000  1
  O  O124  1  0.32361000  0.31413000  0.65224000  1
  O  O125  1  0.13917000  0.15096000  0.81160000  1
  F  F126  1  0.50101000  0.09265000  0.32906000  1
  F  F127  1  0.88400000  0.18214000  0.17669000  1
