# generated using pymatgen
data_H30C41N6
_symmetry_space_group_name_H-M   'P 1'
_cell_length_a   28.93610000
_cell_length_b   54.95200000
_cell_length_c   54.95200000
_cell_angle_alpha   90.00000000
_cell_angle_beta   90.00010000
_cell_angle_gamma   90.00000000
_symmetry_Int_Tables_number   1
_chemical_formula_structural   H30C41N6
_chemical_formula_sum   'H240 C328 N48'
_cell_volume   87378.98656064
_cell_formula_units_Z   8
loop_
 _symmetry_equiv_pos_site_id
 _symmetry_equiv_pos_as_xyz
  1  'x, y, z'
loop_
 _atom_site_type_symbol
 _atom_site_label
 _atom_site_symmetry_multiplicity
 _atom_site_fract_x
 _atom_site_fract_y
 _atom_site_fract_z
 _atom_site_occupancy
  H  26  1  0.13614000  0.24505600  0.20078800  1
  H  27  1  0.07594300  0.22878700  0.17643100  1
  H  28  1  0.10879000  0.19200400  0.25440200  1
  H  29  1  0.04873900  0.17591500  0.23005500  1
  H  30  1  0.95901900  0.18093300  0.22376200  1
  H  31  1  0.89893800  0.20519000  0.24034500  1
  H  32  1  0.92682400  0.25949400  0.18807900  1
  H  33  1  0.98669000  0.23525800  0.17167600  1
  H  34  1  0.95472300  0.19626000  0.14637500  1
  H  35  1  0.96655200  0.19774700  0.10370600  1
  H  36  1  0.10886400  0.18474300  0.11441300  1
  H  37  1  0.09684700  0.18330700  0.15692000  1
  H  38  1  0.08003300  0.15104000  0.19069000  1
  H  39  1  0.93799600  0.16216500  0.17800000  1
  H  40  1  0.92561100  0.11970500  0.17861100  1
  H  41  1  0.06782400  0.10835800  0.19136200  1
  H  44  1  0.86987800  0.26686900  0.21899000  1
  H  45  1  0.16627700  0.22259200  0.26196000  1
  H  47  1  0.08040200  0.19278100  0.07387700  1
  H  49  1  0.95347900  0.07906600  0.18507900  1
  H  75  1  0.13607600  0.78979600  0.82484500  1
  H  76  1  0.07591800  0.80608500  0.84921200  1
  H  77  1  0.10876900  0.84286400  0.77124400  1
  H  78  1  0.04875700  0.85897100  0.79560300  1
  H  79  1  0.95905300  0.85393800  0.80188200  1
  H  80  1  0.89900000  0.82967300  0.78528400  1
  H  81  1  0.92684400  0.77538200  0.83756400  1
  H  82  1  0.98668300  0.79962700  0.85398200  1
  H  83  1  0.95473300  0.83864300  0.87928800  1
  H  84  1  0.96654600  0.83718300  0.92195600  1
  H  85  1  0.10886100  0.85017100  0.91124600  1
  H  86  1  0.09684700  0.85157900  0.86874200  1
  H  87  1  0.08002400  0.88385300  0.83499200  1
  H  88  1  0.93799600  0.87271800  0.84765700  1
  H  89  1  0.92560400  0.91517500  0.84708500  1
  H  90  1  0.06782000  0.92653400  0.83435900  1
  H  93  1  0.86995400  0.76799000  0.80661900  1
  H  94  1  0.16616000  0.81222000  0.76365900  1
  H  96  1  0.08039800  0.84219800  0.95179000  1
  H  98  1  0.95346800  0.95581900  0.84070900  1
  H  124  1  0.13606500  0.82945800  0.24048800  1
  H  125  1  0.07591700  0.85382700  0.22419400  1
  H  126  1  0.10876700  0.77585700  0.18742000  1
  H  127  1  0.04876400  0.80021600  0.17130800  1
  H  128  1  0.95906000  0.80649500  0.17634000  1
  H  129  1  0.89901400  0.78989300  0.20060500  1
  H  130  1  0.92685100  0.84217300  0.25489600  1
  H  131  1  0.98668300  0.85859500  0.23064900  1
  H  132  1  0.95473300  0.88390000  0.19163400  1
  H  133  1  0.96654600  0.92657000  0.19309100  1
  H  134  1  0.10886100  0.91586100  0.18010600  1
  H  135  1  0.09684900  0.87335600  0.17869900  1
  H  136  1  0.08003100  0.83960300  0.14642500  1
  H  137  1  0.93800300  0.85226900  0.15755800  1
  H  138  1  0.92561100  0.85169000  0.11510000  1
  H  139  1  0.06782700  0.83896300  0.10374400  1
  H  142  1  0.86998500  0.81121500  0.26229300  1
  H  143  1  0.16611000  0.76826100  0.21809200  1
  H  145  1  0.08039500  0.95640500  0.18807100  1
  H  147  1  0.95347500  0.84527900  0.07445700  1
  H  173  1  0.13622500  0.20536300  0.78524300  1
  H  174  1  0.07607000  0.18099800  0.80153400  1
  H  175  1  0.10863500  0.25907000  0.83816400  1
  H  176  1  0.04862700  0.23471000  0.85427400  1
  H  177  1  0.95888400  0.22833000  0.84939100  1
  H  178  1  0.89882100  0.24491700  0.82512600  1
  H  179  1  0.92699300  0.19278600  0.77073500  1
  H  180  1  0.98683900  0.17637800  0.79498200  1
  H  181  1  0.95473000  0.15098700  0.83389700  1
  H  182  1  0.96656600  0.10831900  0.83242500  1
  H  183  1  0.10880100  0.11902600  0.84566000  1
  H  184  1  0.09677200  0.16153100  0.84707700  1
  H  185  1  0.08002900  0.19541400  0.87924500  1
  H  186  1  0.93807900  0.18250100  0.86810000  1
  H  187  1  0.92566600  0.18307800  0.91055700  1
  H  188  1  0.06780100  0.19605500  0.92192400  1
  H  191  1  0.86992200  0.22363900  0.76339200  1
  H  192  1  0.16614700  0.26660900  0.80757700  1
  H  194  1  0.08039000  0.07849000  0.83754300  1
  H  196  1  0.95347500  0.18958000  0.95120200  1
  H  222  1  0.63530600  0.74556100  0.70054100  1
  H  223  1  0.57570200  0.72879600  0.67615900  1
  H  224  1  0.60840900  0.69285000  0.75454100  1
  H  225  1  0.54888800  0.67622100  0.73013200  1
  H  226  1  0.45920800  0.68065400  0.72375500  1
  H  227  1  0.39971100  0.70491900  0.74084100  1
  H  228  1  0.42716100  0.75963000  0.68895200  1
  H  229  1  0.48650900  0.73534900  0.67199900  1
  H  230  1  0.45467400  0.69666200  0.64639000  1
  H  231  1  0.46651300  0.69814700  0.60371300  1
  H  232  1  0.60860200  0.68445700  0.61438700  1
  H  233  1  0.59657600  0.68302500  0.65689000  1
  H  234  1  0.58005000  0.65107000  0.69104200  1
  H  235  1  0.43822400  0.66215900  0.67768400  1
  H  236  1  0.42583400  0.61970100  0.67828700  1
  H  237  1  0.56783700  0.60838200  0.69170800  1
  H  240  1  0.37330500  0.76733900  0.72183700  1
  H  241  1  0.66259300  0.72548400  0.76255300  1
  H  243  1  0.58028800  0.69280800  0.57388300  1
  H  245  1  0.45356800  0.57908900  0.68508000  1
  H  271  1  0.63525100  0.28930900  0.32508600  1
  H  272  1  0.57565400  0.30607100  0.34947300  1
  H  273  1  0.60845000  0.34207800  0.27113200  1
  H  274  1  0.54892900  0.35870400  0.29554400  1
  H  275  1  0.45926600  0.35420900  0.30188200  1
  H  276  1  0.39977700  0.32994100  0.28478900  1
  H  277  1  0.42712000  0.27526700  0.33673400  1
  H  278  1  0.48645700  0.29955000  0.35369100  1
  H  279  1  0.45467000  0.33826600  0.37927100  1
  H  280  1  0.46650700  0.33678100  0.42194900  1
  H  281  1  0.60863000  0.35038200  0.41126800  1
  H  282  1  0.59660000  0.35181600  0.36876600  1
  H  283  1  0.58003600  0.38381100  0.33466900  1
  H  284  1  0.43817200  0.37272300  0.34792400  1
  H  285  1  0.42578900  0.41518400  0.34731100  1
  H  286  1  0.56782600  0.42649900  0.33399600  1
  H  289  1  0.37329100  0.26754400  0.30384000  1
  H  290  1  0.66262500  0.30944600  0.26310100  1
  H  292  1  0.58029800  0.34204700  0.45177500  1
  H  294  1  0.45355000  0.45579800  0.34061000  1
  H  320  1  0.63525400  0.32970900  0.74096500  1
  H  321  1  0.57566100  0.35409400  0.72419800  1
  H  322  1  0.60844300  0.27574100  0.68821200  1
  H  323  1  0.54892600  0.30015100  0.67158100  1
  H  324  1  0.45926600  0.30649600  0.67605700  1
  H  325  1  0.39976300  0.28941200  0.70032200  1
  H  326  1  0.42711600  0.34135200  0.75499700  1
  H  327  1  0.48646800  0.35830000  0.73071800  1
  H  328  1  0.45467400  0.38388400  0.69200200  1
  H  329  1  0.46651000  0.42655900  0.69348700  1
  H  330  1  0.60863000  0.41588300  0.67987700  1
  H  331  1  0.59660000  0.37338000  0.67844500  1
  H  332  1  0.58005000  0.33926500  0.64646500  1
  H  333  1  0.43818600  0.35254000  0.65753800  1
  H  334  1  0.42581300  0.35190900  0.61507700  1
  H  335  1  0.56784700  0.33857000  0.60377500  1
  H  338  1  0.37327400  0.30846400  0.76271700  1
  H  339  1  0.66257600  0.26771000  0.72087300  1
  H  341  1  0.58029800  0.45639100  0.68820500  1
  H  343  1  0.45357100  0.34509700  0.57447100  1
  H  369  1  0.63518100  0.70520400  0.28466200  1
  H  370  1  0.57558100  0.68082300  0.30142900  1
  H  371  1  0.60853000  0.75912000  0.33749300  1
  H  372  1  0.54900500  0.73471400  0.35412000  1
  H  373  1  0.45935300  0.72841400  0.34956700  1
  H  374  1  0.39982500  0.74548700  0.32530800  1
  H  375  1  0.42701300  0.69346900  0.27068600  1
  H  376  1  0.48639200  0.67653000  0.29495600  1
  H  377  1  0.45467700  0.65100800  0.33372100  1
  H  378  1  0.46650700  0.60833300  0.33220500  1
  H  379  1  0.60867800  0.61899800  0.34567700  1
  H  380  1  0.59666200  0.66150400  0.34714200  1
  H  381  1  0.58005700  0.69556100  0.37919900  1
  H  382  1  0.43815400  0.68240800  0.36811600  1
  H  383  1  0.42577900  0.68303800  0.41057700  1
  H  384  1  0.56785400  0.69625500  0.42188700  1
  H  387  1  0.37322900  0.72637900  0.26294600  1
  H  388  1  0.66260400  0.76717100  0.30481000  1
  H  390  1  0.58030900  0.57849700  0.33734900  1
  H  392  1  0.45356100  0.68977400  0.45118900  1
  H  399  1  0.08121300  0.99637800  0.20431300  1
  H  400  1  0.08091600  0.03978600  0.20353400  1
  H  401  1  0.95082800  0.03916500  0.16954900  1
  H  403  1  0.91418500  0.00145900  0.16103300  1
  H  404  1  0.93831400  0.97484900  0.16732000  1
  H  413  1  0.08119200  0.03850600  0.82133500  1
  H  414  1  0.08088300  0.99509900  0.82211900  1
  H  415  1  0.95081800  0.99573600  0.85613100  1
  H  417  1  0.91419600  0.03344500  0.86464800  1
  H  418  1  0.93831800  0.06005100  0.85834400  1
  H  427  1  0.08120300  0.82596200  0.99176700  1
  H  428  1  0.08089400  0.82673800  0.03517400  1
  H  429  1  0.95082500  0.86074400  0.03454500  1
  H  431  1  0.91420300  0.86927100  0.99683800  1
  H  432  1  0.93833200  0.86297700  0.97022900  1
  H  441  1  0.08119200  0.20896000  0.03389200  1
  H  442  1  0.08087800  0.20818300  0.99048400  1
  H  443  1  0.95082800  0.17415700  0.99112000  1
  H  445  1  0.91420600  0.16563500  0.02882800  1
  H  446  1  0.93833900  0.17192800  0.05543500  1
  H  455  1  0.58115600  0.49636400  0.70440600  1
  H  456  1  0.58092400  0.53977100  0.70361100  1
  H  457  1  0.45086900  0.53919000  0.66958600  1
  H  459  1  0.41418100  0.50149800  0.66107300  1
  H  460  1  0.43826200  0.47488000  0.66737900  1
  H  469  1  0.58113500  0.53851500  0.32120800  1
  H  470  1  0.58088600  0.49511000  0.32199600  1
  H  471  1  0.45088200  0.49570200  0.35607500  1
  H  473  1  0.41422200  0.53339600  0.36460600  1
  H  474  1  0.43829600  0.56001200  0.35828800  1
  H  483  1  0.58116600  0.32586200  0.49174800  1
  H  484  1  0.58093800  0.32664900  0.53515500  1
  H  485  1  0.45088900  0.36068000  0.53458500  1
  H  487  1  0.41420500  0.36920800  0.49689400  1
  H  488  1  0.43827900  0.36290400  0.47027400  1
  H  497  1  0.58115200  0.70902400  0.53391200  1
  H  498  1  0.58092700  0.70822900  0.49050500  1
  H  499  1  0.45087200  0.67420600  0.49107600  1
  H  501  1  0.41417800  0.66569300  0.52876900  1
  H  502  1  0.43825800  0.67199400  0.55538700  1
  H  511  1  0.73729900  0.30444900  0.24749500  1
  H  512  1  0.79904200  0.28486300  0.22708600  1
  H  513  1  0.79958800  0.22930400  0.27963700  1
  H  515  1  0.74498500  0.23072700  0.31209700  1
  H  516  1  0.70613100  0.25271500  0.31484600  1
  H  525  1  0.73732700  0.73043000  0.77814000  1
  H  526  1  0.79907300  0.75001300  0.79855400  1
  H  527  1  0.79961200  0.80558300  0.74601200  1
  H  529  1  0.74500600  0.80416300  0.71355200  1
  H  530  1  0.70615100  0.78217700  0.71080300  1
  H  539  1  0.73733000  0.78276100  0.29985000  1
  H  540  1  0.79907700  0.80317300  0.28026200  1
  H  541  1  0.79960200  0.75062900  0.22469300  1
  H  543  1  0.74499900  0.71817000  0.22611800  1
  H  544  1  0.70614800  0.71542100  0.24810600  1
  H  553  1  0.73731700  0.25212700  0.72581900  1
  H  554  1  0.79907000  0.23171900  0.74540200  1
  H  555  1  0.79959900  0.28426300  0.80097000  1
  H  557  1  0.74499200  0.31672000  0.79954700  1
  H  558  1  0.70613100  0.31946600  0.77756300  1
  H  567  1  0.29757900  0.73029900  0.24778000  1
  H  568  1  0.23579400  0.74974100  0.22725300  1
  H  569  1  0.23519800  0.80560600  0.27948800  1
  H  571  1  0.28974600  0.80435100  0.31198700  1
  H  572  1  0.32863500  0.78239200  0.31484400  1
  H  581  1  0.29760200  0.30456900  0.77787500  1
  H  582  1  0.23581300  0.28513100  0.79840400  1
  H  583  1  0.23519800  0.22926500  0.74616800  1
  H  585  1  0.28974200  0.23052100  0.71366700  1
  H  586  1  0.32864100  0.25247500  0.71081100  1
  H  595  1  0.29760600  0.25239300  0.29996000  1
  H  596  1  0.23581500  0.23186200  0.28052900  1
  H  597  1  0.23518800  0.28409000  0.22465400  1
  H  599  1  0.28972900  0.31659300  0.22590500  1
  H  600  1  0.32863100  0.31945100  0.24785700  1
  H  609  1  0.29758400  0.78248100  0.72569000  1
  H  610  1  0.23578700  0.80301100  0.74512100  1
  H  611  1  0.23517300  0.75079000  0.80099700  1
  H  613  1  0.28971700  0.71828700  0.79975100  1
  H  614  1  0.32862300  0.71543000  0.77779900  1
  C  1  1  0.99519500  0.10945600  0.18570100  1
  C  2  1  0.95841000  0.12596000  0.18178100  1
  C  3  1  0.96576800  0.15126500  0.18163100  1
  C  4  1  0.00983700  0.16169300  0.18626500  1
  C  5  1  0.04688300  0.14488800  0.18893600  1
  C  6  1  0.03980500  0.11948200  0.18903900  1
  C  7  1  0.01751700  0.18924900  0.18431200  1
  C  8  1  0.02500900  0.19158900  0.15677000  1
  C  9  1  0.06898400  0.18713200  0.14615000  1
  C  10  1  0.07612900  0.18777100  0.12082900  1
  C  11  1  0.03917600  0.19198900  0.10451000  1
  C  12  1  0.99466300  0.19515900  0.11470600  1
  C  13  1  0.98781300  0.19457700  0.14011400  1
  C  14  1  0.97742100  0.20441100  0.19452100  1
  C  15  1  0.05777400  0.19919700  0.19951800  1
  C  16  1  0.08320400  0.22022300  0.19248800  1
  C  17  1  0.11882000  0.23005700  0.20700800  1
  C  18  1  0.12989600  0.21983500  0.22990600  1
  C  19  1  0.10308600  0.19973800  0.23771100  1
  C  20  1  0.06759900  0.19002200  0.22311300  1
  C  21  1  0.95188900  0.19712700  0.21542900  1
  C  22  1  0.91632500  0.21157400  0.22543600  1
  C  23  1  0.90547000  0.23464700  0.21554500  1
  C  24  1  0.93238800  0.24268400  0.19558200  1
  C  25  1  0.96777900  0.22815400  0.18568300  1
  C  42  1  0.16446900  0.22911600  0.24512300  1
  C  43  1  0.98627900  0.08444000  0.18569700  1
  C  46  1  0.04772300  0.19253300  0.07947300  1
  C  48  1  0.87104200  0.24983100  0.22501900  1
  C  50  1  0.99518800  0.92543100  0.84000100  1
  C  51  1  0.95840300  0.90892400  0.84390600  1
  C  52  1  0.96577100  0.88361800  0.84403500  1
  C  53  1  0.00983100  0.87318700  0.83938000  1
  C  54  1  0.04687100  0.89000200  0.83674300  1
  C  55  1  0.03979700  0.91541000  0.83665700  1
  C  56  1  0.01752000  0.84563600  0.84134500  1
  C  57  1  0.02501700  0.84328500  0.86888300  1
  C  58  1  0.06898100  0.84776300  0.87951100  1
  C  59  1  0.07612700  0.84713900  0.90483300  1
  C  60  1  0.03917400  0.84293000  0.92115300  1
  C  61  1  0.99466300  0.83976000  0.91095600  1
  C  62  1  0.98782000  0.84032800  0.88554800  1
  C  63  1  0.97741800  0.83047700  0.83114400  1
  C  64  1  0.05778900  0.83569800  0.82614400  1
  C  65  1  0.08318300  0.81465100  0.83315800  1
  C  66  1  0.11878600  0.80480800  0.81863400  1
  C  67  1  0.12985900  0.81502600  0.79573400  1
  C  68  1  0.10305900  0.83512900  0.78793300  1
  C  69  1  0.06760200  0.84485700  0.80254200  1
  C  70  1  0.95192000  0.83774400  0.81021700  1
  C  71  1  0.91637300  0.82329300  0.80019700  1
  C  72  1  0.90550800  0.80022400  0.81009100  1
  C  73  1  0.93241200  0.79218900  0.83006000  1
  C  74  1  0.96778600  0.80672600  0.83996800  1
  C  91  1  0.16440700  0.80573000  0.78051200  1
  C  92  1  0.98626800  0.95044700  0.84003000  1
  C  95  1  0.04772000  0.84239300  0.94619100  1
  C  97  1  0.87109100  0.78503800  0.80061000  1
  C  99  1  0.99519500  0.84460400  0.10484500  1
  C  100  1  0.95841000  0.84851500  0.12135200  1
  C  101  1  0.96577500  0.84864800  0.14665700  1
  C  102  1  0.00983400  0.84399400  0.15708900  1
  C  103  1  0.04687900  0.84135800  0.14027500  1
  C  104  1  0.03980400  0.84126700  0.11486800  1
  C  105  1  0.01752300  0.84596000  0.18464100  1
  C  106  1  0.02501800  0.87349800  0.18699200  1
  C  107  1  0.06898200  0.88412600  0.18251600  1
  C  108  1  0.07612600  0.90944800  0.18313800  1
  C  109  1  0.03917400  0.92576800  0.18734900  1
  C  110  1  0.99466300  0.91557000  0.19051600  1
  C  111  1  0.98782300  0.89016000  0.18994800  1
  C  112  1  0.97741800  0.83575600  0.19979900  1
  C  113  1  0.05779400  0.83075900  0.19458100  1
  C  114  1  0.08318600  0.83777300  0.21562800  1
  C  115  1  0.11879300  0.82325300  0.22547000  1
  C  116  1  0.12985800  0.80034900  0.21525900  1
  C  117  1  0.10306700  0.79254800  0.19515200  1
  C  118  1  0.06760900  0.80715700  0.18542200  1
  C  119  1  0.95192400  0.81482900  0.19253200  1
  C  120  1  0.91637300  0.80481100  0.20698100  1
  C  121  1  0.90551500  0.81470200  0.23005200  1
  C  122  1  0.93241500  0.83467200  0.23808900  1
  C  123  1  0.96778600  0.84458200  0.22355000  1
  C  140  1  0.16439300  0.78512300  0.22456000  1
  C  141  1  0.98627500  0.84462600  0.07982900  1
  C  144  1  0.04771800  0.95080600  0.18788000  1
  C  146  1  0.87110400  0.80521700  0.24524200  1
  C  148  1  0.99520500  0.19028400  0.92081700  1
  C  149  1  0.95845200  0.18630400  0.90430800  1
  C  150  1  0.96582700  0.18617200  0.87900400  1
  C  151  1  0.00986900  0.19089400  0.86857900  1
  C  152  1  0.04688600  0.19360700  0.88539200  1
  C  153  1  0.03979900  0.19369600  0.91079800  1
  C  154  1  0.01752300  0.18892800  0.84102300  1
  C  155  1  0.02498400  0.16138600  0.83867000  1
  C  156  1  0.06892900  0.15076200  0.84321400  1
  C  157  1  0.07608300  0.12544100  0.84258100  1
  C  158  1  0.03915800  0.10912200  0.83829500  1
  C  159  1  0.99466300  0.11931900  0.83506400  1
  C  160  1  0.98781000  0.14472700  0.83563400  1
  C  161  1  0.97741800  0.19914600  0.82587400  1
  C  162  1  0.05780000  0.20412000  0.83108000  1
  C  163  1  0.08327600  0.19707600  0.81007200  1
  C  164  1  0.11886900  0.21160100  0.80022200  1
  C  165  1  0.12986600  0.23452800  0.81040000  1
  C  166  1  0.10299600  0.24235700  0.83046600  1
  C  167  1  0.06753000  0.22775100  0.84019100  1
  C  168  1  0.95182000  0.22002500  0.83317500  1
  C  169  1  0.91628300  0.23004400  0.81871700  1
  C  170  1  0.90550400  0.22018700  0.79562200  1
  C  171  1  0.93249800  0.20026200  0.78756100  1
  C  172  1  0.96788000  0.19035900  0.80209900  1
  C  189  1  0.16441300  0.24975100  0.80110300  1
  C  190  1  0.98627500  0.19025900  0.94583100  1
  C  193  1  0.04771100  0.08408600  0.83775100  1
  C  195  1  0.87107300  0.22965900  0.78043600  1
  C  197  1  0.49530800  0.60946800  0.68570800  1
  C  198  1  0.45858600  0.62596200  0.68159100  1
  C  199  1  0.46594700  0.65126500  0.68143700  1
  C  200  1  0.50993000  0.66170600  0.68627600  1
  C  201  1  0.54693500  0.64491200  0.68914000  1
  C  202  1  0.53986100  0.61950200  0.68923600  1
  C  203  1  0.51749500  0.68926700  0.68430700  1
  C  204  1  0.52487600  0.69164000  0.65676400  1
  C  205  1  0.56876600  0.68697600  0.64612800  1
  C  206  1  0.57592300  0.68763600  0.62080900  1
  C  207  1  0.53903500  0.69204700  0.60450200  1
  C  208  1  0.49457900  0.69540700  0.61470900  1
  C  209  1  0.48772900  0.69483200  0.64011900  1
  C  210  1  0.47735500  0.70432500  0.69462300  1
  C  211  1  0.55778700  0.69929900  0.69943400  1
  C  212  1  0.58301800  0.72035000  0.69227000  1
  C  213  1  0.61832000  0.73046800  0.70679200  1
  C  214  1  0.62923700  0.72053600  0.72983000  1
  C  215  1  0.60276500  0.70036400  0.73774400  1
  C  216  1  0.56762900  0.69033300  0.72311100  1
  C  217  1  0.45202600  0.69690600  0.71555000  1
  C  218  1  0.41680100  0.71135500  0.72586100  1
  C  219  1  0.40607000  0.73455500  0.71625100  1
  C  220  1  0.43266700  0.74271500  0.69622600  1
  C  221  1  0.46771600  0.72816100  0.68600800  1
  C  238  1  0.66302200  0.73038800  0.74514200  1
  C  239  1  0.48637100  0.58445500  0.68571500  1
  C  242  1  0.54760200  0.69259900  0.57947000  1
  C  244  1  0.37239600  0.74980500  0.72629200  1
  C  246  1  0.49528400  0.42541500  0.33994400  1
  C  247  1  0.45854800  0.40892200  0.34403900  1
  C  248  1  0.46590200  0.38362000  0.34419200  1
  C  249  1  0.50990200  0.37318000  0.33940200  1
  C  250  1  0.54691500  0.38997100  0.33654100  1
  C  251  1  0.53984400  0.41538100  0.33644300  1
  C  252  1  0.51749500  0.34562000  0.34135300  1
  C  253  1  0.52488000  0.34324300  0.36889500  1
  C  254  1  0.56878300  0.34788000  0.37953000  1
  C  255  1  0.57594100  0.34722300  0.40484800  1
  C  256  1  0.53904600  0.34283400  0.42115500  1
  C  257  1  0.49457900  0.33950200  0.41095200  1
  C  258  1  0.48772900  0.34007900  0.38554000  1
  C  259  1  0.47735500  0.33055700  0.33103800  1
  C  260  1  0.55778300  0.33559300  0.32622100  1
  C  261  1  0.58299400  0.31452900  0.33337100  1
  C  262  1  0.61830300  0.30441600  0.31885000  1
  C  263  1  0.62922000  0.31435800  0.29581500  1
  C  264  1  0.60278600  0.33455200  0.28791900  1
  C  265  1  0.56765000  0.34457900  0.30255400  1
  C  266  1  0.45206100  0.33796400  0.31009500  1
  C  267  1  0.41681800  0.32352200  0.29979300  1
  C  268  1  0.40609100  0.30032200  0.30940500  1
  C  269  1  0.43264200  0.29217500  0.32945000  1
  C  270  1  0.46768800  0.30673100  0.33966900  1
  C  287  1  0.66302200  0.30451700  0.28050700  1
  C  288  1  0.48635400  0.45043100  0.33994800  1
  C  291  1  0.54761600  0.34228800  0.44618800  1
  C  293  1  0.37240300  0.28507400  0.29937100  1
  C  295  1  0.49530800  0.34453500  0.60485400  1
  C  296  1  0.45856800  0.34863700  0.62134200  1
  C  297  1  0.46591900  0.34880200  0.64664500  1
  C  298  1  0.50991600  0.34401100  0.65708800  1
  C  299  1  0.54693200  0.34114100  0.64030100  1
  C  300  1  0.53986100  0.34102800  0.61489100  1
  C  301  1  0.51750200  0.34596500  0.68464900  1
  C  302  1  0.52488300  0.37350800  0.68702300  1
  C  303  1  0.56878700  0.38414400  0.68238300  1
  C  304  1  0.57594400  0.40946100  0.68303800  1
  C  305  1  0.53904600  0.42577000  0.68742600  1
  C  306  1  0.49458200  0.41556400  0.69076300  1
  C  307  1  0.48773300  0.39015300  0.69019200  1
  C  308  1  0.47736100  0.33565300  0.69971100  1
  C  309  1  0.55779000  0.33083600  0.69468100  1
  C  310  1  0.58299800  0.33799100  0.71574100  1
  C  311  1  0.61829600  0.32346600  0.72586100  1
  C  312  1  0.62923000  0.30043500  0.71592000  1
  C  313  1  0.60277900  0.29253000  0.69573500  1
  C  314  1  0.56765000  0.30716400  0.68570200  1
  C  315  1  0.45206100  0.31471100  0.69230300  1
  C  316  1  0.41683500  0.30440200  0.70675000  1
  C  317  1  0.40607700  0.31402500  0.72994100  1
  C  318  1  0.43264200  0.33406600  0.73809000  1
  C  319  1  0.46769500  0.34428200  0.72353700  1
  C  336  1  0.66300800  0.28512100  0.72577700  1
  C  337  1  0.48637800  0.34451000  0.57983900  1
  C  340  1  0.54761300  0.45080200  0.68797700  1
  C  342  1  0.37239200  0.30399200  0.74518900  1
  C  344  1  0.49529400  0.69035100  0.42080600  1
  C  345  1  0.45854800  0.68628200  0.40431500  1
  C  346  1  0.46589800  0.68612200  0.37901100  1
  C  347  1  0.50990900  0.69087700  0.36856900  1
  C  348  1  0.54693500  0.69370500  0.38536000  1
  C  349  1  0.53986100  0.69382200  0.41076800  1
  C  350  1  0.51750500  0.68891900  0.34101100  1
  C  351  1  0.52491100  0.66137700  0.33865200  1
  C  352  1  0.56883200  0.65074200  0.34323100  1
  C  353  1  0.57597900  0.62542400  0.34256500  1
  C  354  1  0.53906300  0.60911900  0.33820300  1
  C  355  1  0.49458600  0.61932600  0.33491300  1
  C  356  1  0.48774300  0.64473700  0.33550000  1
  C  357  1  0.47737900  0.69922800  0.32593200  1
  C  358  1  0.55779400  0.70405100  0.33098200  1
  C  359  1  0.58295300  0.69691500  0.30989800  1
  C  360  1  0.61826100  0.71143500  0.29978200  1
  C  361  1  0.62924800  0.73444800  0.30975100  1
  C  362  1  0.60284800  0.74233700  0.32995900  1
  C  363  1  0.56770200  0.72770800  0.33998400  1
  C  364  1  0.45210900  0.72018300  0.33333333  1
  C  365  1  0.41685900  0.73047900  0.31889500  1
  C  366  1  0.40605300  0.72083300  0.29571800  1
  C  367  1  0.43258700  0.70077700  0.28757900  1
  C  368  1  0.46764700  0.69056100  0.30212900  1
  C  385  1  0.66302500  0.74976100  0.29989700  1
  C  386  1  0.48636800  0.69037100  0.44582000  1
  C  389  1  0.54762700  0.58408600  0.33763300  1
  C  391  1  0.37236500  0.73086300  0.28047000  1
  C  393  1  0.05344600  0.00501300  0.19672400  1
  C  394  1  0.05325000  0.03061800  0.19640000  1
  C  395  1  0.01548800  0.04359000  0.18674900  1
  C  396  1  0.97810200  0.03006400  0.17710200  1
  C  397  1  0.97759100  0.00424000  0.17722500  1
  C  398  1  0.01611000  0.99143900  0.18702400  1
  C  407  1  0.05342900  0.02987400  0.82893000  1
  C  408  1  0.05322300  0.00427100  0.82925400  1
  C  409  1  0.01546700  0.99130100  0.83892200  1
  C  410  1  0.97810200  0.00483300  0.84857900  1
  C  411  1  0.97758700  0.03065600  0.84844500  1
  C  412  1  0.01610300  0.04345200  0.83863400  1
  C  421  1  0.05344100  0.83355800  0.00040000  1
  C  422  1  0.05323400  0.83387700  0.02600500  1
  C  423  1  0.01546700  0.84352500  0.03897600  1
  C  424  1  0.97810200  0.85319200  0.02544600  1
  C  425  1  0.97759400  0.85306600  0.99962400  1
  C  426  1  0.01610600  0.84325900  0.98682500  1
  C  435  1  0.05343300  0.20136100  0.02526000  1
  C  436  1  0.05322300  0.20104100  0.99965600  1
  C  437  1  0.01546700  0.19137400  0.98668700  1
  C  438  1  0.97809900  0.18171800  0.00021700  1
  C  439  1  0.97759400  0.18184200  0.02604100  1
  C  440  1  0.01611000  0.19164900  0.03883700  1
  C  449  1  0.55340800  0.50500600  0.69680700  1
  C  450  1  0.55324900  0.53061200  0.69647500  1
  C  451  1  0.51551800  0.54359600  0.68680500  1
  C  452  1  0.47812200  0.53008200  0.67715300  1
  C  453  1  0.47756900  0.50425800  0.67728600  1
  C  454  1  0.51605700  0.49144500  0.68710200  1
  C  463  1  0.55339100  0.52987500  0.32881500  1
  C  464  1  0.55322200  0.50427100  0.32914200  1
  C  465  1  0.51550400  0.49128900  0.33882900  1
  C  466  1  0.47813200  0.50480800  0.34850400  1
  C  467  1  0.47758600  0.53063000  0.34837000  1
  C  468  1  0.51606400  0.54344100  0.33853800  1
  C  477  1  0.55342200  0.33346200  0.50039300  1
  C  478  1  0.55326300  0.33378800  0.52599800  1
  C  479  1  0.51552500  0.34344500  0.53898500  1
  C  480  1  0.47814300  0.35311500  0.52547300  1
  C  481  1  0.47758600  0.35298600  0.49964900  1
  C  482  1  0.51606700  0.34316800  0.48683400  1
  C  491  1  0.55340800  0.70142100  0.52526600  1
  C  492  1  0.55325300  0.70109200  0.49966200  1
  C  493  1  0.51552100  0.69142500  0.48667400  1
  C  494  1  0.47812500  0.68177100  0.50018800  1
  C  495  1  0.47756900  0.68190200  0.52601000  1
  C  496  1  0.51605700  0.69171400  0.53882700  1
  C  505  1  0.74938500  0.28845300  0.25452600  1
  C  506  1  0.78645900  0.27702000  0.24258100  1
  C  507  1  0.80574000  0.25518600  0.25162400  1
  C  508  1  0.78605500  0.24515800  0.27289300  1
  C  509  1  0.74858300  0.25642600  0.28526600  1
  C  510  1  0.72949600  0.27838700  0.27581800  1
  C  519  1  0.74941200  0.74642800  0.77111200  1
  C  520  1  0.78648700  0.75785800  0.78306000  1
  C  521  1  0.80576400  0.77969300  0.77402000  1
  C  522  1  0.78608300  0.78972400  0.75275200  1
  C  523  1  0.74861000  0.77845900  0.74037700  1
  C  524  1  0.72952000  0.75650000  0.74982400  1
  C  533  1  0.74940500  0.77573500  0.28384800  1
  C  534  1  0.78648700  0.78768000  0.27241800  1
  C  535  1  0.80576000  0.77863900  0.25058100  1
  C  536  1  0.78607200  0.75737200  0.24055100  1
  C  537  1  0.74860000  0.74499900  0.25181900  1
  C  538  1  0.72951300  0.75444500  0.27378000  1
  C  547  1  0.74939200  0.25915200  0.74182100  1
  C  548  1  0.78647700  0.24721000  0.75324900  1
  C  549  1  0.80575400  0.25625100  0.77508400  1
  C  550  1  0.78606200  0.27751800  0.78511500  1
  C  551  1  0.74859000  0.28988900  0.77384900  1
  C  552  1  0.72949300  0.28043900  0.75189300  1
  C  561  1  0.28548400  0.74634600  0.25469700  1
  C  562  1  0.24840300  0.75769900  0.24268100  1
  C  563  1  0.22913600  0.77959300  0.25158500  1
  C  564  1  0.24875900  0.78972500  0.27282400  1
  C  565  1  0.28622700  0.77853400  0.28526700  1
  C  566  1  0.30537400  0.75654700  0.27592500  1
  C  575  1  0.28550200  0.28852300  0.77095800  1
  C  576  1  0.24842000  0.27717100  0.78297600  1
  C  577  1  0.22914500  0.25527900  0.77407000  1
  C  578  1  0.24875900  0.24515000  0.75283000  1
  C  579  1  0.28623300  0.25633600  0.74038600  1
  C  580  1  0.30538800  0.27832100  0.74973100  1
  C  589  1  0.28551200  0.25930300  0.28391000  1
  C  590  1  0.24842400  0.24728500  0.27256300  1
  C  591  1  0.22914800  0.25618500  0.25067000  1
  C  592  1  0.24875800  0.27742700  0.24053700  1
  C  593  1  0.28623200  0.28987300  0.25172000  1
  C  594  1  0.30539300  0.28053000  0.27370500  1
  C  603  1  0.28549100  0.77557300  0.74174200  1
  C  604  1  0.24840000  0.78758900  0.75308600  1
  C  605  1  0.22912600  0.77868800  0.77498000  1
  C  606  1  0.24874400  0.75745200  0.78511800  1
  C  607  1  0.28621700  0.74500600  0.77393400  1
  C  608  1  0.30538300  0.75435100  0.75195100  1
  N  402  1  0.94029800  0.99250800  0.16770200  1
  N  405  1  0.01785800  0.06793100  0.18675200  1
  N  406  1  0.01562300  0.96703800  0.18712800  1
  N  416  1  0.94030200  0.04239300  0.85797100  1
  N  419  1  0.01783400  0.96696000  0.83891600  1
  N  420  1  0.01561900  0.06785300  0.83852900  1
  N  430  1  0.94030800  0.86259300  0.98788800  1
  N  433  1  0.01784300  0.84352700  0.06331700  1
  N  434  1  0.01562300  0.84315400  0.96242200  1
  N  444  1  0.94031500  0.17230900  0.03777700  1
  N  447  1  0.01783800  0.19137800  0.96234500  1
  N  448  1  0.01563300  0.19174500  0.06323900  1
  N  458  1  0.44027300  0.49253700  0.66775400  1
  N  461  1  0.51793400  0.56793700  0.68679800  1
  N  462  1  0.51553500  0.46704400  0.68720000  1
  N  472  1  0.44030400  0.54235500  0.35791600  1
  N  475  1  0.51791300  0.46694700  0.33883600  1
  N  476  1  0.51555200  0.56784400  0.33844800  1
  N  486  1  0.44028700  0.36252200  0.48793200  1
  N  489  1  0.51795100  0.34346300  0.56332500  1
  N  490  1  0.51554200  0.34307200  0.46243100  1
  N  500  1  0.44026900  0.67237200  0.53773000  1
  N  503  1  0.51793700  0.69141600  0.46233500  1
  N  504  1  0.51552500  0.69182200  0.56322800  1
  N  514  1  0.73178700  0.24575100  0.30579300  1
  N  517  1  0.84085200  0.24323800  0.24099800  1
  N  518  1  0.69445300  0.28940900  0.28752800  1
  N  528  1  0.73181100  0.78913900  0.71985400  1
  N  531  1  0.84087600  0.79164000  0.78464700  1
  N  532  1  0.69448100  0.74547600  0.73811000  1
  N  542  1  0.73180500  0.72447400  0.24114200  1
  N  545  1  0.84086900  0.78926700  0.23863400  1
  N  546  1  0.69447700  0.74273300  0.28480400  1
  N  556  1  0.73179100  0.31041400  0.78452500  1
  N  559  1  0.84086900  0.24562700  0.78703300  1
  N  560  1  0.69446400  0.29215300  0.74086500  1
  N  570  1  0.30298000  0.78930700  0.30575200  1
  N  573  1  0.19400600  0.79149200  0.24092700  1
  N  574  1  0.34039400  0.74556000  0.28768600  1
  N  584  1  0.30298200  0.24556300  0.71990100  1
  N  587  1  0.19401300  0.24338300  0.78472800  1
  N  588  1  0.34040700  0.28930700  0.73797000  1
  N  598  1  0.30297300  0.31035800  0.24094500  1
  N  601  1  0.19400400  0.24553100  0.23877800  1
  N  602  1  0.34041200  0.29229300  0.28468900  1
  N  612  1  0.30296100  0.72452100  0.78470800  1
  N  615  1  0.19399000  0.78934700  0.78687400  1
  N  616  1  0.34039100  0.74258200  0.74096300  1
