# generated using pymatgen
data_H24C49(NO)4
_symmetry_space_group_name_H-M   'P 1'
_cell_length_a   9.98080000
_cell_length_b   16.81630000
_cell_length_c   16.81630000
_cell_angle_alpha   89.99830000
_cell_angle_beta   90.00000000
_cell_angle_gamma   90.00000000
_symmetry_Int_Tables_number   1
_chemical_formula_structural   H24C49(NO)4
_chemical_formula_sum   'H24 C49 N4 O4'
_cell_volume   2822.44992710
_cell_formula_units_Z   1
loop_
 _symmetry_equiv_pos_site_id
 _symmetry_equiv_pos_as_xyz
  1  'x, y, z'
loop_
 _atom_site_type_symbol
 _atom_site_label
 _atom_site_symmetry_multiplicity
 _atom_site_fract_x
 _atom_site_fract_y
 _atom_site_fract_z
 _atom_site_occupancy
  C  1  1  0.94503000  0.06881400  0.98132500  1
  C  2  1  0.07716800  0.04122200  0.97914300  1
  C  3  1  0.07618300  0.95822500  0.97916900  1
  C  4  1  0.94347900  0.93167400  0.98161350  1
  C  5  1  0.91451800  0.84933000  0.98621400  1
  C  6  1  0.02074000  0.79330100  0.99007600  1
  C  7  1  0.15439200  0.82183300  0.98556000  1
  C  8  1  0.18232000  0.90349100  0.98031300  1
  C  9  1  0.18463500  0.09509500  0.98002900  1
  C  10  1  0.15823900  0.17703000  0.98484900  1
  C  11  1  0.02508800  0.20653200  0.98889900  1
  C  12  1  0.91771400  0.15130000  0.98531200  1
  C  13  1  0.75773000  0.00055800  0.91316100  1
  C  14  1  0.62524200  0.99776500  0.93993900  1
  C  15  1  0.62497100  0.99792300  0.02296600  1
  C  16  1  0.75734100  0.00075000  0.05001000  1
  C  17  1  0.51839100  0.99782400  0.07744200  1
  C  18  1  0.54588400  0.00203100  0.15931000  1
  C  19  1  0.67928500  0.00720800  0.18845400  1
  C  20  1  0.78560400  0.00499500  0.13231800  1
  C  21  1  0.78649600  0.00476300  0.83088300  1
  C  22  1  0.68051400  0.00719600  0.77453500  1
  C  23  1  0.54699700  0.00192000  0.80339400  1
  C  24  1  0.51912800  0.99766700  0.88517700  1
  C  37  1  0.85094000  0.00064200  0.98164900  1
  C  38  1  0.00378400  0.28985600  0.99945000  1
  C  39  1  0.91981300  0.33477600  0.94885450  1
  C  41  1  0.98862500  0.45775800  0.00878800  1
  C  42  1  0.07103200  0.41576300  0.06353250  1
  C  43  1  0.07619700  0.33197000  0.05822600  1
  C  45  1  0.98736400  0.54200300  0.00921800  1
  C  46  1  0.91588600  0.66490200  0.95010500  1
  C  47  1  0.99865800  0.71008300  0.00114400  1
  C  48  1  0.07133100  0.66810800  0.05993400  1
  C  51  1  0.06837200  0.58424100  0.06449800  1
  C  52  1  0.14799100  0.54203900  0.11992600  1
  C  53  1  0.14937300  0.45818500  0.11941800  1
  C  60  1  0.70416300  0.01526400  0.69086600  1
  C  61  1  0.62152800  0.06505900  0.64393200  1
  C  63  1  0.72512900  0.02251400  0.52345600  1
  C  64  1  0.81636400  0.97393000  0.56634400  1
  C  65  1  0.80457100  0.97144300  0.65040600  1
  C  67  1  0.72475200  0.02241800  0.43954800  1
  C  68  1  0.62012700  0.06465800  0.31924800  1
  C  69  1  0.70276100  0.01501000  0.27217000  1
  C  70  1  0.80339900  0.97122400  0.31249600  1
  C  73  1  0.81570300  0.97377600  0.39652000  1
  C  74  1  0.91139100  0.92843200  0.43924700  1
  C  75  1  0.91170600  0.92849900  0.52345100  1
  H  25  1  0.46759400  0.00125400  0.76490000  1
  H  26  1  0.42242700  0.99574800  0.90371700  1
  H  27  1  0.42175100  0.99575300  0.05859200  1
  H  28  1  0.46631100  0.00127800  0.19767200  1
  H  29  1  0.88312300  0.00934800  0.15050200  1
  H  30  1  0.88408500  0.00931800  0.81287200  1
  H  31  1  0.81703500  0.83100800  0.99043000  1
  H  32  1  0.23362400  0.78317300  0.98699600  1
  H  33  1  0.27905600  0.92198500  0.97927300  1
  H  34  1  0.82057200  0.17028100  0.98940300  1
  H  35  1  0.28105000  0.07574200  0.97906600  1
  H  36  1  0.23815100  0.21518100  0.98617300  1
  H  44  1  0.13692800  0.30098800  0.09630500  1
  H  49  1  0.86652500  0.30789200  0.90445900  1
  H  54  1  0.13151750  0.69926700  0.09817600  1
  H  55  1  0.86273800  0.69166100  0.90557600  1
  H  57  1  0.31348800  0.58852300  0.14891000  1
  H  59  1  0.31617800  0.41298000  0.14776600  1
  H  66  1  0.86498200  0.93393400  0.68220300  1
  H  71  1  0.54888900  0.09974800  0.66906300  1
  H  76  1  0.86377500  0.93377800  0.28061000  1
  H  77  1  0.54732600  0.09930200  0.29423000  1
  H  79  1  0.07889600  0.91461300  0.38900000  1
  H  81  1  0.07953800  0.91476200  0.57333400  1
  N  40  1  0.91661100  0.41544700  0.95449700  1
  N  50  1  0.91456300  0.58415900  0.95515600  1
  N  62  1  0.63332200  0.06623400  0.56383800  1
  N  72  1  0.63252000  0.06597200  0.39931800  1
  O  56  1  0.22549700  0.58093600  0.17417000  1
  O  58  1  0.22810200  0.41952200  0.17321200  1
  O  78  1  0.00048700  0.88103700  0.40032400  1
  O  80  1  0.00107800  0.88115700  0.56221900  1
