# generated using pymatgen
data_Cr3H11C29N2O15
_symmetry_space_group_name_H-M   'P 1'
_cell_length_a   10.91974000
_cell_length_b   18.81153000
_cell_length_c   18.94262000
_cell_angle_alpha   89.97601000
_cell_angle_beta   89.85127000
_cell_angle_gamma   89.78581000
_symmetry_Int_Tables_number   1
_chemical_formula_structural   Cr3H11C29N2O15
_chemical_formula_sum   'Cr12 H44 C116 N8 O60'
_cell_volume   3891.09586243
_cell_formula_units_Z   4
loop_
 _symmetry_equiv_pos_site_id
 _symmetry_equiv_pos_as_xyz
  1  'x, y, z'
loop_
 _atom_site_type_symbol
 _atom_site_label
 _atom_site_symmetry_multiplicity
 _atom_site_fract_x
 _atom_site_fract_y
 _atom_site_fract_z
 _atom_site_occupancy
  Cr  Cr0  1  0.16948000  0.24990000  0.22805000  1
  Cr  Cr1  1  0.16948000  0.75010000  0.77195000  1
  Cr  Cr2  1  0.66948000  0.24990000  0.72805000  1
  Cr  Cr3  1  0.66948000  0.75010000  0.27195000  1
  Cr  Cr4  1  0.32334000  0.25083000  0.38507000  1
  Cr  Cr5  1  0.32334000  0.74917000  0.61493000  1
  Cr  Cr6  1  0.82334000  0.25083000  0.88507000  1
  Cr  Cr7  1  0.82334000  0.74917000  0.11493000  1
  Cr  Cr8  1  0.01062000  0.24939000  0.38341000  1
  Cr  Cr9  1  0.01062000  0.75061000  0.61659000  1
  Cr  Cr10  1  0.51062000  0.24939000  0.88341000  1
  Cr  Cr11  1  0.51062000  0.75061000  0.11659000  1
  H  H12  1  0.97587000  0.42166000  0.54161000  1
  H  H13  1  0.97079000  0.54905000  0.56089000  1
  H  H14  1  0.46678000  0.44947000  0.95151000  1
  H  H15  1  0.47302000  0.57675000  0.96539000  1
  H  H16  1  0.83209000  0.54842000  0.10478000  1
  H  H17  1  0.95241000  0.43226000  0.01699000  1
  H  H18  1  0.45019000  0.56702000  0.48081000  1
  H  H19  1  0.32630000  0.45262000  0.39341000  1
  H  H20  1  0.32512000  0.57771000  0.41382000  1
  H  H21  1  0.45430000  0.44177000  0.45876000  1
  H  H22  1  0.95661000  0.55790000  0.03675000  1
  H  H23  1  0.83114000  0.42300000  0.08669000  1
  H  H24  1  0.81948000  0.43348000  0.34293000  1
  H  H25  1  0.80026000  0.57120000  0.66816000  1
  H  H26  1  0.34151000  0.43383000  0.85299000  1
  H  H27  1  0.31815000  0.56750000  0.15833000  1
  H  H28  1  0.79391000  0.56280000  0.33816000  1
  H  H29  1  0.76938000  0.44257000  0.67394000  1
  H  H30  1  0.32133000  0.56325000  0.84470000  1
  H  H31  1  0.29187000  0.43832000  0.16306000  1
  H  H32  1  0.06225000  0.57334000  0.17024000  1
  H  H33  1  0.06666000  0.42513000  0.82394000  1
  H  H34  1  0.45940000  0.55331000  0.63018000  1
  H  H35  1  0.56295000  0.42576000  0.32860000  1
  H  H36  1  0.07985000  0.44672000  0.17075000  1
  H  H37  1  0.09211000  0.55150000  0.82130000  1
  H  H38  1  0.47585000  0.42725000  0.63797000  1
  H  H39  1  0.58187000  0.55237000  0.32787000  1
  H  H40  1  0.11022000  0.05051000  0.19178000  1
  H  H41  1  0.10272000  0.95692000  0.68602000  1
  H  H42  1  0.60290000  0.05154000  0.68598000  1
  H  H43  1  0.63235000  0.97378000  0.17328000  1
  H  H44  1  0.75797000  0.94099000  0.31504000  1
  H  H45  1  0.74093000  0.04487000  0.81901000  1
  H  H46  1  0.26300000  0.94006000  0.81883000  1
  H  H47  1  0.26370000  0.03740000  0.31413000  1
  H  H48  1  0.94826000  0.12719000  0.55641000  1
  H  H49  1  0.95114000  0.87642000  0.44079000  1
  H  H50  1  0.44366000  0.11943000  0.06586000  1
  H  H51  1  0.35152000  0.93637000  0.99940000  1
  H  H52  1  0.39787000  0.87086000  0.46232000  1
  H  H53  1  0.47339000  0.05933000  0.46476000  1
  H  H54  1  0.89609000  0.86750000  0.97520000  1
  H  H55  1  0.88747000  0.13455000  0.03316000  1
  C  C56  1  0.37865000  0.35329000  0.26899000  1
  C  C57  1  0.37186000  0.64351000  0.72780000  1
  C  C58  1  0.87698000  0.35390000  0.76952000  1
  C  C59  1  0.87906000  0.64679000  0.23105000  1
  C  C60  1  0.15537000  0.35284000  0.46896000  1
  C  C61  1  0.15419000  0.64280000  0.53876000  1
  C  C62  1  0.65412000  0.35626000  0.96342000  1
  C  C63  1  0.65568000  0.64704000  0.03119000  1
  C  C64  1  0.97426000  0.35479000  0.25992000  1
  C  C65  1  0.97364000  0.64574000  0.74047000  1
  C  C66  1  0.46641000  0.35157000  0.75795000  1
  C  C67  1  0.47476000  0.64519000  0.24006000  1
  C  C68  1  0.38118000  0.14889000  0.26926000  1
  C  C69  1  0.37950000  0.85188000  0.73024000  1
  C  C70  1  0.87826000  0.14762000  0.77041000  1
  C  C71  1  0.87946000  0.85187000  0.23025000  1
  C  C72  1  0.15761000  0.14682000  0.46975000  1
  C  C73  1  0.15745000  0.85309000  0.53015000  1
  C  C74  1  0.65697000  0.14708000  0.97025000  1
  C  C75  1  0.65717000  0.85324000  0.03017000  1
  C  C76  1  0.97438000  0.14439000  0.25957000  1
  C  C77  1  0.97159000  0.85438000  0.74105000  1
  C  C78  1  0.47389000  0.14451000  0.75941000  1
  C  C79  1  0.51987000  0.86161000  0.22783000  1
  C  C80  1  0.15935000  0.56667000  0.52742000  1
  C  C81  1  0.16566000  0.41943000  0.50716000  1
  C  C82  1  0.66548000  0.57982000  0.99400000  1
  C  C83  1  0.65875000  0.43200000  0.97722000  1
  C  C84  1  0.27041000  0.53227000  0.51486000  1
  C  C85  1  0.27333000  0.45969000  0.50371000  1
  C  C86  1  0.77355000  0.53938000  0.99586000  1
  C  C87  1  0.77049000  0.46651000  0.98599000  1
  C  C88  1  0.05960000  0.45159000  0.53457000  1
  C  C89  1  0.05607000  0.52495000  0.54386000  1
  C  C90  1  0.55365000  0.47360000  0.96422000  1
  C  C91  1  0.55769000  0.54705000  0.97074000  1
  C  C92  1  0.36294000  0.54655000  0.45874000  1
  C  C93  1  0.36513000  0.46710000  0.44556000  1
  C  C94  1  0.86840000  0.53294000  0.05217000  1
  C  C95  1  0.86618000  0.45328000  0.04045000  1
  C  C96  1  0.87039000  0.46384000  0.30420000  1
  C  C97  1  0.85718000  0.53939000  0.70278000  1
  C  C98  1  0.36599000  0.46007000  0.80415000  1
  C  C99  1  0.36957000  0.53675000  0.19654000  1
  C  C100  1  0.85822000  0.53744000  0.30261000  1
  C  C101  1  0.84232000  0.46609000  0.70464000  1
  C  C102  1  0.35685000  0.53367000  0.80004000  1
  C  C103  1  0.35688000  0.46320000  0.19811000  1
  C  C104  1  0.92286000  0.57706000  0.25199000  1
  C  C105  1  0.91563000  0.42464000  0.74980000  1
  C  C106  1  0.39467000  0.56835000  0.73841000  1
  C  C107  1  0.42213000  0.42303000  0.24804000  1
  C  C108  1  0.00916000  0.54375000  0.20863000  1
  C  C109  1  0.00843000  0.45615000  0.78927000  1
  C  C110  1  0.43446000  0.52860000  0.67982000  1
  C  C111  1  0.50933000  0.45577000  0.29076000  1
  C  C112  1  0.01733000  0.47089000  0.20810000  1
  C  C113  1  0.02082000  0.52875000  0.78887000  1
  C  C114  1  0.44110000  0.45591000  0.68347000  1
  C  C115  1  0.51828000  0.52862000  0.29122000  1
  C  C116  1  0.94669000  0.43010000  0.25490000  1
  C  C117  1  0.94426000  0.57105000  0.74656000  1
  C  C118  1  0.41423000  0.42154000  0.74692000  1
  C  C119  1  0.44706000  0.56995000  0.24517000  1
  C  C120  1  0.05764000  0.03650000  0.51046000  1
  C  C121  1  0.05674000  0.96430000  0.49245000  1
  C  C122  1  0.55128000  0.03705000  0.00723000  1
  C  C123  1  0.55212000  0.96394000  0.99363000  1
  C  C124  1  0.16668000  0.92523000  0.49869000  1
  C  C125  1  0.16761000  0.07468000  0.50116000  1
  C  C126  1  0.66391000  0.92578000  0.99903000  1
  C  C127  1  0.66289000  0.07509000  0.00267000  1
  C  C128  1  0.28030000  0.96165000  0.49790000  1
  C  C129  1  0.28078000  0.03697000  0.49894000  1
  C  C130  1  0.77652000  0.96308000  0.99716000  1
  C  C131  1  0.77562000  0.03802000  0.00620000  1
  C  C132  1  0.03161000  0.02706000  0.21797000  1
  C  C133  1  0.02284000  0.97654000  0.71430000  1
  C  C134  1  0.52683000  0.02782000  0.71435000  1
  C  C135  1  0.55119000  0.98800000  0.20339000  1
  C  C136  1  0.01940000  0.95430000  0.21562000  1
  C  C137  1  0.00471000  0.04933000  0.72126000  1
  C  C138  1  0.51635000  0.95503000  0.71283000  1
  C  C139  1  0.52060000  0.05945000  0.21301000  1
  C  C140  1  0.91835000  0.92283000  0.24935000  1
  C  C141  1  0.90155000  0.07337000  0.75813000  1
  C  C142  1  0.41853000  0.92291000  0.74906000  1
  C  C143  1  0.41583000  0.07665000  0.25260000  1
  C  C144  1  0.83672000  0.96470000  0.28929000  1
  C  C145  1  0.81927000  0.02532000  0.78930000  1
  C  C146  1  0.33927000  0.96426000  0.79111000  1
  C  C147  1  0.34356000  0.02331000  0.28273000  1
  C  C148  1  0.85004000  0.03791000  0.29221000  1
  C  C149  1  0.83914000  0.95259000  0.78381000  1
  C  C150  1  0.35170000  0.03755000  0.79378000  1
  C  C151  1  0.37531000  0.95238000  0.27467000  1
  C  C152  1  0.94596000  0.06952000  0.25416000  1
  C  C153  1  0.94068000  0.92857000  0.74562000  1
  C  C154  1  0.44425000  0.06978000  0.75340000  1
  C  C155  1  0.47991000  0.93474000  0.23481000  1
  C  C156  1  0.10943000  0.91417000  0.17582000  1
  C  C157  1  0.09330000  0.09806000  0.69201000  1
  C  C158  1  0.60613000  0.91533000  0.67232000  1
  C  C159  1  0.59950000  0.11389000  0.18459000  1
  C  C160  1  0.76249000  0.07898000  0.33266000  1
  C  C161  1  0.75558000  0.90351000  0.81708000  1
  C  C162  1  0.26555000  0.07811000  0.83568000  1
  C  C163  1  0.30037000  0.89889000  0.30828000  1
  C  C164  1  0.94941000  0.07068000  0.54541000  1
  C  C165  1  0.94629000  0.93053000  0.46044000  1
  C  C166  1  0.43676000  0.07487000  0.02974000  1
  C  C167  1  0.43741000  0.92710000  0.97220000  1
  C  C168  1  0.39656000  0.92023000  0.49194000  1
  C  C169  1  0.39919000  0.07566000  0.49941000  1
  C  C170  1  0.89016000  0.92487000  0.97419000  1
  C  C171  1  0.88694000  0.07709000  0.03028000  1
  N  N172  1  0.18137000  0.88229000  0.14377000  1
  N  N173  1  0.16434000  0.13714000  0.66869000  1
  N  N174  1  0.67802000  0.88377000  0.63992000  1
  N  N175  1  0.66292000  0.15753000  0.16198000  1
  N  N176  1  0.69238000  0.11174000  0.36517000  1
  N  N177  1  0.68875000  0.86378000  0.84323000  1
  N  N178  1  0.19628000  0.11051000  0.86915000  1
  N  N179  1  0.24018000  0.85609000  0.33506000  1
  O  O180  1  0.04261000  0.32959000  0.21249000  1
  O  O181  1  0.04261000  0.67041000  0.78751000  1
  O  O182  1  0.54261000  0.32959000  0.71249000  1
  O  O183  1  0.54261000  0.67041000  0.28751000  1
  O  O184  1  0.29209000  0.32491000  0.23433000  1
  O  O185  1  0.29209000  0.67509000  0.76567000  1
  O  O186  1  0.79209000  0.32491000  0.73433000  1
  O  O187  1  0.79209000  0.67509000  0.26567000  1
  O  O188  1  0.40902000  0.33144000  0.32978000  1
  O  O189  1  0.40902000  0.66856000  0.67022000  1
  O  O190  1  0.90902000  0.33144000  0.82978000  1
  O  O191  1  0.90902000  0.66856000  0.17022000  1
  O  O192  1  0.25159000  0.32502000  0.44342000  1
  O  O193  1  0.25159000  0.67498000  0.55658000  1
  O  O194  1  0.75159000  0.32502000  0.94342000  1
  O  O195  1  0.75159000  0.67498000  0.05658000  1
  O  O196  1  0.04967000  0.32997000  0.45411000  1
  O  O197  1  0.04967000  0.67003000  0.54589000  1
  O  O198  1  0.54967000  0.32997000  0.95411000  1
  O  O199  1  0.54967000  0.67003000  0.04589000  1
  O  O200  1  0.95786000  0.32350000  0.31866000  1
  O  O201  1  0.95786000  0.67650000  0.68134000  1
  O  O202  1  0.45786000  0.32350000  0.81866000  1
  O  O203  1  0.45786000  0.67650000  0.18134000  1
  O  O204  1  0.04401000  0.16906000  0.21262000  1
  O  O205  1  0.04401000  0.83094000  0.78738000  1
  O  O206  1  0.54401000  0.16906000  0.71262000  1
  O  O207  1  0.54401000  0.83094000  0.28738000  1
  O  O208  1  0.29339000  0.17609000  0.23446000  1
  O  O209  1  0.29339000  0.82391000  0.76554000  1
  O  O210  1  0.79339000  0.17609000  0.73446000  1
  O  O211  1  0.79339000  0.82391000  0.26554000  1
  O  O212  1  0.41041000  0.17091000  0.32991000  1
  O  O213  1  0.41041000  0.82909000  0.67009000  1
  O  O214  1  0.91041000  0.17091000  0.82991000  1
  O  O215  1  0.91041000  0.82909000  0.17009000  1
  O  O216  1  0.25289000  0.17621000  0.44355000  1
  O  O217  1  0.25289000  0.82379000  0.55645000  1
  O  O218  1  0.75289000  0.17621000  0.94355000  1
  O  O219  1  0.75289000  0.82379000  0.05645000  1
  O  O220  1  0.05107000  0.16944000  0.45425000  1
  O  O221  1  0.05107000  0.83056000  0.54575000  1
  O  O222  1  0.55107000  0.16944000  0.95425000  1
  O  O223  1  0.55107000  0.83056000  0.04575000  1
  O  O224  1  0.95915000  0.17468000  0.31879000  1
  O  O225  1  0.95915000  0.82532000  0.68121000  1
  O  O226  1  0.45915000  0.17468000  0.81879000  1
  O  O227  1  0.45915000  0.82532000  0.18121000  1
  O  O228  1  0.16781000  0.25004000  0.33218000  1
  O  O229  1  0.16781000  0.74996000  0.66782000  1
  O  O230  1  0.66781000  0.25004000  0.83218000  1
  O  O231  1  0.66781000  0.74996000  0.16782000  1
  O  O232  1  0.86464000  0.03535000  0.56845000  1
  O  O233  1  0.85116000  0.96343000  0.45135000  1
  O  O234  1  0.33615000  0.06026000  0.00608000  1
  O  O235  1  0.43960000  0.88360000  0.92437000  1
  O  O236  1  0.49006000  0.93902000  0.52160000  1
  O  O237  1  0.41531000  0.12529000  0.53984000  1
  O  O238  1  0.97561000  0.95673000  0.94728000  1
  O  O239  1  0.97644000  0.04572000  0.05320000  1
