# generated using pymatgen
data_Cd5H16C24(N10Cl3)2
_symmetry_space_group_name_H-M   'P 1'
_cell_length_a   12.73625000
_cell_length_b   13.40899585
_cell_length_c   17.61963268
_cell_angle_alpha   87.74940749
_cell_angle_beta   68.88679179
_cell_angle_gamma   61.69972341
_symmetry_Int_Tables_number   1
_chemical_formula_structural   Cd5H16C24(N10Cl3)2
_chemical_formula_sum   'Cd10 H32 C48 N40 Cl12'
_cell_volume   2439.68867961
_cell_formula_units_Z   2
loop_
 _symmetry_equiv_pos_site_id
 _symmetry_equiv_pos_as_xyz
  1  'x, y, z'
loop_
 _atom_site_type_symbol
 _atom_site_label
 _atom_site_symmetry_multiplicity
 _atom_site_fract_x
 _atom_site_fract_y
 _atom_site_fract_z
 _atom_site_occupancy
  Cd  Cd1  1  0.91471000  0.25081000  0.22597000  1.0
  Cd  Cd2  1  0.17514000  0.34532000  0.16131000  1.0
  Cd  Cd3  1  0.39193000  0.24913000  0.27385000  1.0
  Cd  Cd4  1  0.68181000  0.15464000  0.33888000  1.0
  Cd  Cd5  1  0.08530000  0.74919000  0.77403000  1.0
  Cd  Cd6  1  0.82487000  0.65468000  0.83869000  1.0
  Cd  Cd7  1  0.60808000  0.75087000  0.72615000  1.0
  Cd  Cd8  1  0.31820000  0.84536000  0.66112000  1.0
  Cd  Cd9  1  0.50000000  0.00000000  0.00000000  1.0
  Cd  Cd10  1  0.50000000  0.50000000  0.50000000  1.0
  H  H1  1  0.91267000  0.35852000  0.05834000  1.0
  H  H2  1  0.95465000  0.48111000  0.95622000  1.0
  H  H3  1  0.59661000  0.60827000  0.94164000  1.0
  H  H4  1  0.53432000  0.49782000  0.05043000  1.0
  H  H5  1  0.57206000  0.65091000  0.16344000  1.0
  H  H6  1  0.83544000  0.77905000  0.13614000  1.0
  H  H7  1  0.70506000  0.94043000  0.07635000  1.0
  H  H8  1  0.45832000  0.81178000  0.09587000  1.0
  H  H9  1  0.32985000  0.14122000  0.44156000  1.0
  H  H10  1  0.39236000  0.01853000  0.54358000  1.0
  H  H11  1  0.14657000  0.89159000  0.55826000  1.0
  H  H12  1  0.08240000  0.00204000  0.44960000  1.0
  H  H13  1  0.38647000  0.84890000  0.33638000  1.0
  H  H14  1  0.75013000  0.72113000  0.36381000  1.0
  H  H15  1  0.72110000  0.55980000  0.42376000  1.0
  H  H16  1  0.36588000  0.68804000  0.40410000  1.0
  H  H17  1  0.08733000  0.64148000  0.94167000  1.0
  H  H18  1  0.04536000  0.51889000  0.04378000  1.0
  H  H19  1  0.40340000  0.39173000  0.05836000  1.0
  H  H20  1  0.46569000  0.50218000  0.94957000  1.0
  H  H21  1  0.42795000  0.34909000  0.83656000  1.0
  H  H22  1  0.16457000  0.22095000  0.86386000  1.0
  H  H23  1  0.29494000  0.05957000  0.92365000  1.0
  H  H24  1  0.54168000  0.18822000  0.90414000  1.0
  H  H25  1  0.67015000  0.85878000  0.55845000  1.0
  H  H26  1  0.60765000  0.98147000  0.45642000  1.0
  H  H27  1  0.85344000  0.10841000  0.44174000  1.0
  H  H28  1  0.91760000  0.99796000  0.55041000  1.0
  H  H29  1  0.61354000  0.15110000  0.66362000  1.0
  H  H30  1  0.24988000  0.27887000  0.63619000  1.0
  H  H31  1  0.27891000  0.44020000  0.57624000  1.0
  H  H32  1  0.63413000  0.31196000  0.59590000  1.0
  C  C1  1  0.68043000  0.35271000  0.12525000  1.0
  C  C2  1  0.71824000  0.41811000  0.06328000  1.0
  C  C3  1  0.83834000  0.41396000  0.03578000  1.0
  C  C4  1  0.86262000  0.48234000  0.97814000  1.0
  C  C5  1  0.66280000  0.55332000  0.97005000  1.0
  C  C6  1  0.62945000  0.49046000  0.02930000  1.0
  C  C7  1  0.79031000  0.60279000  0.18521000  1.0
  C  C8  1  0.71465000  0.70103000  0.15335000  1.0
  C  C9  1  0.60429000  0.71309000  0.14421000  1.0
  C  C10  1  0.75190000  0.78409000  0.12887000  1.0
  C  C11  1  0.68047000  0.87345000  0.09497000  1.0
  C  C12  1  0.54061000  0.80262000  0.10740000  1.0
  C  C13  1  0.15831000  0.14724000  0.37475000  1.0
  C  C14  1  0.19975000  0.08172000  0.43661000  1.0
  C  C15  1  0.28842000  0.08573000  0.46406000  1.0
  C  C16  1  0.32344000  0.01725000  0.52167000  1.0
  C  C17  1  0.18624000  0.94648000  0.52977000  1.0
  C  C18  1  0.14927000  0.00941000  0.47055000  1.0
  C  C19  1  0.57821000  0.89699000  0.31443000  1.0
  C  C20  1  0.56900000  0.79877000  0.34636000  1.0
  C  C21  1  0.46159000  0.78674000  0.35559000  1.0
  C  C22  1  0.66453000  0.71588000  0.37105000  1.0
  C  C23  1  0.64831000  0.62667000  0.40506000  1.0
  C  C24  1  0.45034000  0.69745000  0.39255000  1.0
  C  C25  1  0.31957000  0.64730000  0.87475000  1.0
  C  C26  1  0.28175000  0.58190000  0.93673000  1.0
  C  C27  1  0.16167000  0.58604000  0.96422000  1.0
  C  C28  1  0.13738000  0.51766000  0.02186000  1.0
  C  C29  1  0.33721000  0.44668000  0.02995000  1.0
  C  C30  1  0.37055000  0.50954000  0.97071000  1.0
  C  C31  1  0.20968000  0.39722000  0.81479000  1.0
  C  C32  1  0.28536000  0.29897000  0.84665000  1.0
  C  C33  1  0.39572000  0.28691000  0.85579000  1.0
  C  C34  1  0.24810000  0.21592000  0.87113000  1.0
  C  C35  1  0.31953000  0.12655000  0.90504000  1.0
  C  C36  1  0.45940000  0.19738000  0.89260000  1.0
  C  C37  1  0.84170000  0.85276000  0.62525000  1.0
  C  C38  1  0.80026000  0.91828000  0.56339000  1.0
  C  C39  1  0.71158000  0.91428000  0.53594000  1.0
  C  C40  1  0.67657000  0.98275000  0.47833000  1.0
  C  C41  1  0.81375000  0.05353000  0.47024000  1.0
  C  C42  1  0.85074000  0.99059000  0.52945000  1.0
  C  C43  1  0.42178000  0.10301000  0.68558000  1.0
  C  C44  1  0.43101000  0.20123000  0.65364000  1.0
  C  C45  1  0.53842000  0.21326000  0.64441000  1.0
  C  C46  1  0.33548000  0.28412000  0.62895000  1.0
  C  C47  1  0.35169000  0.37334000  0.59494000  1.0
  C  C48  1  0.54966000  0.30256000  0.60745000  1.0
  N  N1  1  0.73826000  0.29755000  0.17736000  1.0
  N  N2  1  0.66463000  0.25494000  0.22330000  1.0
  N  N3  1  0.56769000  0.28201000  0.19966000  1.0
  N  N4  1  0.57458000  0.34304000  0.13856000  1.0
  N  N5  1  0.77781000  0.55061000  0.94497000  1.0
  N  N6  1  0.90708000  0.57672000  0.18452000  1.0
  N  N7  1  0.94831000  0.47622000  0.21104000  1.0
  N  N8  1  0.85813000  0.44352000  0.22807000  1.0
  N  N9  1  0.75802000  0.52163000  0.21247000  1.0
  N  N10  1  0.57833000  0.88124000  0.08263000  1.0
  N  N11  1  0.21330000  0.20219000  0.32267000  1.0
  N  N12  1  0.14311000  0.24485000  0.27663000  1.0
  N  N13  1  0.04941000  0.21803000  0.30020000  1.0
  N  N14  1  0.05602000  0.15709000  0.36137000  1.0
  N  N15  1  0.27364000  0.94904000  0.55481000  1.0
  N  N16  1  0.66802000  0.92325000  0.31532000  1.0
  N  N17  1  0.63503000  0.02392000  0.28907000  1.0
  N  N18  1  0.52927000  0.05651000  0.27197000  1.0
  N  N19  1  0.49191000  0.97816000  0.28727000  1.0
  N  N20  1  0.54170000  0.61885000  0.41741000  1.0
  N  N21  1  0.26174000  0.70245000  0.82265000  1.0
  N  N22  1  0.33538000  0.74506000  0.77670000  1.0
  N  N23  1  0.43231000  0.71800000  0.80034000  1.0
  N  N24  1  0.42543000  0.65696000  0.86144000  1.0
  N  N25  1  0.22220000  0.44939000  0.05503000  1.0
  N  N26  1  0.09292000  0.42328000  0.81548000  1.0
  N  N27  1  0.05170000  0.52378000  0.78896000  1.0
  N  N28  1  0.14187000  0.55648000  0.77194000  1.0
  N  N29  1  0.24197000  0.47837000  0.78754000  1.0
  N  N30  1  0.42168000  0.11876000  0.91737000  1.0
  N  N31  1  0.78670000  0.79782000  0.67733000  1.0
  N  N32  1  0.85690000  0.75515000  0.72337000  1.0
  N  N33  1  0.95060000  0.78197000  0.69980000  1.0
  N  N34  1  0.94398000  0.84292000  0.63863000  1.0
  N  N35  1  0.72637000  0.05096000  0.44519000  1.0
  N  N36  1  0.33199000  0.07675000  0.68468000  1.0
  N  N37  1  0.36496000  0.97609000  0.71094000  1.0
  N  N38  1  0.47072000  0.94350000  0.72804000  1.0
  N  N39  1  0.50810000  0.02184000  0.71273000  1.0
  N  N40  1  0.45830000  0.38115000  0.58260000  1.0
  Cl  Cl1  1  0.11746000  0.21485000  0.09162000  1.0
  Cl  Cl2  1  0.71208000  0.32462000  0.39980000  1.0
  Cl  Cl3  1  0.93055000  0.05686000  0.24733000  1.0
  Cl  Cl4  1  0.42438000  0.28550000  0.40842000  1.0
  Cl  Cl5  1  0.43588000  0.17540000  0.10029000  1.0
  Cl  Cl6  1  0.23528000  0.44298000  0.25283000  1.0
  Cl  Cl7  1  0.88254000  0.78515000  0.90839000  1.0
  Cl  Cl8  1  0.28793000  0.67538000  0.60020000  1.0
  Cl  Cl9  1  0.06946000  0.94314000  0.75267000  1.0
  Cl  Cl10  1  0.57562000  0.71450000  0.59159000  1.0
  Cl  Cl11  1  0.56412000  0.82461000  0.89971000  1.0
  Cl  Cl12  1  0.76473000  0.55702000  0.74717000  1.0
