# generated using pymatgen
data_SiH28(C12N)4
_symmetry_space_group_name_H-M   'P 1'
_cell_length_a   22.88945000
_cell_length_b   42.53960000
_cell_length_c   43.63650000
_cell_angle_alpha   90.00000000
_cell_angle_beta   90.00000000
_cell_angle_gamma   89.97770000
_symmetry_Int_Tables_number   1
_chemical_formula_structural   SiH28(C12N)4
_chemical_formula_sum   'Si8 H224 C384 N32'
_cell_volume   42489.20798431
_cell_formula_units_Z   8
loop_
 _symmetry_equiv_pos_site_id
 _symmetry_equiv_pos_as_xyz
  1  'x, y, z'
loop_
 _atom_site_type_symbol
 _atom_site_label
 _atom_site_symmetry_multiplicity
 _atom_site_fract_x
 _atom_site_fract_y
 _atom_site_fract_z
 _atom_site_occupancy
  C  1  1  0.24225200  0.14218500  0.21301500  1
  C  2  1  0.29579000  0.12639500  0.20823900  1
  C  3  1  0.29754000  0.09803100  0.19185400  1
  C  4  1  0.24561800  0.08457500  0.18014600  1
  C  5  1  0.19240200  0.10107200  0.18413500  1
  C  6  1  0.19047100  0.12899900  0.20110000  1
  C  8  1  0.24111400  0.07031600  0.12300300  1
  C  9  1  0.18778500  0.07054900  0.10653600  1
  C  10  1  0.18538200  0.08212600  0.07643600  1
  C  11  1  0.23584200  0.09462300  0.06241100  1
  C  12  1  0.28735600  0.09776600  0.07987400  1
  C  13  1  0.28941900  0.08646300  0.11012300  1
  C  14  1  0.30645700  0.03154500  0.16160600  1
  C  15  1  0.19419700  0.02781100  0.16452200  1
  C  16  1  0.18144600  0.00426200  0.14255300  1
  C  17  1  0.13422600  0.98372300  0.14680000  1
  C  18  1  0.10046800  0.98530500  0.17378700  1
  C  19  1  0.11622600  0.00655500  0.19711600  1
  C  20  1  0.16314100  0.02734000  0.19262800  1
  C  21  1  0.32224900  0.02082600  0.19123500  1
  C  22  1  0.36874500  0.99966500  0.19534200  1
  C  23  1  0.39988600  0.98798700  0.16984800  1
  C  24  1  0.38420600  0.99853300  0.14026600  1
  C  25  1  0.33756800  0.01951900  0.13614900  1
  C  42  1  0.24849800  0.14217200  0.78234900  1
  C  43  1  0.19499600  0.12636000  0.78709700  1
  C  44  1  0.19329500  0.09799400  0.80348000  1
  C  45  1  0.24520100  0.08459500  0.81529400  1
  C  46  1  0.29838000  0.10110600  0.81130200  1
  C  47  1  0.30028700  0.12900700  0.79430000  1
  C  49  1  0.24972900  0.07030100  0.87242000  1
  C  50  1  0.30303800  0.07050700  0.88890400  1
  C  51  1  0.30541500  0.08207700  0.91900700  1
  C  52  1  0.25493800  0.09458800  0.93302300  1
  C  53  1  0.20343700  0.09774800  0.91555200  1
  C  54  1  0.20140300  0.08645400  0.88529700  1
  C  55  1  0.18447900  0.03153300  0.83379400  1
  C  56  1  0.29673500  0.02782800  0.83088200  1
  C  57  1  0.30949900  0.00425600  0.85283100  1
  C  58  1  0.35670400  0.98369200  0.84857100  1
  C  59  1  0.39053500  0.98532200  0.82161200  1
  C  60  1  0.37487300  0.00665100  0.79833100  1
  C  61  1  0.32787100  0.02740300  0.80280000  1
  C  62  1  0.16872300  0.02081200  0.80416100  1
  C  63  1  0.12227300  0.99964300  0.80003600  1
  C  64  1  0.09109400  0.98798000  0.82551700  1
  C  65  1  0.10669800  0.99854200  0.85510200  1
  C  66  1  0.15329400  0.01953300  0.85923200  1
  C  83  1  0.74284700  0.75409200  0.78212400  1
  C  84  1  0.79478800  0.76487800  0.79587200  1
  C  85  1  0.79467600  0.79287300  0.81277100  1
  C  86  1  0.74333500  0.81132800  0.81527600  1
  C  87  1  0.69118500  0.79995300  0.80179400  1
  C  88  1  0.69096700  0.77165700  0.78526900  1
  C  90  1  0.74986300  0.82610500  0.87234900  1
  C  91  1  0.70177400  0.80967600  0.88512500  1
  C  92  1  0.70370700  0.79854000  0.91543200  1
  C  93  1  0.75497300  0.80201000  0.93302500  1
  C  94  1  0.80533900  0.81477200  0.91912900  1
  C  95  1  0.80292900  0.82639000  0.88905100  1
  C  96  1  0.79798900  0.86749300  0.83033600  1
  C  97  1  0.68548600  0.86533200  0.83377600  1
  C  98  1  0.65353500  0.87670500  0.85923400  1
  C  99  1  0.60698500  0.89775800  0.85521700  1
  C  100  1  0.59202700  0.90886800  0.82573900  1
  C  101  1  0.62415500  0.89800800  0.80025400  1
  C  102  1  0.67074600  0.87690000  0.80429200  1
  C  103  1  0.83129300  0.86622500  0.80297600  1
  C  104  1  0.87843900  0.88682500  0.79825500  1
  C  105  1  0.89223100  0.90961100  0.82053000  1
  C  106  1  0.85692600  0.91252400  0.84684800  1
  C  107  1  0.80966500  0.89208400  0.85138100  1
  C  124  1  0.74832700  0.75410400  0.21329300  1
  C  125  1  0.69640500  0.76491100  0.19952500  1
  C  126  1  0.69653300  0.79290800  0.18263000  1
  C  127  1  0.74787100  0.81135200  0.18016900  1
  C  128  1  0.80001900  0.79994100  0.19364000  1
  C  129  1  0.80021500  0.77164300  0.21016000  1
  C  131  1  0.74140900  0.82609100  0.12307100  1
  C  132  1  0.78952700  0.80962200  0.11034100  1
  C  133  1  0.78768400  0.79855000  0.08000900  1
  C  134  1  0.73641500  0.80199100  0.06241700  1
  C  135  1  0.68601100  0.81476800  0.07627800  1
  C  136  1  0.68834300  0.82634700  0.10636800  1
  C  137  1  0.69317100  0.86750000  0.16505000  1
  C  138  1  0.80568300  0.86533200  0.16165000  1
  C  139  1  0.83762700  0.87670300  0.13619400  1
  C  140  1  0.88412100  0.89777500  0.14021500  1
  C  141  1  0.89904700  0.90888500  0.16969500  1
  C  142  1  0.86694100  0.89801200  0.19517700  1
  C  143  1  0.82038700  0.87690300  0.19113600  1
  C  144  1  0.65990100  0.86627700  0.19242100  1
  C  145  1  0.61269100  0.88686000  0.19710600  1
  C  146  1  0.59890500  0.90964100  0.17482100  1
  C  147  1  0.63421500  0.91253300  0.14850400  1
  C  148  1  0.68148700  0.89207900  0.14398700  1
  C  165  1  0.74757900  0.64132200  0.71452700  1
  C  166  1  0.79961500  0.62392900  0.71126200  1
  C  167  1  0.79984300  0.59608000  0.69404200  1
  C  168  1  0.74801700  0.58506200  0.67995500  1
  C  169  1  0.69674600  0.60360200  0.68225600  1
  C  170  1  0.69617900  0.63114800  0.69982000  1
  C  172  1  0.74138100  0.57003800  0.62294600  1
  C  173  1  0.68823300  0.56967600  0.60631300  1
  C  174  1  0.68561700  0.58132900  0.57625800  1
  C  175  1  0.73585800  0.59422500  0.56235400  1
  C  176  1  0.78718700  0.59777900  0.57987200  1
  C  177  1  0.78933800  0.58654300  0.61013600  1
  C  178  1  0.80578700  0.53094500  0.66171400  1
  C  179  1  0.69329900  0.52894500  0.66521800  1
  C  180  1  0.68167100  0.50414200  0.64440500  1
  C  181  1  0.63427500  0.48383100  0.64906200  1
  C  182  1  0.59877700  0.48712500  0.67526200  1
  C  183  1  0.61251300  0.51012200  0.69733300  1
  C  184  1  0.65987300  0.53054100  0.69252300  1
  C  185  1  0.82008500  0.51928100  0.69122600  1
  C  186  1  0.86640300  0.49802800  0.69536900  1
  C  187  1  0.89874500  0.48716500  0.66996600  1
  C  188  1  0.88433500  0.49843200  0.64046800  1
  C  189  1  0.83802700  0.51961900  0.63633800  1
  C  206  1  0.74314100  0.64132200  0.28086300  1
  C  207  1  0.69101900  0.62401800  0.28409000  1
  C  208  1  0.69062400  0.59616000  0.30129300  1
  C  209  1  0.74237900  0.58503300  0.31538500  1
  C  210  1  0.79373100  0.60349400  0.31314400  1
  C  211  1  0.79446300  0.63104900  0.29559400  1
  C  213  1  0.74883700  0.57001500  0.37240600  1
  C  214  1  0.80196700  0.56959800  0.38905200  1
  C  215  1  0.80455200  0.58122300  0.41911700  1
  C  216  1  0.75434300  0.59419000  0.43300200  1
  C  217  1  0.70305500  0.59781700  0.41546600  1
  C  218  1  0.70089900  0.58656900  0.38520500  1
  C  219  1  0.68436100  0.53101100  0.33361700  1
  C  220  1  0.79684900  0.52884800  0.33015900  1
  C  221  1  0.80837500  0.50403100  0.35097900  1
  C  222  1  0.85578500  0.48369700  0.34636300  1
  C  223  1  0.89131100  0.48694600  0.32016700  1
  C  224  1  0.87761500  0.50992200  0.29806900  1
  C  225  1  0.83029900  0.53039500  0.30286100  1
  C  226  1  0.67005700  0.51936500  0.30410300  1
  C  227  1  0.62371900  0.49814700  0.29994800  1
  C  228  1  0.59141900  0.48726300  0.32535400  1
  C  229  1  0.60581300  0.49852400  0.35485400  1
  C  230  1  0.65211100  0.51969700  0.35898800  1
  C  247  1  0.23883500  0.25520900  0.28186200  1
  C  248  1  0.29202600  0.26692100  0.29356800  1
  C  249  1  0.29293300  0.29461000  0.31094400  1
  C  250  1  0.24115000  0.31213700  0.31576500  1
  C  251  1  0.18763200  0.29962900  0.30504500  1
  C  252  1  0.18653000  0.27152100  0.28827900  1
  C  254  1  0.24837100  0.32632400  0.37282700  1
  C  255  1  0.19948000  0.31083500  0.38586500  1
  C  256  1  0.20164800  0.29914500  0.41595200  1
  C  257  1  0.25373900  0.30124900  0.43305900  1
  C  258  1  0.30451000  0.31323500  0.41892400  1
  C  259  1  0.30203800  0.32515600  0.38895800  1
  C  260  1  0.29687800  0.36804500  0.33118300  1
  C  261  1  0.18464400  0.36613200  0.33431200  1
  C  262  1  0.15352300  0.37827100  0.35970100  1
  C  263  1  0.10711300  0.39937400  0.35544100  1
  C  264  1  0.09160700  0.40978300  0.32578200  1
  C  265  1  0.12295500  0.39809000  0.30037700  1
  C  266  1  0.16925700  0.37686300  0.30462800  1
  C  267  1  0.32782500  0.36803300  0.30304700  1
  C  268  1  0.37511700  0.38852300  0.29830300  1
  C  269  1  0.39130600  0.40999400  0.32135900  1
  C  270  1  0.35788200  0.41192700  0.34844000  1
  C  271  1  0.31044300  0.39162100  0.35299300  1
  C  288  1  0.25178000  0.25520200  0.71350800  1
  C  289  1  0.19857800  0.26693000  0.70180900  1
  C  290  1  0.19764800  0.29463100  0.68444900  1
  C  291  1  0.24942100  0.31214900  0.67963700  1
  C  292  1  0.30295500  0.29960800  0.69032500  1
  C  293  1  0.30407300  0.27150200  0.70709300  1
  C  295  1  0.24221300  0.32636400  0.62258100  1
  C  296  1  0.29113800  0.31090100  0.60952800  1
  C  297  1  0.28897500  0.29924300  0.57942700  1
  C  298  1  0.23679700  0.30125100  0.56238200  1
  C  299  1  0.18601100  0.31322800  0.57651900  1
  C  300  1  0.18851700  0.32517200  0.60647600  1
  C  301  1  0.19365100  0.36808000  0.66422800  1
  C  302  1  0.30588200  0.36614800  0.66113200  1
  C  303  1  0.33697100  0.37832700  0.63575600  1
  C  304  1  0.38332700  0.39943700  0.64003700  1
  C  305  1  0.39877200  0.40984600  0.66970300  1
  C  306  1  0.36744700  0.39811800  0.69509600  1
  C  307  1  0.32122800  0.37686300  0.69082500  1
  C  308  1  0.16270900  0.36807600  0.69236500  1
  C  309  1  0.11535600  0.38854800  0.69709200  1
  C  310  1  0.09909100  0.40998300  0.67401100  1
  C  311  1  0.13251200  0.41190500  0.64693300  1
  C  312  1  0.18009400  0.39166600  0.64242300  1
  C  329  1  0.25111400  0.09514400  0.96532400  1
  C  330  1  0.24809000  0.06635400  0.98154700  1
  C  331  1  0.24273400  0.06636300  0.01390300  1
  C  332  1  0.23965900  0.09516300  0.03011100  1
  C  333  1  0.24290100  0.12376800  0.01379300  1
  C  334  1  0.24782700  0.12375900  0.98162700  1
  C  336  1  0.24325600  0.00998800  0.01392400  1
  C  337  1  0.24766700  0.00997900  0.98155600  1
  C  341  1  0.24113700  0.98135300  0.03006000  1
  C  342  1  0.24337700  0.95275000  0.01386000  1
  C  343  1  0.24764600  0.95274000  0.98165200  1
  C  344  1  0.24983500  0.98133500  0.96543600  1
  C  349  1  0.74027500  0.80145100  0.03011900  1
  C  350  1  0.74318200  0.83025200  0.01390400  1
  C  351  1  0.74816100  0.83025400  0.98153800  1
  C  352  1  0.75110100  0.80145800  0.96531700  1
  C  353  1  0.74803100  0.77284200  0.98162700  1
  C  354  1  0.74336100  0.77284000  0.01380300  1
  C  356  1  0.74762100  0.88663200  0.98153800  1
  C  357  1  0.74364100  0.88663000  0.01391800  1
  C  361  1  0.74952500  0.91527400  0.96540400  1
  C  362  1  0.74749900  0.94387300  0.98162200  1
  C  363  1  0.74366100  0.94386800  0.01384500  1
  C  364  1  0.74168900  0.91526700  0.03005700  1
  C  369  1  0.75056500  0.59474700  0.46529100  1
  C  370  1  0.74760900  0.56594800  0.48150700  1
  C  371  1  0.74257100  0.56595700  0.51386500  1
  C  372  1  0.73961100  0.59476300  0.53006500  1
  C  373  1  0.74272900  0.62337700  0.51375800  1
  C  374  1  0.74742500  0.62336700  0.48158500  1
  C  376  1  0.74307700  0.50957700  0.51388800  1
  C  377  1  0.74712100  0.50956700  0.48150900  1
  C  381  1  0.74111900  0.48094200  0.53003100  1
  C  382  1  0.74315900  0.45233800  0.51382400  1
  C  383  1  0.74707100  0.45232900  0.48160100  1
  C  384  1  0.74909300  0.48092300  0.46538100  1
  C  389  1  0.23994300  0.30067500  0.53009200  1
  C  390  1  0.24277500  0.32948300  0.51389700  1
  C  391  1  0.24773300  0.32948300  0.48153700  1
  C  392  1  0.25059300  0.30067300  0.46534600  1
  C  393  1  0.24753100  0.27205000  0.48163100  1
  C  394  1  0.24298800  0.27205000  0.51380600  1
  C  396  1  0.24727400  0.38585700  0.48153000  1
  C  397  1  0.24316800  0.38585700  0.51390900  1
  C  401  1  0.24926700  0.41449600  0.46539900  1
  C  402  1  0.24718400  0.44309500  0.48161200  1
  C  403  1  0.24318700  0.44309500  0.51383100  1
  C  404  1  0.24114500  0.41449600  0.53004400  1
  C  409  1  0.04758200  0.96848500  0.17546400  1
  C  410  1  0.99913700  0.97783000  0.15750800  1
  C  411  1  0.94819900  0.95884700  0.15652800  1
  C  412  1  0.94587100  0.93036300  0.17334900  1
  C  413  1  0.99376600  0.92203700  0.19215500  1
  C  414  1  0.04412400  0.94086900  0.19321400  1
  C  416  1  0.90385500  0.99551400  0.12187800  1
  C  417  1  0.95493300  0.01429500  0.12271500  1
  C  421  1  0.85607900  0.00465500  0.10360200  1
  C  422  1  0.85933900  0.03246200  0.08618000  1
  C  423  1  0.91013500  0.05112500  0.08701700  1
  C  424  1  0.95798900  0.04210300  0.10528900  1
  C  429  1  0.44342300  0.96848300  0.81994100  1
  C  430  1  0.49185700  0.97782500  0.83789600  1
  C  431  1  0.54280500  0.95882900  0.83889100  1
  C  432  1  0.54514500  0.93033000  0.82209100  1
  C  433  1  0.49725300  0.92200200  0.80329500  1
  C  434  1  0.44688100  0.94084100  0.80222700  1
  C  436  1  0.58711900  0.99551000  0.87352300  1
  C  437  1  0.53603100  0.01430100  0.87267200  1
  C  441  1  0.63487900  0.00464400  0.89180100  1
  C  442  1  0.63160100  0.03246200  0.90920800  1
  C  443  1  0.58079700  0.05113800  0.90835600  1
  C  444  1  0.53295500  0.04211900  0.89008200  1
  C  449  1  0.94473700  0.92675700  0.81883400  1
  C  450  1  0.99315100  0.91790200  0.83703000  1
  C  451  1  0.04333200  0.93744900  0.83835900  1
  C  452  1  0.04487500  0.96608800  0.82173300  1
  C  453  1  0.99689500  0.97399100  0.80280000  1
  C  454  1  0.94729100  0.95460700  0.80140200  1
  C  456  1  0.08823300  0.90115300  0.87320900  1
  C  457  1  0.03780600  0.88188600  0.87209500  1
  C  461  1  0.13589600  0.89250000  0.89178700  1
  C  462  1  0.13316400  0.86469800  0.90924500  1
  C  463  1  0.08300700  0.84555500  0.90813800  1
  C  464  1  0.03527900  0.85408400  0.88955000  1
  C  469  1  0.54638700  0.92680000  0.17651000  1
  C  470  1  0.49797500  0.91793000  0.15832800  1
  C  471  1  0.44775100  0.93746700  0.15700500  1
  C  472  1  0.44617900  0.96611800  0.17361300  1
  C  473  1  0.49416200  0.97404000  0.19252400  1
  C  474  1  0.54380900  0.95466800  0.19391600  1
  C  476  1  0.40289000  0.90114100  0.12218700  1
  C  477  1  0.45335400  0.88188600  0.12329700  1
  C  481  1  0.35522900  0.89247400  0.10362100  1
  C  482  1  0.35800400  0.86466700  0.08617500  1
  C  483  1  0.40819800  0.84553200  0.08728100  1
  C  484  1  0.45592100  0.85407400  0.10585400  1
  C  489  1  0.54595900  0.47029800  0.67692100  1
  C  490  1  0.49776300  0.47952700  0.65874600  1
  C  491  1  0.44727400  0.46023500  0.65726100  1
  C  492  1  0.44524500  0.43150400  0.67370400  1
  C  493  1  0.49304300  0.42321700  0.69261000  1
  C  494  1  0.54296500  0.44234100  0.69416100  1
  C  496  1  0.40312100  0.49690200  0.62253300  1
  C  497  1  0.45386300  0.51591700  0.62378900  1
  C  501  1  0.35568700  0.50585600  0.60393000  1
  C  502  1  0.35897100  0.53371000  0.58658000  1
  C  503  1  0.40944200  0.55260300  0.58782200  1
  C  504  1  0.45693500  0.54377500  0.60644100  1
  C  509  1  0.94414900  0.47010800  0.31857000  1
  C  510  1  0.99231700  0.47938100  0.33673600  1
  C  511  1  0.04288100  0.46012600  0.33822800  1
  C  512  1  0.04501200  0.43138600  0.32179900  1
  C  513  1  0.99722800  0.42304800  0.30291800  1
  C  514  1  0.94722900  0.44213100  0.30136200  1
  C  516  1  0.08692700  0.49685700  0.37291000  1
  C  517  1  0.03611400  0.51583900  0.37164500  1
  C  521  1  0.13433700  0.50586000  0.39149500  1
  C  522  1  0.13097000  0.53373100  0.40881600  1
  C  523  1  0.08043300  0.55259300  0.40756200  1
  C  524  1  0.03295700  0.54371400  0.38896300  1
  C  529  1  0.44413300  0.42682600  0.31937500  1
  C  530  1  0.49262900  0.41779200  0.33744000  1
  C  531  1  0.54319900  0.43704700  0.33846600  1
  C  532  1  0.54507500  0.46551200  0.32160200  1
  C  533  1  0.49716700  0.47353500  0.30268400  1
  C  534  1  0.44715800  0.45443500  0.30158900  1
  C  536  1  0.58788900  0.40077000  0.37338400  1
  C  537  1  0.53714300  0.38173100  0.37251600  1
  C  541  1  0.63564300  0.39196400  0.39182800  1
  C  542  1  0.63269300  0.36423900  0.40939100  1
  C  543  1  0.58222100  0.34532800  0.40852700  1
  C  544  1  0.53438900  0.35400900  0.39008400  1
  C  549  1  0.04621800  0.42680000  0.67598200  1
  C  550  1  0.99776300  0.41774200  0.65790700  1
  C  551  1  0.94713900  0.43697900  0.65686500  1
  C  552  1  0.94517900  0.46545100  0.67371800  1
  C  553  1  0.99305500  0.47350000  0.69263700  1
  C  554  1  0.04311800  0.45442300  0.69374400  1
  C  556  1  0.90256900  0.40067100  0.62195600  1
  C  557  1  0.95336100  0.38165100  0.62283800  1
  C  561  1  0.85484700  0.39184400  0.60350300  1
  C  562  1  0.85788200  0.36411000  0.58595600  1
  C  563  1  0.90840100  0.34521200  0.58683900  1
  C  564  1  0.95619700  0.35392000  0.60528600  1
  C  569  1  0.24056100  0.17087900  0.22938800  1
  C  570  1  0.21379700  0.19824100  0.21723100  1
  C  571  1  0.21257700  0.22642500  0.23465400  1
  C  572  1  0.23815800  0.22734400  0.26419800  1
  C  573  1  0.26452500  0.19991000  0.27606700  1
  C  574  1  0.26565600  0.17209200  0.25893000  1
  C  576  1  0.16168100  0.25239500  0.19385500  1
  C  577  1  0.16296700  0.22433000  0.17642100  1
  C  581  1  0.13428100  0.27945000  0.18206500  1
  C  582  1  0.10791300  0.27843500  0.15293300  1
  C  583  1  0.10922000  0.25053800  0.13555600  1
  C  584  1  0.13685600  0.22348000  0.14721400  1
  C  589  1  0.25014700  0.17086700  0.76597500  1
  C  590  1  0.27685500  0.19823200  0.77814200  1
  C  591  1  0.27804500  0.22641600  0.76071800  1
  C  592  1  0.25247700  0.22733700  0.73116900  1
  C  593  1  0.22616300  0.19990200  0.71929600  1
  C  594  1  0.22507400  0.17208100  0.73642900  1
  C  596  1  0.32886700  0.25238800  0.80152800  1
  C  597  1  0.32761500  0.22432400  0.81896100  1
  C  601  1  0.35623500  0.27944300  0.81331800  1
  C  602  1  0.38258400  0.27842800  0.84245700  1
  C  603  1  0.38130700  0.25053100  0.85983200  1
  C  604  1  0.35370600  0.22347400  0.84817200  1
  C  609  1  0.74296100  0.72560600  0.76581000  1
  C  610  1  0.71274100  0.69886600  0.77678900  1
  C  611  1  0.71453100  0.67042700  0.75984000  1
  C  612  1  0.74659700  0.66892200  0.73217300  1
  C  613  1  0.77717500  0.69559400  0.72165700  1
  C  614  1  0.77539400  0.72369700  0.73836500  1
  C  616  1  0.65569700  0.64533700  0.79799900  1
  C  617  1  0.65399000  0.67370800  0.81501000  1
  C  621  1  0.62686100  0.61838100  0.80901900  1
  C  622  1  0.59636100  0.61971600  0.83700500  1
  C  623  1  0.59465300  0.64789000  0.85393800  1
  C  624  1  0.62341100  0.67491000  0.84298600  1
  C  629  1  0.74816700  0.72562700  0.22962000  1
  C  630  1  0.77841300  0.69886600  0.21867700  1
  C  631  1  0.77650700  0.67042400  0.23561900  1
  C  632  1  0.74429300  0.66893600  0.26323800  1
  C  633  1  0.71372000  0.69563200  0.27372700  1
  C  634  1  0.71561900  0.72373900  0.25703000  1
  C  636  1  0.83547400  0.64529700  0.19752400  1
  C  637  1  0.83730100  0.67366900  0.18052500  1
  C  641  1  0.86431500  0.61831800  0.18653100  1
  C  642  1  0.89494800  0.61963700  0.15858500  1
  C  643  1  0.89678000  0.64781300  0.14166400  1
  C  644  1  0.86801100  0.67485300  0.15258700  1
  H  26  1  0.12335500  0.96845500  0.12956100  1
  H  27  1  0.20390900  0.00292000  0.12227300  1
  H  28  1  0.09202200  0.00812900  0.21679800  1
  H  29  1  0.17289000  0.04260900  0.20998500  1
  H  30  1  0.29969500  0.02794400  0.21030400  1
  H  31  1  0.37847600  0.99208700  0.21702500  1
  H  32  1  0.40607900  0.99061500  0.12129900  1
  H  33  1  0.32608900  0.02501500  0.11414700  1
  H  34  1  0.32854400  0.08772200  0.12146500  1
  H  35  1  0.32514200  0.10563600  0.06991000  1
  H  36  1  0.14788100  0.07895000  0.06399700  1
  H  37  1  0.15057000  0.06083000  0.11538400  1
  H  38  1  0.15403300  0.09299700  0.17494000  1
  H  39  1  0.33755200  0.08806700  0.18794000  1
  H  40  1  0.33422000  0.13586200  0.21594000  1
  H  41  1  0.15094500  0.13979600  0.20430900  1
  H  67  1  0.36756400  0.96840100  0.86579700  1
  H  68  1  0.28698800  0.00287300  0.87309400  1
  H  69  1  0.39904000  0.00820100  0.77863400  1
  H  70  1  0.31811700  0.04268200  0.78544700  1
  H  71  1  0.19130100  0.02792100  0.78509900  1
  H  72  1  0.11258200  0.99207100  0.77834800  1
  H  73  1  0.08479200  0.99063900  0.87405900  1
  H  74  1  0.16471500  0.02504000  0.88123900  1
  H  75  1  0.16228900  0.08773100  0.87394700  1
  H  76  1  0.16564000  0.10563100  0.92550700  1
  H  77  1  0.34291000  0.07889000  0.93145300  1
  H  78  1  0.34026800  0.06078300  0.88006300  1
  H  79  1  0.33674900  0.09305700  0.82053300  1
  H  80  1  0.15329300  0.08803800  0.80740400  1
  H  81  1  0.15655600  0.13580700  0.77936800  1
  H  82  1  0.33979100  0.13981700  0.79111500  1
  H  108  1  0.58437700  0.90514200  0.87415700  1
  H  109  1  0.66418500  0.87060300  0.88119300  1
  H  110  1  0.61483300  0.90599300  0.77865900  1
  H  111  1  0.69381300  0.87020800  0.78524300  1
  H  112  1  0.82278900  0.84997700  0.78630700  1
  H  113  1  0.90389400  0.88425300  0.77911500  1
  H  114  1  0.86660300  0.92875500  0.86343500  1
  H  115  1  0.78595900  0.89451200  0.87117400  1
  H  116  1  0.83999900  0.83639900  0.88035900  1
  H  117  1  0.84256700  0.81834300  0.93169200  1
  H  118  1  0.66609100  0.79028000  0.92527300  1
  H  119  1  0.66289500  0.80801200  0.87359600  1
  H  120  1  0.65221500  0.81140100  0.80444300  1
  H  121  1  0.83287900  0.79944100  0.82321800  1
  H  122  1  0.83255700  0.75202600  0.79444400  1
  H  123  1  0.65267500  0.76388600  0.77577400  1
  H  149  1  0.90673100  0.90515400  0.12127900  1
  H  150  1  0.82700300  0.87059600  0.11423600  1
  H  151  1  0.87621300  0.90601700  0.21677000  1
  H  152  1  0.79730900  0.87021700  0.21018000  1
  H  153  1  0.66839500  0.85002900  0.20909600  1
  H  154  1  0.58726500  0.88433300  0.21626200  1
  H  155  1  0.62453300  0.92876000  0.13190900  1
  H  156  1  0.70519500  0.89448600  0.12419200  1
  H  157  1  0.65123800  0.83634500  0.11505200  1
  H  158  1  0.64874700  0.81823700  0.06371000  1
  H  159  1  0.82533700  0.79032000  0.07016800  1
  H  160  1  0.82845700  0.80807300  0.12183600  1
  H  161  1  0.83898500  0.81137800  0.19100200  1
  H  162  1  0.65833700  0.79949000  0.17217200  1
  H  163  1  0.65863200  0.75207500  0.20093600  1
  H  164  1  0.83849300  0.76385500  0.21967200  1
  H  190  1  0.62456000  0.46746100  0.63261000  1
  H  191  1  0.70546300  0.50148800  0.62466700  1
  H  192  1  0.58687500  0.51297400  0.71637000  1
  H  193  1  0.66830300  0.54696300  0.70903700  1
  H  194  1  0.79679100  0.52594500  0.71020800  1
  H  195  1  0.87535500  0.48994100  0.71697000  1
  H  196  1  0.90710900  0.49102900  0.62159200  1
  H  197  1  0.82771100  0.52580600  0.61436100  1
  H  198  1  0.82822300  0.58828000  0.62165100  1
  H  199  1  0.82472700  0.60607000  0.56997600  1
  H  200  1  0.64837300  0.57772300  0.56371600  1
  H  201  1  0.65126300  0.55958200  0.61502800  1
  H  202  1  0.65877100  0.59724300  0.67146000  1
  H  203  1  0.83878500  0.58456600  0.69158300  1
  H  204  1  0.83750900  0.63130800  0.72146700  1
  H  205  1  0.65830600  0.64389200  0.70141700  1
  H  231  1  0.86553100  0.46737600  0.36286100  1
  H  232  1  0.78466600  0.50146900  0.37075400  1
  H  233  1  0.90328100  0.51274100  0.27903900  1
  H  234  1  0.82188900  0.54680100  0.28632400  1
  H  235  1  0.69337300  0.52601300  0.28512600  1
  H  236  1  0.61483100  0.49003000  0.27835200  1
  H  237  1  0.58306300  0.49110900  0.37373000  1
  H  238  1  0.66243700  0.52586000  0.38097000  1
  H  239  1  0.66203100  0.58834600  0.37367800  1
  H  240  1  0.66549100  0.60612700  0.42533600  1
  H  241  1  0.84181900  0.57760700  0.43164500  1
  H  242  1  0.83893100  0.55947100  0.38034400  1
  H  243  1  0.83165500  0.59706700  0.32396000  1
  H  244  1  0.65162500  0.58470900  0.30372700  1
  H  245  1  0.65317700  0.63147500  0.27387400  1
  H  246  1  0.83239100  0.64373600  0.29404300  1
  H  272  1  0.08500400  0.40729300  0.37432900  1
  H  273  1  0.16469000  0.37266400  0.38172100  1
  H  274  1  0.11322300  0.40550400  0.27863800  1
  H  275  1  0.19166600  0.36951200  0.28559300  1
  H  276  1  0.31748300  0.35275100  0.28579700  1
  H  277  1  0.39896400  0.38677800  0.27851400  1
  H  278  1  0.36908700  0.42732400  0.36551300  1
  H  279  1  0.28811300  0.39331800  0.37329000  1
  H  280  1  0.33951000  0.33446900  0.37999300  1
  H  281  1  0.34239500  0.31578600  0.43118200  1
  H  282  1  0.16371800  0.29168100  0.42607000  1
  H  283  1  0.16009700  0.31023100  0.37472000  1
  H  284  1  0.14848400  0.31016700  0.30984100  1
  H  285  1  0.33227300  0.30183200  0.31967000  1
  H  286  1  0.33058100  0.25538500  0.28960100  1
  H  287  1  0.14706700  0.26286300  0.28113800  1
  H  313  1  0.40542300  0.40738000  0.62115600  1
  H  314  1  0.32585600  0.37271400  0.61373100  1
  H  315  1  0.37713200  0.40553000  0.71684000  1
  H  316  1  0.29882900  0.36949100  0.70985200  1
  H  317  1  0.17301100  0.35276500  0.70960000  1
  H  318  1  0.09145900  0.38677800  0.71686000  1
  H  319  1  0.12128100  0.42729800  0.62985800  1
  H  320  1  0.20234000  0.39331600  0.62209600  1
  H  321  1  0.15103400  0.33447200  0.61545700  1
  H  322  1  0.14809600  0.31574300  0.56427700  1
  H  323  1  0.32685800  0.29171200  0.56930000  1
  H  324  1  0.33053100  0.31030400  0.62066100  1
  H  325  1  0.34208800  0.31016000  0.68556300  1
  H  326  1  0.15830200  0.30187200  0.67573400  1
  H  327  1  0.16003100  0.25540400  0.70577300  1
  H  328  1  0.34354200  0.26284000  0.71424100  1
  H  339  1  0.24961000  0.14477200  0.97021500  1
  H  340  1  0.24106600  0.14478700  0.02519300  1
  H  345  1  0.23794000  0.98122200  0.05345000  1
  H  346  1  0.24183800  0.93190800  0.02551900  1
  H  347  1  0.24921600  0.93189400  0.97000400  1
  H  348  1  0.25303000  0.98119100  0.94204500  1
  H  359  1  0.74163700  0.75182200  0.02521000  1
  H  360  1  0.74980100  0.75182900  0.97021700  1
  H  365  1  0.75240900  0.91541300  0.94200200  1
  H  366  1  0.74887500  0.96471700  0.96996500  1
  H  367  1  0.74224300  0.96471000  0.02550600  1
  H  368  1  0.73879900  0.91540100  0.05345900  1
  H  379  1  0.74917500  0.64438100  0.47017000  1
  H  380  1  0.74095500  0.64439500  0.52516300  1
  H  385  1  0.73818100  0.48081300  0.55343100  1
  H  386  1  0.74173900  0.43149700  0.52548600  1
  H  387  1  0.74850100  0.43148300  0.46994800  1
  H  388  1  0.75203300  0.48078200  0.44198100  1
  H  399  1  0.24138700  0.25104100  0.52523200  1
  H  400  1  0.24915400  0.25103900  0.47020700  1
  H  405  1  0.25224700  0.41463500  0.44199900  1
  H  406  1  0.24862400  0.46393900  0.46995500  1
  H  407  1  0.24172100  0.46393900  0.52548900  1
  H  408  1  0.23815800  0.41463200  0.55344200  1
  H  419  1  0.07922300  0.93346600  0.20587200  1
  H  420  1  0.99376800  0.90123100  0.20397200  1
  H  425  1  0.81914000  0.99114200  0.10281500  1
  H  426  1  0.82474100  0.03910100  0.07282900  1
  H  427  1  0.91229100  0.07127600  0.07428300  1
  H  428  1  0.99482500  0.05571500  0.10575300  1
  H  439  1  0.41181700  0.93347100  0.78953100  1
  H  440  1  0.49730300  0.90120900  0.79145100  1
  H  445  1  0.67182900  0.99112300  0.89259600  1
  H  446  1  0.66619100  0.03910000  0.92255700  1
  H  447  1  0.57862300  0.07129600  0.92107900  1
  H  448  1  0.49610700  0.05573900  0.88961000  1
  H  459  1  0.91205500  0.96174100  0.78869900  1
  H  460  1  0.99621500  0.99488700  0.79113800  1
  H  465  1  0.17234700  0.90637600  0.89279300  1
  H  466  1  0.16766300  0.85842100  0.92282800  1
  H  467  1  0.08122000  0.82541600  0.92090500  1
  H  468  1  0.99889700  0.84012700  0.88890000  1
  H  479  1  0.57900900  0.96177900  0.20664800  1
  H  480  1  0.49478100  0.99492000  0.20421600  1
  H  485  1  0.31875100  0.90634300  0.10262000  1
  H  486  1  0.32350400  0.85837600  0.07260400  1
  H  487  1  0.41001400  0.82538600  0.07452300  1
  H  488  1  0.49233500  0.84012700  0.10650200  1
  H  499  1  0.57808100  0.43493800  0.70680900  1
  H  500  1  0.49336900  0.40222500  0.70411200  1
  H  505  1  0.31902000  0.49215500  0.60281800  1
  H  506  1  0.32464800  0.54020200  0.57296900  1
  H  507  1  0.41163000  0.57277900  0.57512800  1
  H  508  1  0.49355100  0.55754600  0.60718600  1
  H  519  1  0.91217700  0.43473400  0.28867100  1
  H  520  1  0.99701700  0.40207200  0.29138400  1
  H  525  1  0.17106100  0.49218600  0.39260900  1
  H  526  1  0.16528600  0.54026300  0.42240500  1
  H  527  1  0.07818400  0.57278400  0.42023300  1
  H  528  1  0.99629200  0.55746200  0.38821100  1
  H  539  1  0.41193200  0.46167600  0.28893700  1
  H  540  1  0.49682300  0.49434200  0.29086200  1
  H  545  1  0.67234100  0.40566700  0.39264300  1
  H  546  1  0.66727100  0.35784800  0.42286600  1
  H  547  1  0.58027700  0.32524000  0.42136500  1
  H  548  1  0.49778100  0.34021900  0.38960200  1
  H  559  1  0.07828000  0.46164500  0.70644500  1
  H  560  1  0.99329500  0.49428500  0.70449500  1
  H  565  1  0.81811500  0.40553300  0.60267800  1
  H  566  1  0.82332500  0.35770000  0.57247900  1
  H  567  1  0.91039900  0.32512000  0.57401000  1
  H  568  1  0.99283900  0.34014200  0.60577900  1
  H  579  1  0.28434700  0.15253000  0.26850900  1
  H  580  1  0.28256400  0.19978500  0.29755600  1
  H  585  1  0.13300700  0.29973900  0.19464300  1
  H  586  1  0.08769900  0.29800200  0.14437700  1
  H  587  1  0.08994500  0.24991800  0.11442000  1
  H  588  1  0.13742600  0.20324700  0.13454200  1
  H  599  1  0.20639800  0.15252300  0.72685000  1
  H  600  1  0.20811600  0.19978200  0.69780700  1
  H  605  1  0.35747500  0.29973200  0.80074400  1
  H  606  1  0.40276600  0.29799500  0.85101400  1
  H  607  1  0.40057400  0.24991100  0.88097000  1
  H  608  1  0.35317000  0.20323900  0.86084100  1
  H  619  1  0.79750100  0.74285800  0.73011500  1
  H  620  1  0.80024100  0.69492900  0.70154100  1
  H  625  1  0.62805500  0.59783300  0.79684600  1
  H  626  1  0.57543700  0.60015800  0.84508100  1
  H  627  1  0.57248100  0.64872000  0.87427200  1
  H  628  1  0.62207300  0.69528400  0.85542500  1
  H  639  1  0.69346900  0.74291000  0.26524600  1
  H  640  1  0.69052700  0.69497800  0.29380400  1
  H  645  1  0.86303500  0.59776800  0.19869700  1
  H  646  1  0.91588300  0.60006200  0.15053100  1
  H  647  1  0.91904900  0.64863100  0.12136000  1
  H  648  1  0.86943900  0.69523200  0.14015600  1
  N  335  1  0.24093700  0.03806800  0.02856100  1
  N  338  1  0.24993600  0.03805100  0.96690500  1
  N  355  1  0.74976300  0.85855700  0.96688700  1
  N  358  1  0.74154100  0.85855000  0.02856200  1
  N  375  1  0.74092900  0.53765900  0.52852500  1
  N  378  1  0.74925900  0.53764200  0.46686100  1
  N  395  1  0.24941800  0.35777900  0.46687700  1
  N  398  1  0.24105900  0.35777900  0.52856200  1
  N  415  1  0.90280900  0.96873200  0.13875000  1
  N  418  1  0.00016400  0.00465700  0.14044800  1
  N  435  1  0.58818300  0.96871300  0.85666700  1
  N  438  1  0.49080900  0.00466300  0.85494000  1
  N  455  1  0.08868700  0.92796100  0.85636700  1
  N  458  1  0.99264600  0.89107100  0.85408900  1
  N  475  1  0.40239700  0.92796100  0.13901400  1
  N  478  1  0.49851300  0.89108700  0.14128600  1
  N  495  1  0.40214800  0.47001800  0.63924600  1
  N  498  1  0.49879500  0.50643100  0.64180600  1
  N  515  1  0.08798300  0.46995500  0.35622200  1
  N  518  1  0.99120300  0.50630700  0.35364600  1
  N  535  1  0.58860700  0.42748200  0.35639900  1
  N  538  1  0.49190700  0.39105200  0.35462900  1
  N  555  1  0.90177100  0.42739000  0.63892800  1
  N  558  1  0.99856200  0.39099300  0.64073100  1
  N  575  1  0.18681800  0.25221000  0.22197300  1
  N  578  1  0.18918700  0.19869200  0.18878500  1
  N  595  1  0.30375400  0.25220300  0.77340500  1
  N  598  1  0.30144200  0.19868600  0.80659200  1
  N  615  1  0.68589000  0.64493100  0.77126900  1
  N  618  1  0.68256300  0.69915300  0.80371200  1
  N  635  1  0.80515300  0.64490500  0.22421600  1
  N  638  1  0.80871100  0.69913700  0.19179300  1
  Si  7  1  0.24705500  0.05353800  0.15732200  1
  Si  48  1  0.24382300  0.05354100  0.83809400  1
  Si  89  1  0.74397300  0.84257000  0.83787800  1
  Si  130  1  0.74723100  0.84257200  0.15753700  1
  Si  171  1  0.74739500  0.55374500  0.65747400  1
  Si  212  1  0.74282900  0.55372600  0.33787700  1
  Si  253  1  0.24274800  0.34317700  0.33856300  1
  Si  294  1  0.24780800  0.34320000  0.65685600  1
