# generated using pymatgen
data_H3C7(NO)2
_symmetry_space_group_name_H-M   'P 1'
_cell_length_a   9.93920000
_cell_length_b   34.35560000
_cell_length_c   34.36620000
_cell_angle_alpha   119.99300000
_cell_angle_beta   90.00000000
_cell_angle_gamma   90.00000000
_symmetry_Int_Tables_number   1
_chemical_formula_structural   H3C7(NO)2
_chemical_formula_sum   'H36 C84 N24 O24'
_cell_volume   10163.46372907
_cell_formula_units_Z   12
loop_
 _symmetry_equiv_pos_site_id
 _symmetry_equiv_pos_as_xyz
  1  'x, y, z'
loop_
 _atom_site_type_symbol
 _atom_site_label
 _atom_site_symmetry_multiplicity
 _atom_site_fract_x
 _atom_site_fract_y
 _atom_site_fract_z
 _atom_site_occupancy
  C  1  1  0.00877000  0.04899900  0.02460400  1
  C  2  1  0.00880000  0.02514600  0.04832300  1
  C  3  1  0.00884500  0.97759300  0.02559400  1
  C  4  1  0.00880000  0.95386900  0.97803400  1
  C  5  1  0.00879700  0.97661100  0.95322200  1
  C  6  1  0.00877300  0.02418400  0.97706300  1
  C  10  1  0.02555600  0.45910700  0.19117600  1
  C  11  1  0.01440300  0.48172100  0.23835000  1
  C  12  1  0.00410100  0.45812000  0.26198600  1
  C  13  1  0.00793500  0.41066000  0.23751900  1
  C  14  1  0.01666800  0.38643300  0.18978700  1
  C  15  1  0.02400800  0.41165000  0.16725600  1
  C  19  1  0.02589400  0.81150400  0.26950200  1
  C  20  1  0.01480700  0.76431400  0.24500400  1
  C  21  1  0.00429600  0.74061700  0.19778500  1
  C  22  1  0.00798500  0.76503600  0.17474200  1
  C  23  1  0.01678000  0.81277900  0.19818500  1
  C  24  1  0.02428400  0.83537700  0.24592000  1
  C  28  1  0.02608600  0.73294500  0.54326200  1
  C  29  1  0.01509300  0.75749500  0.52062000  1
  C  30  1  0.00454700  0.80473000  0.54418200  1
  C  31  1  0.00819400  0.82773500  0.59163200  1
  C  32  1  0.01687000  0.80424000  0.61588300  1
  C  33  1  0.02430900  0.75649100  0.59070500  1
  C  37  1  0.00619000  0.09694700  0.04807200  1
  C  38  1  0.10524600  0.12209300  0.04099400  1
  C  40  1  0.00262200  0.19306900  0.09401500  1
  C  41  1  0.89870900  0.16914300  0.10189600  1
  C  42  1  0.90329800  0.12144100  0.07908600  1
  C  44  1  0.01268900  0.24142200  0.11566500  1
  C  45  1  0.09612100  0.26545500  0.10108000  1
  C  46  1  0.09691600  0.31318200  0.12609200  1
  C  47  1  0.01728600  0.33804400  0.16503800  1
  C  48  1  0.93743400  0.31233600  0.17789400  1
  C  59  1  0.00634900  0.95412900  0.05007600  1
  C  60  1  0.10555800  0.96119200  0.08223900  1
  C  62  1  0.00278200  0.90829800  0.10035400  1
  C  63  1  0.89872400  0.90043200  0.06860400  1
  C  64  1  0.90333800  0.92317300  0.04364800  1
  C  66  1  0.01282600  0.88671600  0.12711400  1
  C  67  1  0.09634200  0.90134400  0.16570900  1
  C  68  1  0.09711200  0.87639700  0.18848900  1
  C  69  1  0.01739100  0.83747100  0.17448800  1
  C  70  1  0.93750500  0.82455900  0.13593000  1
  C  81  1  0.00625500  0.95213100  0.90528500  1
  C  82  1  0.10530200  0.91990100  0.88016700  1
  C  84  1  0.00271600  0.90192400  0.80919300  1
  C  85  1  0.89882100  0.93374800  0.83309100  1
  C  86  1  0.90338300  0.95864500  0.88077900  1
  C  88  1  0.01277500  0.87519400  0.76085600  1
  C  89  1  0.09620600  0.83656800  0.73686100  1
  C  90  1  0.09704700  0.81383600  0.68914900  1
  C  91  1  0.01742300  0.82789800  0.66426000  1
  C  92  1  0.93754600  0.86646200  0.68992800  1
  C  103  1  0.03550200  0.48567300  0.17026100  1
  C  104  1  0.91928900  0.49630200  0.15400600  1
  C  106  1  0.02429900  0.56180700  0.15860300  1
  C  107  1  0.14684900  0.55113800  0.17265700  1
  C  108  1  0.14990800  0.51309200  0.17844400  1
  C  110  1  0.00174100  0.60366500  0.15995100  1
  C  111  1  0.88188600  0.62936500  0.17739200  1
  C  112  1  0.87930600  0.67392500  0.18514500  1
  C  113  1  0.99189000  0.69310400  0.17597200  1
  C  114  1  0.10529100  0.66546700  0.15656500  1
  C  125  1  0.03621700  0.83245400  0.31696200  1
  C  126  1  0.91971800  0.84856000  0.34373900  1
  C  128  1  0.02483300  0.84415600  0.40474900  1
  C  129  1  0.14757800  0.83032000  0.38012900  1
  C  130  1  0.15075400  0.82452600  0.33630800  1
  C  132  1  0.00213800  0.84271600  0.44519400  1
  C  133  1  0.88239200  0.82514400  0.45335500  1
  C  134  1  0.87977600  0.81736600  0.49013700  1
  C  135  1  0.99229800  0.82660800  0.51853700  1
  C  136  1  0.10548700  0.84620600  0.51044700  1
  C  147  1  0.03627600  0.68546100  0.51671600  1
  C  148  1  0.91992900  0.65865200  0.50625400  1
  C  150  1  0.02467100  0.59764200  0.44072500  1
  C  151  1  0.14732200  0.62232200  0.45134900  1
  C  152  1  0.15069400  0.66615400  0.48937500  1
  C  154  1  0.00181000  0.55714800  0.39890300  1
  C  155  1  0.88182600  0.54890200  0.37328500  1
  C  156  1  0.87909100  0.51210000  0.32874100  1
  C  157  1  0.99163500  0.48374200  0.30948200  1
  C  158  1  0.10504000  0.49187600  0.33711100  1
  H  7  1  0.00792100  0.91943600  0.96118400  1
  H  8  1  0.00784400  0.04104600  0.95949100  1
  H  9  1  0.00793200  0.04271800  0.08274700  1
  H  16  1  0.00398000  0.39374400  0.25496600  1
  H  17  1  0.02796200  0.39549000  0.13292000  1
  H  18  1  0.01364500  0.51623200  0.25591300  1
  H  25  1  0.00393900  0.74754100  0.14039000  1
  H  26  1  0.02832000  0.86972200  0.26405400  1
  H  27  1  0.01422400  0.74678200  0.26198300  1
  H  34  1  0.00419000  0.86209900  0.60851800  1
  H  35  1  0.02823900  0.73832100  0.60687900  1
  H  36  1  0.01456600  0.74054400  0.48612200  1
  H  43  1  0.82790900  0.10435500  0.08445900  1
  H  50  1  0.15884600  0.32991700  0.11560400  1
  H  51  1  0.87479000  0.32728400  0.20504600  1
  H  52  1  0.18349300  0.10665800  0.01936100  1
  H  65  1  0.82779800  0.91783800  0.02125600  1
  H  72  1  0.15908900  0.88691400  0.21569700  1
  H  73  1  0.87472300  0.79743800  0.12380200  1
  H  74  1  0.18388000  0.98278700  0.08837000  1
  H  87  1  0.82801900  0.98111900  0.89784000  1
  H  94  1  0.15895200  0.78660400  0.67244400  1
  H  95  1  0.87494500  0.87866600  0.67496100  1
  H  96  1  0.18352700  0.91370200  0.89561200  1
  H  109  1  0.23373700  0.50759400  0.19238000  1
  H  116  1  0.79774700  0.69375400  0.20118900  1
  H  117  1  0.19243600  0.67808700  0.15145900  1
  H  118  1  0.83101800  0.47944900  0.15008300  1
  H  131  1  0.23473900  0.81069900  0.31693400  1
  H  138  1  0.79843000  0.80117600  0.49382600  1
  H  139  1  0.19257800  0.85127500  0.52818000  1
  H  140  1  0.83115800  0.85213800  0.33072100  1
  H  153  1  0.23449300  0.68556800  0.49474700  1
  H  160  1  0.79760100  0.50837900  0.30891400  1
  H  161  1  0.19240500  0.47433300  0.32439100  1
  H  162  1  0.83150200  0.67165600  0.52295200  1
  N  39  1  0.09969400  0.16761900  0.06398000  1
  N  49  1  0.93892400  0.26682900  0.15348600  1
  N  53  1  0.17537100  0.24258200  0.06171800  1
  N  54  1  0.78970100  0.19207500  0.13094700  1
  N  61  1  0.09999300  0.93826000  0.10483400  1
  N  71  1  0.93897800  0.84891600  0.11477800  1
  N  75  1  0.17568000  0.94069300  0.18211600  1
  N  76  1  0.78955700  0.87147100  0.06261500  1
  N  83  1  0.09975800  0.89734200  0.83465300  1
  N  93  1  0.93903000  0.88758700  0.73542300  1
  N  97  1  0.17541900  0.82009100  0.75976100  1
  N  98  1  0.78984700  0.93986600  0.81014300  1
  N  105  1  0.91800800  0.53353700  0.14985200  1
  N  115  1  0.10612700  0.62323500  0.15035400  1
  N  119  1  0.77191900  0.61271200  0.19099900  1
  N  120  1  0.25952400  0.58020000  0.18504100  1
  N  127  1  0.91838400  0.85264900  0.38509100  1
  N  137  1  0.10635800  0.85240800  0.47443000  1
  N  141  1  0.77261400  0.81139700  0.42302300  1
  N  142  1  0.26050500  0.81818600  0.39692400  1
  N  149  1  0.91848900  0.61727400  0.46901400  1
  N  159  1  0.10611600  0.52796500  0.37928600  1
  N  163  1  0.77193500  0.57919200  0.38995300  1
  N  164  1  0.25990700  0.60555300  0.42226700  1
  O  55  1  0.29863200  0.25058900  0.07006900  1
  O  56  1  0.78336900  0.18447500  0.16307800  1
  O  57  1  0.67918400  0.18171600  0.11041800  1
  O  58  1  0.14183900  0.25261700  0.03255600  1
  O  77  1  0.29892400  0.93231100  0.18175800  1
  O  78  1  0.78291700  0.83928900  0.02292100  1
  O  79  1  0.67918000  0.89209000  0.07283100  1
  O  80  1  0.14225100  0.96992000  0.22129300  1
  O  99  1  0.29869200  0.82043200  0.75176400  1
  O  100  1  0.78355000  0.97959600  0.81771300  1
  O  101  1  0.67930700  0.92970500  0.82050500  1
  O  102  1  0.14186900  0.78089800  0.74976200  1
  O  121  1  0.66590400  0.61162700  0.17055300  1
  O  122  1  0.36122100  0.56017700  0.16193800  1
  O  123  1  0.28839900  0.59687700  0.22593500  1
  O  124  1  0.75095100  0.63572700  0.23257900  1
  O  143  1  0.66635600  0.83171900  0.44229400  1
  O  144  1  0.36175600  0.84150400  0.40009300  1
  O  145  1  0.29015100  0.77733900  0.37276100  1
  O  146  1  0.75210200  0.76977700  0.40443300  1
  O  165  1  0.66590400  0.55985500  0.39108500  1
  O  166  1  0.36157500  0.60241800  0.44226800  1
  O  167  1  0.28894400  0.62973200  0.40554900  1
  O  168  1  0.75092100  0.59776300  0.36693900  1
