# generated using pymatgen
data_CoH17C25N3O4
_symmetry_space_group_name_H-M   'P 1'
_cell_length_a   9.85452000
_cell_length_b   11.38521635
_cell_length_c   26.13269379
_cell_angle_alpha   82.03477140
_cell_angle_beta   79.21524442
_cell_angle_gamma   64.39247544
_symmetry_Int_Tables_number   1
_chemical_formula_structural   CoH17C25N3O4
_chemical_formula_sum   'Co4 H68 C100 N12 O16'
_cell_volume   2591.77245704
_cell_formula_units_Z   4
loop_
 _symmetry_equiv_pos_site_id
 _symmetry_equiv_pos_as_xyz
  1  'x, y, z'
loop_
 _atom_site_type_symbol
 _atom_site_label
 _atom_site_symmetry_multiplicity
 _atom_site_fract_x
 _atom_site_fract_y
 _atom_site_fract_z
 _atom_site_occupancy
  Co  Co1  1  0.30643000  0.10168000  0.17443000  1.0
  Co  Co2  1  0.41741000  0.60127000  0.67511000  1.0
  Co  Co3  1  0.58260000  0.39874000  0.32488000  1.0
  Co  Co4  1  0.69358000  0.89833000  0.82556000  1.0
  H  H1  1  0.20846000  0.73961000  0.17382000  1.0
  H  H2  1  0.82085000  0.10674000  0.16741000  1.0
  H  H3  1  0.75902000  0.75243000  0.18313000  1.0
  H  H4  1  0.36675000  0.31099000  0.21837000  1.0
  H  H5  1  0.26091000  0.55172000  0.21586000  1.0
  H  H6  1  0.87600000  0.56182000  0.15527000  1.0
  H  H7  1  0.99868000  0.32075000  0.16054000  1.0
  H  H8  1  0.20389000  0.96797000  0.44357000  1.0
  H  H9  1  0.13638000  0.22572000  0.28265000  1.0
  H  H10  1  0.12900000  0.14888000  0.37579000  1.0
  H  H11  1  0.42381000  0.75906000  0.32766000  1.0
  H  H12  1  0.42454000  0.85577000  0.23627000  1.0
  H  H13  1  0.46845000  0.71236000  0.40536000  1.0
  H  H14  1  0.63011000  0.52442000  0.57088000  1.0
  H  H15  1  0.62052000  0.58936000  0.47589000  1.0
  H  H16  1  0.15424000  0.86231000  0.51777000  1.0
  H  H17  1  0.18339000  0.78443000  0.61021000  1.0
  H  H18  1  0.87807000  0.23931000  0.67383000  1.0
  H  H19  1  0.90499000  0.60646000  0.66750000  1.0
  H  H20  1  0.30546000  0.25228000  0.68308000  1.0
  H  H21  1  0.10439000  0.81054000  0.71839000  1.0
  H  H22  1  0.97177000  0.05125000  0.71576000  1.0
  H  H23  1  0.40650000  0.06198000  0.65521000  1.0
  H  H24  1  0.51983000  0.82081000  0.66062000  1.0
  H  H25  1  0.38451000  0.46790000  0.94373000  1.0
  H  H26  1  0.35526000  0.72563000  0.78293000  1.0
  H  H27  1  0.34632000  0.64869000  0.87611000  1.0
  H  H28  1  0.48952000  0.25891000  0.82782000  1.0
  H  H29  1  0.48314000  0.35576000  0.73640000  1.0
  H  H30  1  0.41384000  0.21233000  0.90524000  1.0
  H  H31  1  0.27509000  0.02445000  0.07062000  1.0
  H  H32  1  0.31413000  0.08955000  0.97562000  1.0
  H  H33  1  0.46562000  0.36266000  0.01765000  1.0
  H  H34  1  0.42245000  0.28468000  0.11010000  1.0
  H  H35  1  0.12193000  0.76070000  0.32617000  1.0
  H  H36  1  0.09502000  0.39355000  0.33249000  1.0
  H  H37  1  0.69454000  0.74773000  0.31692000  1.0
  H  H38  1  0.89562000  0.18947000  0.28160000  1.0
  H  H39  1  0.02823000  0.94876000  0.28424000  1.0
  H  H40  1  0.59350000  0.93803000  0.34479000  1.0
  H  H41  1  0.48017000  0.17920000  0.33938000  1.0
  H  H42  1  0.61549000  0.53211000  0.05627000  1.0
  H  H43  1  0.64474000  0.27438000  0.21707000  1.0
  H  H44  1  0.65367000  0.35132000  0.12389000  1.0
  H  H45  1  0.51047000  0.74110000  0.17218000  1.0
  H  H46  1  0.51687000  0.64425000  0.26359000  1.0
  H  H47  1  0.58616000  0.78768000  0.09476000  1.0
  H  H48  1  0.72491000  0.97556000  0.92937000  1.0
  H  H49  1  0.68587000  0.91046000  0.02438000  1.0
  H  H50  1  0.53437000  0.63735000  0.98235000  1.0
  H  H51  1  0.57755000  0.71533000  0.88989000  1.0
  H  H52  1  0.79154000  0.26040000  0.82618000  1.0
  H  H53  1  0.17914000  0.89327000  0.83259000  1.0
  H  H54  1  0.24097000  0.24758000  0.81687000  1.0
  H  H55  1  0.63324000  0.68902000  0.78163000  1.0
  H  H56  1  0.73909000  0.44829000  0.78414000  1.0
  H  H57  1  0.12400000  0.43819000  0.84473000  1.0
  H  H58  1  0.00132000  0.67926000  0.83946000  1.0
  H  H59  1  0.79611000  0.03204000  0.55643000  1.0
  H  H60  1  0.86362000  0.77429000  0.71734000  1.0
  H  H61  1  0.87099000  0.85113000  0.62421000  1.0
  H  H62  1  0.57618000  0.24096000  0.67234000  1.0
  H  H63  1  0.57546000  0.14424000  0.76373000  1.0
  H  H64  1  0.53155000  0.28765000  0.59463000  1.0
  H  H65  1  0.36990000  0.47559000  0.42911000  1.0
  H  H66  1  0.37948000  0.41065000  0.52410000  1.0
  H  H67  1  0.84576000  0.13771000  0.48222000  1.0
  H  H68  1  0.81661000  0.21558000  0.38979000  1.0
  C  C1  1  0.99264000  0.72550000  0.17950000  1.0
  C  C2  1  0.08609000  0.79202000  0.17460000  1.0
  C  C3  1  0.02457000  0.92850000  0.17002000  1.0
  C  C4  1  0.86817000  0.00077000  0.17026000  1.0
  C  C5  1  0.77348000  0.93633000  0.17436000  1.0
  C  C6  1  0.83595000  0.79965000  0.17899000  1.0
  C  C7  1  0.25869000  0.37067000  0.20440000  1.0
  C  C8  1  0.19835000  0.50610000  0.20244000  1.0
  C  C9  1  0.05835000  0.58126000  0.18415000  1.0
  C  C10  1  0.98477000  0.51164000  0.16977000  1.0
  C  C11  1  0.05255000  0.37627000  0.17227000  1.0
  C  C12  1  0.28372000  0.89872000  0.41542000  1.0
  C  C13  1  0.20235000  0.12374000  0.29403000  1.0
  C  C14  1  0.19754000  0.07921000  0.34642000  1.0
  C  C15  1  0.28089000  0.94644000  0.36084000  1.0
  C  C16  1  0.36237000  0.86375000  0.31977000  1.0
  C  C17  1  0.36194000  0.91611000  0.26875000  1.0
  C  C18  1  0.38237000  0.77988000  0.43303000  1.0
  C  C19  1  0.12661000  0.99554000  0.16687000  1.0
  C  C20  1  0.52795000  0.60044000  0.55729000  1.0
  C  C21  1  0.52146000  0.63701000  0.50444000  1.0
  C  C22  1  0.38774000  0.73621000  0.48802000  1.0
  C  C23  1  0.26341000  0.78920000  0.52746000  1.0
  C  C24  1  0.27843000  0.74646000  0.57924000  1.0
  C  C25  1  0.60614000  0.01270000  0.17413000  1.0
  C  C26  1  0.10244000  0.22530000  0.67939000  1.0
  C  C27  1  0.94724000  0.29174000  0.67471000  1.0
  C  C28  1  0.87689000  0.42822000  0.67047000  1.0
  C  C29  1  0.96105000  0.50052000  0.67035000  1.0
  C  C30  1  0.11619000  0.43616000  0.67404000  1.0
  C  C31  1  0.18557000  0.29950000  0.67878000  1.0
  C  C32  1  0.16650000  0.87040000  0.70445000  1.0
  C  C33  1  0.09327000  0.00581000  0.70240000  1.0
  C  C34  1  0.17621000  0.08109000  0.68408000  1.0
  C  C35  1  0.33366000  0.01163000  0.66976000  1.0
  C  C36  1  0.39884000  0.87625000  0.67234000  1.0
  C  C37  1  0.40221000  0.39869000  0.91550000  1.0
  C  C38  1  0.37957000  0.62373000  0.79431000  1.0
  C  C39  1  0.37681000  0.57914000  0.84667000  1.0
  C  C40  1  0.41189000  0.44637000  0.86099000  1.0
  C  C41  1  0.45409000  0.36361000  0.81993000  1.0
  C  C42  1  0.45272000  0.41605000  0.76894000  1.0
  C  C43  1  0.40479000  0.27981000  0.93296000  1.0
  C  C44  1  0.71078000  0.49583000  0.66801000  1.0
  C  C45  1  0.31490000  0.10039000  0.05703000  1.0
  C  C46  1  0.33725000  0.13706000  0.00422000  1.0
  C  C47  1  0.38819000  0.23622000  0.98788000  1.0
  C  C48  1  0.42011000  0.28940000  0.02734000  1.0
  C  C49  1  0.39646000  0.24659000  0.07908000  1.0
  C  C50  1  0.20784000  0.51220000  0.67376000  1.0
  C  C51  1  0.89757000  0.77471000  0.32060000  1.0
  C  C52  1  0.05276000  0.70827000  0.32528000  1.0
  C  C53  1  0.12311000  0.57179000  0.32953000  1.0
  C  C54  1  0.03896000  0.49949000  0.32964000  1.0
  C  C55  1  0.88381000  0.56385000  0.32596000  1.0
  C  C56  1  0.81442000  0.70051000  0.32122000  1.0
  C  C57  1  0.83350000  0.12961000  0.29555000  1.0
  C  C58  1  0.90674000  0.99420000  0.29759000  1.0
  C  C59  1  0.82379000  0.91893000  0.31591000  1.0
  C  C60  1  0.66634000  0.98838000  0.33024000  1.0
  C  C61  1  0.60116000  0.12376000  0.32766000  1.0
  C  C62  1  0.59778000  0.60133000  0.08450000  1.0
  C  C63  1  0.62042000  0.37629000  0.20569000  1.0
  C  C64  1  0.62319000  0.42087000  0.15333000  1.0
  C  C65  1  0.58811000  0.55364000  0.13901000  1.0
  C  C66  1  0.54591000  0.63640000  0.18007000  1.0
  C  C67  1  0.54727000  0.58397000  0.23106000  1.0
  C  C68  1  0.59520000  0.72021000  0.06704000  1.0
  C  C69  1  0.28920000  0.50419000  0.33199000  1.0
  C  C70  1  0.68509000  0.89963000  0.94297000  1.0
  C  C71  1  0.66274000  0.86295000  0.99578000  1.0
  C  C72  1  0.61182000  0.76379000  0.01211000  1.0
  C  C73  1  0.57989000  0.71061000  0.97266000  1.0
  C  C74  1  0.60354000  0.75342000  0.92091000  1.0
  C  C75  1  0.79217000  0.48781000  0.32623000  1.0
  C  C76  1  0.00735000  0.27451000  0.82050000  1.0
  C  C77  1  0.91392000  0.20799000  0.82539000  1.0
  C  C78  1  0.97543000  0.07151000  0.82998000  1.0
  C  C79  1  0.13183000  0.99924000  0.82974000  1.0
  C  C80  1  0.22652000  0.06368000  0.82564000  1.0
  C  C81  1  0.16405000  0.20036000  0.82101000  1.0
  C  C82  1  0.74132000  0.62934000  0.79559000  1.0
  C  C83  1  0.80165000  0.49391000  0.79756000  1.0
  C  C84  1  0.94165000  0.41875000  0.81585000  1.0
  C  C85  1  0.01523000  0.48837000  0.83023000  1.0
  C  C86  1  0.94745000  0.62374000  0.82773000  1.0
  C  C87  1  0.71627000  0.10129000  0.58458000  1.0
  C  C88  1  0.79765000  0.87627000  0.70597000  1.0
  C  C89  1  0.80245000  0.92081000  0.65358000  1.0
  C  C90  1  0.71910000  0.05357000  0.63916000  1.0
  C  C91  1  0.63763000  0.13626000  0.68023000  1.0
  C  C92  1  0.63806000  0.08390000  0.73125000  1.0
  C  C93  1  0.61763000  0.22013000  0.56697000  1.0
  C  C94  1  0.87339000  0.00447000  0.83313000  1.0
  C  C95  1  0.47206000  0.39957000  0.44270000  1.0
  C  C96  1  0.47855000  0.36300000  0.49555000  1.0
  C  C97  1  0.61226000  0.26380000  0.51198000  1.0
  C  C98  1  0.73659000  0.21081000  0.47253000  1.0
  C  C99  1  0.72158000  0.25355000  0.42075000  1.0
  C  C100  1  0.39386000  0.98731000  0.82587000  1.0
  N  N1  1  0.18936000  0.30483000  0.18863000  1.0
  N  N2  1  0.28494000  0.04451000  0.25500000  1.0
  N  N3  1  0.40915000  0.65439000  0.59487000  1.0
  N  N4  1  0.31728000  0.80472000  0.68873000  1.0
  N  N5  1  0.41483000  0.54450000  0.75529000  1.0
  N  N6  1  0.34263000  0.15420000  0.09463000  1.0
  N  N7  1  0.68272000  0.19529000  0.31126000  1.0
  N  N8  1  0.58518000  0.45551000  0.24470000  1.0
  N  N9  1  0.65736000  0.84581000  0.90537000  1.0
  N  N10  1  0.81064000  0.69518000  0.81137000  1.0
  N  N11  1  0.71507000  0.95550000  0.74499000  1.0
  N  N12  1  0.59086000  0.34562000  0.40512000  1.0
  O  O1  1  0.26987000  0.92789000  0.16354000  1.0
  O  O2  1  0.07140000  0.11916000  0.16891000  1.0
  O  O3  1  0.53037000  0.95138000  0.16579000  1.0
  O  O4  1  0.54274000  0.13334000  0.18191000  1.0
  O  O5  1  0.63759000  0.42863000  0.66487000  1.0
  O  O6  1  0.64154000  0.61940000  0.67028000  1.0
  O  O7  1  0.35284000  0.45123000  0.66409000  1.0
  O  O8  1  0.14393000  0.63190000  0.68313000  1.0
  O  O9  1  0.36241000  0.57139000  0.33512000  1.0
  O  O10  1  0.35845000  0.38062000  0.32972000  1.0
  O  O11  1  0.64717000  0.54878000  0.33590000  1.0
  O  O12  1  0.85607000  0.36811000  0.31687000  1.0
  O  O13  1  0.73011000  0.07213000  0.83646000  1.0
  O  O14  1  0.92860000  0.88085000  0.83109000  1.0
  O  O15  1  0.46964000  0.04863000  0.83420000  1.0
  O  O16  1  0.45726000  0.86667000  0.81808000  1.0
