# generated using pymatgen
data_Zn7H28C44(N9O8)2
_symmetry_space_group_name_H-M   'P 1'
_cell_length_a   9.79785000
_cell_length_b   11.97443000
_cell_length_c   15.33847000
_cell_angle_alpha   96.49010000
_cell_angle_beta   98.76925000
_cell_angle_gamma   112.99153000
_symmetry_Int_Tables_number   1
_chemical_formula_structural   Zn7H28C44(N9O8)2
_chemical_formula_sum   'Zn7 H28 C44 N18 O16'
_cell_volume   1607.52186161
_cell_formula_units_Z   1
loop_
 _symmetry_equiv_pos_site_id
 _symmetry_equiv_pos_as_xyz
  1  'x, y, z'
loop_
 _atom_site_type_symbol
 _atom_site_label
 _atom_site_symmetry_multiplicity
 _atom_site_fract_x
 _atom_site_fract_y
 _atom_site_fract_z
 _atom_site_occupancy
  Zn  Zn1  1  0.98936000  0.57277000  0.29648000  1.0
  Zn  Zn2  1  0.89107000  0.69174000  0.67263000  1.0
  Zn  Zn3  1  0.44153000  0.60707000  0.06884000  1.0
  Zn  Zn4  1  0.01064000  0.42722000  0.70353000  1.0
  Zn  Zn5  1  0.10893000  0.30826000  0.32737000  1.0
  Zn  Zn6  1  0.55846000  0.39293000  0.93117000  1.0
  Zn  Zn7  1  0.50000000  0.50000000  0.50000000  1.0
  H  H1  1  0.29857000  0.00333000  0.81773000  1.0
  H  H2  1  0.74158000  0.05257000  0.95160000  1.0
  H  H3  1  0.67268000  0.82724000  0.90036000  1.0
  H  H4  1  0.41558000  0.69309000  0.80295000  1.0
  H  H5  1  0.82021000  0.01124000  0.66398000  1.0
  H  H6  1  0.46134000  0.12779000  0.59856000  1.0
  H  H7  1  0.27008000  0.90888000  0.57234000  1.0
  H  H8  1  0.35736000  0.73969000  0.58079000  1.0
  H  H9  1  0.17295000  0.64672000  0.14230000  1.0
  H  H10  1  0.35641000  0.39298000  0.20175000  1.0
  H  H11  1  0.07982000  0.68331000  0.51945000  1.0
  H  H12  1  0.66112000  0.45292000  0.34753000  1.0
  H  H13  1  0.71930000  0.67281000  0.23824000  1.0
  H  H14  1  0.82227000  0.40824000  0.09047000  1.0
  H  H15  1  0.70143000  0.99666000  0.18227000  1.0
  H  H16  1  0.25842000  0.94743000  0.04840000  1.0
  H  H17  1  0.32731000  0.17276000  0.09965000  1.0
  H  H18  1  0.58442000  0.30691000  0.19705000  1.0
  H  H19  1  0.17979000  0.98876000  0.33602000  1.0
  H  H20  1  0.53866000  0.87221000  0.40145000  1.0
  H  H21  1  0.72991000  0.09112000  0.42766000  1.0
  H  H22  1  0.64264000  0.26030000  0.41921000  1.0
  H  H23  1  0.82705000  0.35328000  0.85770000  1.0
  H  H24  1  0.64358000  0.60701000  0.79825000  1.0
  H  H25  1  0.92018000  0.31669000  0.48055000  1.0
  H  H26  1  0.33888000  0.54708000  0.65247000  1.0
  H  H27  1  0.28069000  0.32718000  0.76177000  1.0
  H  H28  1  0.17773000  0.59176000  0.90953000  1.0
  C  C1  1  0.34193000  0.83968000  0.80466000  1.0
  C  C2  1  0.38040000  0.96488000  0.83536000  1.0
  C  C3  1  0.52497000  0.04123000  0.88739000  1.0
  C  C4  1  0.63021000  0.99136000  0.91073000  1.0
  C  C5  1  0.59118000  0.86583000  0.88155000  1.0
  C  C6  1  0.44812000  0.79062000  0.82790000  1.0
  C  C7  1  0.18964000  0.75956000  0.74664000  1.0
  C  C8  1  0.56765000  0.17597000  0.91570000  1.0
  C  C9  1  0.59368000  0.86450000  0.62352000  1.0
  C  C10  1  0.69999000  0.98847000  0.64243000  1.0
  C  C11  1  0.65237000  0.08275000  0.63120000  1.0
  C  C12  1  0.49663000  0.05331000  0.60660000  1.0
  C  C13  1  0.39053000  0.93067000  0.59088000  1.0
  C  C14  1  0.43857000  0.83584000  0.59689000  1.0
  C  C15  1  0.64855000  0.76598000  0.63283000  1.0
  C  C16  1  0.76682000  0.21368000  0.64256000  1.0
  C  C17  1  0.19406000  0.57447000  0.17053000  1.0
  C  C18  1  0.28969000  0.44691000  0.20076000  1.0
  C  C19  1  0.95903000  0.63153000  0.49275000  1.0
  C  C20  1  0.74689000  0.51495000  0.40471000  1.0
  C  C21  1  0.71797000  0.60318000  0.18608000  1.0
  C  C22  1  0.77234000  0.47044000  0.11133000  1.0
  C  C23  1  0.65807000  0.16032000  0.19535000  1.0
  C  C24  1  0.61959000  0.03511000  0.16465000  1.0
  C  C25  1  0.47502000  0.95877000  0.11262000  1.0
  C  C26  1  0.36978000  0.00864000  0.08928000  1.0
  C  C27  1  0.40881000  0.13417000  0.11846000  1.0
  C  C28  1  0.55187000  0.20938000  0.17210000  1.0
  C  C29  1  0.81035000  0.24044000  0.25337000  1.0
  C  C30  1  0.43235000  0.82403000  0.08430000  1.0
  C  C31  1  0.40631000  0.13550000  0.37648000  1.0
  C  C32  1  0.30001000  0.01153000  0.35757000  1.0
  C  C33  1  0.34763000  0.91724000  0.36880000  1.0
  C  C34  1  0.50336000  0.94669000  0.39341000  1.0
  C  C35  1  0.60947000  0.06932000  0.40913000  1.0
  C  C36  1  0.56142000  0.16416000  0.40312000  1.0
  C  C37  1  0.35145000  0.23401000  0.36717000  1.0
  C  C38  1  0.23318000  0.78632000  0.35744000  1.0
  C  C39  1  0.80593000  0.42552000  0.82947000  1.0
  C  C40  1  0.71030000  0.55308000  0.79925000  1.0
  C  C41  1  0.04096000  0.36847000  0.50726000  1.0
  C  C42  1  0.25311000  0.48505000  0.59530000  1.0
  C  C43  1  0.28202000  0.39682000  0.81393000  1.0
  C  C44  1  0.22766000  0.52956000  0.88867000  1.0
  N  N1  1  0.18641000  0.43501000  0.25068000  1.0
  N  N2  1  0.12482000  0.51655000  0.23094000  1.0
  N  N3  1  0.29809000  0.53325000  0.14942000  1.0
  N  N4  1  0.85275000  0.62070000  0.54036000  1.0
  N  N5  1  0.71526000  0.54573000  0.48328000  1.0
  N  N6  1  0.89740000  0.56737000  0.40755000  1.0
  N  N7  1  0.81564000  0.54846000  0.19131000  1.0
  N  N8  1  0.65387000  0.47620000  0.05934000  1.0
  N  N9  1  0.61823000  0.56122000  0.10742000  1.0
  N  N10  1  0.81359000  0.56499000  0.74932000  1.0
  N  N11  1  0.87518000  0.48345000  0.76907000  1.0
  N  N12  1  0.70191000  0.46675000  0.85059000  1.0
  N  N13  1  0.14725000  0.37930000  0.45965000  1.0
  N  N14  1  0.28474000  0.45426000  0.51673000  1.0
  N  N15  1  0.10259000  0.43263000  0.59245000  1.0
  N  N16  1  0.18435000  0.45154000  0.80869000  1.0
  N  N17  1  0.34613000  0.52380000  0.94066000  1.0
  N  N18  1  0.38177000  0.43878000  0.89258000  1.0
  O  O1  1  0.15823000  0.64876000  0.71339000  1.0
  O  O2  1  0.09575000  0.81085000  0.73248000  1.0
  O  O3  1  0.46029000  0.21290000  0.89364000  1.0
  O  O4  1  0.70034000  0.24908000  0.95621000  1.0
  O  O5  1  0.55950000  0.65226000  0.59940000  1.0
  O  O6  1  0.78456000  0.80093000  0.67673000  1.0
  O  O7  1  0.89947000  0.24178000  0.69283000  1.0
  O  O8  1  0.73294000  0.29001000  0.60443000  1.0
  O  O9  1  0.84177000  0.35124000  0.28661000  1.0
  O  O10  1  0.90424000  0.18915000  0.26752000  1.0
  O  O11  1  0.53971000  0.78710000  0.10636000  1.0
  O  O12  1  0.29966000  0.75092000  0.04379000  1.0
  O  O13  1  0.44050000  0.34774000  0.40060000  1.0
  O  O14  1  0.21544000  0.19907000  0.32327000  1.0
  O  O15  1  0.10053000  0.75821000  0.30717000  1.0
  O  O16  1  0.26706000  0.70999000  0.39558000  1.0
