# generated using pymatgen
data_H10C11(N2O)2
_symmetry_space_group_name_H-M   'P 1'
_cell_length_a   20.71218680
_cell_length_b   20.71218680
_cell_length_c   20.71218680
_cell_angle_alpha   100.38287207
_cell_angle_beta   114.19776449
_cell_angle_gamma   114.19776449
_symmetry_Int_Tables_number   1
_chemical_formula_structural   H10C11(N2O)2
_chemical_formula_sum   'H40 C44 N16 O8'
_cell_volume   6713.90235723
_cell_formula_units_Z   4
loop_
 _symmetry_equiv_pos_site_id
 _symmetry_equiv_pos_as_xyz
  1  'x, y, z'
loop_
 _atom_site_type_symbol
 _atom_site_label
 _atom_site_symmetry_multiplicity
 _atom_site_fract_x
 _atom_site_fract_y
 _atom_site_fract_z
 _atom_site_occupancy
  C  1  1  0.82277200  0.90642300  0.08285000  1
  C  2  1  0.87927600  0.93965075  0.17397775  1
  C  3  1  0.76481850  0.93943950  0.06024400  1
  C  4  1  0.70725700  0.91669275  0.09365925  1
  C  7  1  0.76554050  0.94923900  0.18405600  1
  C  8  1  0.82352700  0.91677175  0.20936925  1
  C  13  1  0.76565600  0.82582350  0.17449950  1
  C  14  1  0.70738700  0.79060650  0.08356950  1
  C  17  1  0.65119750  0.82557625  0.06074125  1
  C  20  1  0.76492700  0.81601325  0.05066725  1
  C  23  1  0.87389500  0.92493150  0.04692500  1
  C  24  1  0.65591000  0.70357125  0.05083325  1
  C  25  1  0.65567650  0.95216300  0.07522900  1
  C  26  1  0.87543000  0.94984575  0.29640675  1
  C  121  1  0.32256550  0.22470175  0.90085925  1
  C  122  1  0.26435550  0.18911925  0.80988725  1
  C  123  1  0.37928600  0.19027650  0.92412850  1
  C  124  1  0.32373450  0.09913475  0.89147425  1
  C  127  1  0.26548100  0.06623225  0.80101875  1
  C  128  1  0.20697550  0.09813500  0.77529750  1
  C  133  1  0.15116600  0.07502175  0.81061425  1
  C  134  1  0.20762900  0.10859750  0.90178950  1
  C  137  1  0.26609800  0.07613575  0.92479725  1
  C  140  1  0.26496850  0.19904500  0.93368500  1
  C  143  1  0.37347000  0.31175525  0.93323175  1
  C  144  1  0.15644700  0.08987550  0.93765100  1
  C  145  1  0.37581400  0.06416675  0.91028125  1
  C  146  1  0.15515700  0.06477550  0.68822550  1
  C  241  1  0.97166350  0.98008925  0.91180375  1
  C  243  1  0.97453950  0.01190900  0.02987650  1
  C  244  1  0.05909500  0.03452400  0.07296450  1
  C  246  1  0.05619950  0.00267925  0.95491575  1
  C  253  1  0.55834950  0.47090475  0.00869025  1
  C  255  1  0.55540050  0.58605525  0.03761725  1
  C  256  1  0.47089850  0.54459550  0.97558750  1
  C  258  1  0.47381700  0.42943375  0.94669675  1
  C  265  1  0.56027400  0.08888475  0.01975275  1
  C  267  1  0.55571100  0.96992750  0.98826600  1
  C  268  1  0.47128350  0.92778600  0.96619300  1
  C  270  1  0.47585050  0.04675025  0.99768125  1
  C  277  1  0.97072250  0.98924625  0.52820025  1
  C  279  1  0.97532750  0.96233000  0.41383450  1
  C  280  1  0.05968450  0.02477125  0.45611325  1
  C  282  1  0.05511550  0.05164925  0.57049225  1
  H  5  1  0.72613900  0.91672750  0.99669400  1
  H  6  1  0.80321150  0.00298600  0.08274800  1
  H  9  1  0.80503550  0.01302525  0.20866875  1
  H  10  1  0.72627350  0.93454575  0.20859125  1
  H  11  1  0.92016550  0.00316375  0.19933725  1
  H  12  1  0.92019950  0.91704475  0.18927025  1
  H  15  1  0.72749050  0.81011375  0.19989425  1
  H  16  1  0.80410900  0.80070625  0.19015625  1
  H  18  1  0.61053750  0.81021900  0.08361750  1
  H  19  1  0.61004050  0.80001900  0.99723800  1
  H  21  1  0.80450450  0.79178825  0.06528775  1
  H  22  1  0.72511200  0.79114850  0.98688500  1
  H  125  1  0.42038050  0.21605750  0.98765450  1
  H  126  1  0.42002000  0.20579050  0.90133450  1
  H  129  1  0.30481550  0.08110675  0.77655525  1
  H  130  1  0.22634400  0.00242700  0.77659700  1
  H  131  1  0.30258300  0.20499375  0.78456475  1
  H  132  1  0.22552350  0.21384875  0.79392425  1
  H  135  1  0.11062600  0.01148175  0.78545275  1
  H  136  1  0.10987500  0.09723725  0.79504375  1
  H  138  1  0.22806150  0.01257650  0.90248950  1
  H  139  1  0.30474350  0.09908100  0.98837950  1
  H  141  1  0.22498500  0.22285150  0.91875250  1
  H  142  1  0.30474800  0.22417750  0.99748900  1
  H  247  1  0.93965400  0.96269050  0.85281050  1
  H  248  1  0.09109700  0.05189550  0.13195500  1
  H  250  1  0.94554300  0.04273250  0.10633800  1
  H  252  1  0.08544050  0.97200900  0.87863200  1
  H  259  1  0.59037900  0.44394200  0.02333600  1
  H  260  1  0.43889600  0.57157375  0.96090125  1
  H  262  1  0.58517000  0.69166850  0.09801100  1
  H  264  1  0.44516600  0.32397100  0.88722700  1
  H  271  1  0.59281150  0.14780775  0.03678275  1
  H  272  1  0.43872550  0.86885600  0.94912600  1
  H  274  1  0.58429650  0.89315200  0.95726150  1
  H  276  1  0.44689100  0.12334700  0.02824600  1
  H  283  1  0.93817150  0.97371575  0.55456275  1
  H  284  1  0.09221300  0.04031350  0.42973500  1
  H  286  1  0.94617750  0.90262800  0.30824900  1
  H  288  1  0.08359300  0.11110500  0.67588550  1
  N  242  1  0.93378400  0.98439400  0.95084600  1
  N  245  1  0.09699050  0.03020875  0.03394025  1
  N  249  1  0.92859400  0.99914625  0.06250325  1
  N  251  1  0.10219350  0.01560300  0.92232800  1
  N  254  1  0.59619750  0.54781850  0.05088850  1
  N  257  1  0.43304850  0.46768400  0.93338250  1
  N  261  1  0.60138000  0.66461925  0.07057075  1
  N  263  1  0.42789800  0.35085125  0.91342925  1
  N  266  1  0.59729250  0.04896500  0.01540700  1
  N  269  1  0.43427350  0.96771000  0.97054200  1
  N  273  1  0.60085800  0.93651550  0.00105000  1
  N  275  1  0.43050850  0.07997325  0.98457275  1
  N  278  1  0.93375000  0.94786850  0.45128800  1
  N  281  1  0.09666800  0.06613975  0.53302975  1
  N  285  1  0.92996300  0.93008475  0.33528425  1
  N  287  1  0.10024050  0.08405625  0.64904225  1
  O  27  1  0.66563200  0.66149025  0.00114425  1
  O  28  1  0.86348750  0.86536700  0.99464800  1
  O  29  1  0.86581950  0.99956500  0.33859700  1
  O  30  1  0.66580100  0.00416425  0.13479175  1
  O  147  1  0.16646200  0.14931700  0.98970700  1
  O  148  1  0.36284950  0.35360100  0.98219100  1
  O  149  1  0.16533700  0.01539100  0.64635000  1
  O  150  1  0.36613800  0.01231225  0.85093775  1
