# generated using pymatgen
data_H18C30N5O2
_symmetry_space_group_name_H-M   'P 1'
_cell_length_a   9.86240000
_cell_length_b   50.70290000
_cell_length_c   50.70290000
_cell_angle_alpha   60.00000000
_cell_angle_beta   89.99200000
_cell_angle_gamma   90.00000000
_symmetry_Int_Tables_number   1
_chemical_formula_structural   H18C30N5O2
_chemical_formula_sum   'H108 C180 N30 O12'
_cell_volume   21957.29509432
_cell_formula_units_Z   6
loop_
 _symmetry_equiv_pos_site_id
 _symmetry_equiv_pos_as_xyz
  1  'x, y, z'
loop_
 _atom_site_type_symbol
 _atom_site_label
 _atom_site_symmetry_multiplicity
 _atom_site_fract_x
 _atom_site_fract_y
 _atom_site_fract_z
 _atom_site_occupancy
  C  1  1  0.99462500  0.36177133  0.61585333  1
  C  2  1  0.99353000  0.34583900  0.60029233  1
  C  3  1  0.99224700  0.36679300  0.56907100  1
  C  5  1  0.99352400  0.39289300  0.59456467  1
  C  6  1  0.99602200  0.41666900  0.60181867  1
  C  7  1  0.99549500  0.44829267  0.57987500  1
  C  9  1  0.99429200  0.49248300  0.53546700  1
  C  10  1  0.00443000  0.49913767  0.55901767  1
  C  11  1  0.00478400  0.47203200  0.58626433  1
  C  12  1  0.99348100  0.51420267  0.50376700  1
  C  13  1  0.99215300  0.50650133  0.48028700  1
  C  15  1  0.99344500  0.48040300  0.45479767  1
  C  16  1  0.99439300  0.51152433  0.43350567  1
  C  17  1  0.99326800  0.52745600  0.44906600  1
  C  18  1  0.99613600  0.45662567  0.44754633  1
  C  19  1  0.99534300  0.42500400  0.46948433  1
  C  21  1  0.99400700  0.38081100  0.51388900  1
  C  22  1  0.00412300  0.37416100  0.49033367  1
  C  23  1  0.00466200  0.40127100  0.46308800  1
  C  24  1  0.99347900  0.35909100  0.54559033  1
  C  25  1  0.00414100  0.32764767  0.55395533  1
  C  26  1  0.89367100  0.31187467  0.55042533  1
  C  27  1  0.91052600  0.28237100  0.55462567  1
  C  28  1  0.03834600  0.26759800  0.56252900  1
  C  29  1  0.14778200  0.28342233  0.56651133  1
  C  30  1  0.13144200  0.31294933  0.56210467  1
  C  31  1  0.00982600  0.46460133  0.41629900  1
  C  32  1  0.89759300  0.46396367  0.39927267  1
  C  33  1  0.91557400  0.46778033  0.36994000  1
  C  34  1  0.04632500  0.47218100  0.35673733  1
  C  35  1  0.15784600  0.47301700  0.37396333  1
  C  36  1  0.14024900  0.46918100  0.40323100  1
  C  37  1  0.00432100  0.54564667  0.49538933  1
  C  38  1  0.13165100  0.56032900  0.48718433  1
  C  39  1  0.14808300  0.58988000  0.48270600  1
  C  40  1  0.03865300  0.60577400  0.48659067  1
  C  41  1  0.91081300  0.59100767  0.49455200  1
  C  42  1  0.89389000  0.56146067  0.49886933  1
  C  43  1  0.00957500  0.40870833  0.63306533  1
  C  44  1  0.13983500  0.40394033  0.64622733  1
  C  45  1  0.89734500  0.40955767  0.64998800  1
  C  46  1  0.91521800  0.40581800  0.67929067  1
  C  47  1  0.04584500  0.40128000  0.69256800  1
  C  48  1  0.15732100  0.40016600  0.67547400  1
  C  75  1  0.06957700  0.47537433  0.32804433  1
  C  76  1  0.06106000  0.63470133  0.48288900  1
  C  77  1  0.06900800  0.39820833  0.72121267  1
  C  78  1  0.06070000  0.23872833  0.56608633  1
  C  83  1  0.99421600  0.52877467  0.00792167  1
  C  84  1  0.99310400  0.51320633  0.03941567  1
  C  85  1  0.99223300  0.48198767  0.04967400  1
  C  87  1  0.99340800  0.50749033  0.99808267  1
  C  88  1  0.99614200  0.51474767  0.96705100  1
  C  89  1  0.99571000  0.49280900  0.95736700  1
  C  91  1  0.99464700  0.44840333  0.95757500  1
  C  92  1  0.00488800  0.47195767  0.92737333  1
  C  93  1  0.00532700  0.49920267  0.92724000  1
  C  94  1  0.99387100  0.41670600  0.96754833  1
  C  95  1  0.99236200  0.39322100  0.99872733  1
  C  97  1  0.99350300  0.36772167  0.05031500  1
  C  98  1  0.99446100  0.34643500  0.04048033  1
  C  99  1  0.99333600  0.36200100  0.00898733  1
  C  100  1  0.99607700  0.36046433  0.08134567  1
  C  101  1  0.99575800  0.38240033  0.09103233  1
  C  103  1  0.99461700  0.42680233  0.09082867  1
  C  104  1  0.00479100  0.40324333  0.12103033  1
  C  105  1  0.00517300  0.37599867  0.12116267  1
  C  106  1  0.99380400  0.45850133  0.08085467  1
  C  107  1  0.00448000  0.46686133  0.10393633  1
  C  108  1  0.89394000  0.46332233  0.12323133  1
  C  109  1  0.91072000  0.46753433  0.14852867  1
  C  110  1  0.03849000  0.47546633  0.15539067  1
  C  111  1  0.14796600  0.47945767  0.13558700  1
  C  112  1  0.13168000  0.47508167  0.11044667  1
  C  113  1  0.00986800  0.32921867  0.10461033  1
  C  114  1  0.89764400  0.31216767  0.12226933  1
  C  115  1  0.91564200  0.28282967  0.14777333  1
  C  116  1  0.04642200  0.26965100  0.15657567  1
  C  117  1  0.15794200  0.28689567  0.13851700  1
  C  118  1  0.14032100  0.31617633  0.11310933  1
  C  119  1  0.00465400  0.40833667  0.94447367  1
  C  120  1  0.13187600  0.40008067  0.93800933  1
  C  121  1  0.14818900  0.39558767  0.91294333  1
  C  122  1  0.03873300  0.39950267  0.89316533  1
  C  123  1  0.91096600  0.40749300  0.89997267  1
  C  124  1  0.89415400  0.41182367  0.92519667  1
  C  125  1  0.00969300  0.54599933  0.94377300  1
  C  126  1  0.13994700  0.55917333  0.93536900  1
  C  127  1  0.89753000  0.56290333  0.92596233  1
  C  128  1  0.91540600  0.59220367  0.90039400  1
  C  129  1  0.04603100  0.60549267  0.89166067  1
  C  130  1  0.15747300  0.58841033  0.90988133  1
  C  157  1  0.06967100  0.24094700  0.18205800  1
  C  158  1  0.06103400  0.39579400  0.86794067  1
  C  159  1  0.06922900  0.63413100  0.86607733  1
  C  160  1  0.06079200  0.47901900  0.18070767  1
  C  165  1  0.99472300  0.92083867  0.44882633  1
  C  166  1  0.99361300  0.95233267  0.43289333  1
  C  167  1  0.99250800  0.96260000  0.45384700  1
  C  169  1  0.99360800  0.91100767  0.47994733  1
  C  170  1  0.99602500  0.87997700  0.50372800  1
  C  171  1  0.99551800  0.87029800  0.53535100  1
  C  173  1  0.99429700  0.87051633  0.57954300  1
  C  174  1  0.00445200  0.84031100  0.58619667  1
  C  175  1  0.00492900  0.84017200  0.55908833  1
  C  176  1  0.99362700  0.88050033  0.60125933  1
  C  177  1  0.99247300  0.91168167  0.59355900  1
  C  179  1  0.99381500  0.96327067  0.56745800  1
  C  180  1  0.99507200  0.95344267  0.59857800  1
  C  181  1  0.99389300  0.92195000  0.61451167  1
  C  182  1  0.99632200  0.99429967  0.54367900  1
  C  183  1  0.99590400  0.00397900  0.51205833  1
  C  185  1  0.99473600  0.00376167  0.46786633  1
  C  186  1  0.00475200  0.03396933  0.46121433  1
  C  187  1  0.00508500  0.03410900  0.48832267  1
  C  188  1  0.99389200  0.99378100  0.44614700  1
  C  189  1  0.00462200  0.01685967  0.41470367  1
  C  190  1  0.89404900  0.03612267  0.39893467  1
  C  191  1  0.91084000  0.06142133  0.36942500  1
  C  192  1  0.03865300  0.06831333  0.35464133  1
  C  193  1  0.14817500  0.04854033  0.37046900  1
  C  194  1  0.13189100  0.02340867  0.39999200  1
  C  195  1  0.01012900  0.01757767  0.55164300  1
  C  196  1  0.89780800  0.03518700  0.55108033  1
  C  197  1  0.91571300  0.06068700  0.55492500  1
  C  198  1  0.04647400  0.06954000  0.55925033  1
  C  199  1  0.15807300  0.05152167  0.56002367  1
  C  200  1  0.14053600  0.02608467  0.55619367  1
  C  201  1  0.00456700  0.85743267  0.63269967  1
  C  202  1  0.13192000  0.85092633  0.64736667  1
  C  203  1  0.14833600  0.82586500  0.67692600  1
  C  204  1  0.03890000  0.80609033  0.69282400  1
  C  205  1  0.91102900  0.81291533  0.67807600  1
  C  206  1  0.89412400  0.83814667  0.64853033  1
  C  207  1  0.00965300  0.85668833  0.49577000  1
  C  208  1  0.13993500  0.84828633  0.49101367  1
  C  209  1  0.89742000  0.83892900  0.49660167  1
  C  210  1  0.91532400  0.81335400  0.49288100  1
  C  211  1  0.04595400  0.80461667  0.48833633  1
  C  212  1  0.15743600  0.82280633  0.48725300  1
  C  239  1  0.06964200  0.09503100  0.56245967  1
  C  240  1  0.06130700  0.78085400  0.72174167  1
  C  241  1  0.06911600  0.77904967  0.48525300  1
  C  242  1  0.06092900  0.09361600  0.32576067  1
  C  247  1  0.98589900  0.47106900  0.28578533  1
  C  248  1  0.86238100  0.47163300  0.27144300  1
  C  249  1  0.85865700  0.47189133  0.24330133  1
  C  250  1  0.98147900  0.47165233  0.22884667  1
  C  251  1  0.10530300  0.47056633  0.24349600  1
  C  253  1  0.10752200  0.47030867  0.27138367  1
  C  261  1  0.98605300  0.19867867  0.22862500  1
  C  262  1  0.86253900  0.18434200  0.24242667  1
  C  263  1  0.85882400  0.15620167  0.27031200  1
  C  264  1  0.98165100  0.14174400  0.28498600  1
  C  265  1  0.10546800  0.15640967  0.27142100  1
  C  267  1  0.10767400  0.18429967  0.24379400  1
  C  275  1  0.98595000  0.14160500  0.55812267  1
  C  276  1  0.86241400  0.15537500  0.55869667  1
  C  277  1  0.85865800  0.18325100  0.55896967  1
  C  278  1  0.98146200  0.19794633  0.55873467  1
  C  279  1  0.10529700  0.18440133  0.55761500  1
  C  281  1  0.10755700  0.15677400  0.55735333  1
  C  289  1  0.98564900  0.40298867  0.76321433  1
  C  290  1  0.86219300  0.40251267  0.77754233  1
  C  291  1  0.85859500  0.40244433  0.80558933  1
  C  292  1  0.98148600  0.40280200  0.81995633  1
  C  293  1  0.10524900  0.40379033  0.80532267  1
  C  295  1  0.10733700  0.40387733  0.77751833  1
  C  303  1  0.98585600  0.67613833  0.81930500  1
  C  304  1  0.86240700  0.69047033  0.80546933  1
  C  305  1  0.85881000  0.71851933  0.77749133  1
  C  306  1  0.98169500  0.73287900  0.76274833  1
  C  307  1  0.10545400  0.71823267  0.77636900  1
  C  309  1  0.10754500  0.69044467  0.80410367  1
  C  317  1  0.98573400  0.73228200  0.49000867  1
  C  318  1  0.86227300  0.71842600  0.48955400  1
  C  319  1  0.85864600  0.69044167  0.48949367  1
  C  320  1  0.98152600  0.67571400  0.48984267  1
  C  321  1  0.10528900  0.68933267  0.49087400  1
  C  323  1  0.10740700  0.71706133  0.49093800  1
  H  49  1  0.25399800  0.39732367  0.68387967  1
  H  50  1  0.22361800  0.40411467  0.63419600  1
  H  51  1  0.83164500  0.40699533  0.69063467  1
  H  52  1  0.80218900  0.41382333  0.64067367  1
  H  53  1  0.99636400  0.35188667  0.63906200  1
  H  54  1  0.99443600  0.32260167  0.61048667  1
  H  55  1  0.99099300  0.41347100  0.54796000  1
  H  56  1  0.99150000  0.45982367  0.50140133  1
  H  57  1  0.01404100  0.47034400  0.60714733  1
  H  58  1  0.01344700  0.52010133  0.55714733  1
  H  59  1  0.21457300  0.54920567  0.48531200  1
  H  60  1  0.24290100  0.59940300  0.47730400  1
  H  61  1  0.80114400  0.55112467  0.50554000  1
  H  62  1  0.82881600  0.60145000  0.49778633  1
  H  63  1  0.99420000  0.55069300  0.43887033  1
  H  64  1  0.99625400  0.52140800  0.41029600  1
  H  65  1  0.01360900  0.35320700  0.49220300  1
  H  66  1  0.01421200  0.40296567  0.44220700  1
  H  67  1  0.80231100  0.45984400  0.40851467  1
  H  68  1  0.83194500  0.46681767  0.35849467  1
  H  69  1  0.22402400  0.46885167  0.41533533  1
  H  70  1  0.25460600  0.47576800  0.36560833  1
  H  71  1  0.21437900  0.32402933  0.56404000  1
  H  72  1  0.24259000  0.27389667  0.57186567  1
  H  73  1  0.82854900  0.27198433  0.55130700  1
  H  74  1  0.80099600  0.32223800  0.54374000  1
  H  79  1  0.16118300  0.48211167  0.31894333  1
  H  80  1  0.14841600  0.64499833  0.47368433  1
  H  81  1  0.16036500  0.39133567  0.73040733  1
  H  82  1  0.14789000  0.22836900  0.57533233  1
  H  131  1  0.25415300  0.59682333  0.90432600  1
  H  132  1  0.22371800  0.54715467  0.94723567  1
  H  133  1  0.83185400  0.60353667  0.88786800  1
  H  134  1  0.80237000  0.55358867  0.93102067  1
  H  135  1  0.99603100  0.55198633  0.99459933  1
  H  136  1  0.99420500  0.52339600  0.05246300  1
  H  137  1  0.99186900  0.46088500  0.02410133  1
  H  138  1  0.99145900  0.41432733  0.02429633  1
  H  139  1  0.01441700  0.52008867  0.90804267  1
  H  140  1  0.01397400  0.47009267  0.90827933  1
  H  141  1  0.21478300  0.39815300  0.95102733  1
  H  142  1  0.24291200  0.39012367  0.90884100  1
  H  143  1  0.80149900  0.41854333  0.92884900  1
  H  144  1  0.82897900  0.41077033  0.88628333  1
  H  145  1  0.99445900  0.35180967  0.99594167  1
  H  146  1  0.99625500  0.32322467  0.05380100  1
  H  147  1  0.01358700  0.40510333  0.14013200  1
  H  148  1  0.01393800  0.35510567  0.14036067  1
  H  149  1  0.80232100  0.32138367  0.11713500  1
  H  150  1  0.83201200  0.27136300  0.16016900  1
  H  151  1  0.22409300  0.32829467  0.10133533  1
  H  152  1  0.25471800  0.27856600  0.14413600  1
  H  153  1  0.21466400  0.47700100  0.09744733  1
  H  154  1  0.24272000  0.48485233  0.13974333  1
  H  155  1  0.82872100  0.46420200  0.16223633  1
  H  156  1  0.80130500  0.45661000  0.11956200  1
  H  161  1  0.16124100  0.23183900  0.18439400  1
  H  162  1  0.14830800  0.38656100  0.86685000  1
  H  163  1  0.16061100  0.64332200  0.86373933  1
  H  164  1  0.14798500  0.48826200  0.18182733  1
  H  213  1  0.25410800  0.81725567  0.48438467  1
  H  214  1  0.22370800  0.86014133  0.49119233  1
  H  215  1  0.83173600  0.80085300  0.49402500  1
  H  216  1  0.80226700  0.84397833  0.50086800  1
  H  217  1  0.99647000  0.90751300  0.43894133  1
  H  218  1  0.99475300  0.96537533  0.40965633  1
  H  219  1  0.99141700  0.93703567  0.50052467  1
  H  220  1  0.99094000  0.93724400  0.54688133  1
  H  221  1  0.01392800  0.82096967  0.55740667  1
  H  222  1  0.01340400  0.82121733  0.60715933  1
  H  223  1  0.21482100  0.86393733  0.63625000  1
  H  224  1  0.24316500  0.82173167  0.68643833  1
  H  225  1  0.80135800  0.84181800  0.63820500  1
  H  226  1  0.82904000  0.79923233  0.68851433  1
  H  227  1  0.99500400  0.90890967  0.63774833  1
  H  228  1  0.99703000  0.96676867  0.60846100  1
  H  229  1  0.01320900  0.05307633  0.44024633  1
  H  230  1  0.01365300  0.05331700  0.49000900  1
  H  231  1  0.80249900  0.03002700  0.54701733  1
  H  232  1  0.83203700  0.07306833  0.55400267  1
  H  233  1  0.22436000  0.01435967  0.55579033  1
  H  234  1  0.25482900  0.05716567  0.56271933  1
  H  235  1  0.21486700  0.01041300  0.41107300  1
  H  236  1  0.24294800  0.05270833  0.36092000  1
  H  237  1  0.82879300  0.07509967  0.35903400  1
  H  238  1  0.80136400  0.03242667  0.40930567  1
  H  243  1  0.16116800  0.09737700  0.56925189  1
  H  244  1  0.14871700  0.77974000  0.73202533  1
  H  245  1  0.16045700  0.77673333  0.47836433  1
  H  246  1  0.14805700  0.09472000  0.31537967  1
  H  252  1  0.77286800  0.47175767  0.28162500  1
  H  254  1  0.19562200  0.46925333  0.23430667  1
  H  255  1  0.19931700  0.46886133  0.28139333  1
  H  266  1  0.77301700  0.19452567  0.23213167  1
  H  268  1  0.19578600  0.14722633  0.28192233  1
  H  269  1  0.19946600  0.19431400  0.23522167  1
  H  280  1  0.77291000  0.14506600  0.55882000  1
  H  282  1  0.19559500  0.19492133  0.55627567  1
  H  283  1  0.19935200  0.14823733  0.55586000  1
  H  294  1  0.77263100  0.40230367  0.76742167  1
  H  296  1  0.19560600  0.40521300  0.81442933  1
  H  297  1  0.19908000  0.40527733  0.76750067  1
  H  308  1  0.77284500  0.68035100  0.81580933  1
  H  310  1  0.19581000  0.72734733  0.76584100  1
  H  311  1  0.19927700  0.68041600  0.81270033  1
  H  322  1  0.77271400  0.72875700  0.48934967  1
  H  324  1  0.19564100  0.67880600  0.49228100  1
  H  325  1  0.19915000  0.72567433  0.49234000  1
  N  4  1  0.99096000  0.39457300  0.56697900  1
  N  8  1  0.98906500  0.46173600  0.54916233  1
  N  14  1  0.99080200  0.47872067  0.48238333  1
  N  20  1  0.98891400  0.41156000  0.50019700  1
  N  86  1  0.99094500  0.47990133  0.02398300  1
  N  90  1  0.98929300  0.46209533  0.97463100  1
  N  96  1  0.99100300  0.39531067  0.02441500  1
  N  102  1  0.98936900  0.41311467  0.07376933  1
  N  168  1  0.99112000  0.93691300  0.48162733  1
  N  172  1  0.98917500  0.88756967  0.54879333  1
  N  178  1  0.99110700  0.93736700  0.56577767  1
  N  184  1  0.98960900  0.98670733  0.49861600  1
  N  256  1  0.73411200  0.47244200  0.22914500  1
  N  259  1  0.98039700  0.46988067  0.31280300  1
  N  260  1  0.97598800  0.47074800  0.20283700  1
  N  270  1  0.73427900  0.14204933  0.28393467  1
  N  273  1  0.98053500  0.22570767  0.20281000  1
  N  274  1  0.97615600  0.11574933  0.31191067  1
  N  284  1  0.73409100  0.19684533  0.55953667  1
  N  287  1  0.98048200  0.11578333  0.55692133  1
  N  288  1  0.97593000  0.22486333  0.55782067  1
  N  298  1  0.73411200  0.40197133  0.81973767  1
  N  301  1  0.98007900  0.40400567  0.73628033  1
  N  302  1  0.97608300  0.40388400  0.84587200  1
  N  312  1  0.73432800  0.73267333  0.76383467  1
  N  315  1  0.98027900  0.64920567  0.84522633  1
  N  316  1  0.97627800  0.75880400  0.73575533  1
  N  326  1  0.73415100  0.67677200  0.48902800  1
  N  329  1  0.98017800  0.75818900  0.49104533  1
  N  330  1  0.97607000  0.64871067  0.49093900  1
  O  257  1  0.66331600  0.44941333  0.24584367  1
  O  258  1  0.66668100  0.49589300  0.22287667  1
  O  271  1  0.66356100  0.15875000  0.29027533  1
  O  272  1  0.66677500  0.13578100  0.26676300  1
  O  285  1  0.66331200  0.20318767  0.53650600  1
  O  286  1  0.66667100  0.17964933  0.58298667  1
  O  299  1  0.66324300  0.42495467  0.80295900  1
  O  300  1  0.66671100  0.37847433  0.82616533  1
  O  313  1  0.66337500  0.71590000  0.75763700  1
  O  314  1  0.66701600  0.73910167  0.78091633  1
  O  327  1  0.66328700  0.67057167  0.51201367  1
  O  328  1  0.66675600  0.69384200  0.46553233  1
