# generated using pymatgen
data_H3C6(NO)2
_symmetry_space_group_name_H-M   'P 1'
_cell_length_a   9.68433333
_cell_length_b   57.93170000
_cell_length_c   57.93170000
_cell_angle_alpha   120.00000000
_cell_angle_beta   90.00000000
_cell_angle_gamma   90.00000000
_symmetry_Int_Tables_number   1
_chemical_formula_structural   H3C6(NO)2
_chemical_formula_sum   'H108 C216 N72 O72'
_cell_volume   28147.05145905
_cell_formula_units_Z   36
loop_
 _symmetry_equiv_pos_site_id
 _symmetry_equiv_pos_as_xyz
  1  'x, y, z'
loop_
 _atom_site_type_symbol
 _atom_site_label
 _atom_site_symmetry_multiplicity
 _atom_site_fract_x
 _atom_site_fract_y
 _atom_site_fract_z
 _atom_site_occupancy
  C  1  1  0.97345900  0.83861700  0.13904000  1
  C  2  1  0.98508700  0.86634300  0.14802800  1
  C  3  1  0.97890100  0.87671300  0.13042700  1
  C  4  1  0.96319100  0.85816600  0.10275100  1
  C  5  1  0.95026500  0.83030400  0.09259100  1
  C  6  1  0.95448900  0.82114900  0.11125900  1
  C  10  1  0.99903800  0.90399400  0.13927700  1
  C  11  1  0.92709200  0.81209300  0.06533200  1
  C  12  1  0.99029600  0.82924400  0.15717100  1
  C  16  1  0.97341200  0.82835900  0.69926100  1
  C  17  1  0.98502500  0.81936700  0.71799600  1
  C  18  1  0.97881700  0.83696500  0.74596900  1
  C  19  1  0.96315300  0.86464200  0.75510100  1
  C  20  1  0.95022400  0.87480500  0.73740100  1
  C  21  1  0.95447200  0.85614100  0.70957600  1
  C  25  1  0.99906700  0.82811400  0.76439700  1
  C  26  1  0.92703700  0.90206300  0.74645100  1
  C  27  1  0.99025000  0.81023400  0.67175500  1
  C  31  1  0.97312900  0.68862900  0.84929100  1
  C  32  1  0.98483700  0.70736500  0.87701500  1
  C  33  1  0.97876100  0.73533900  0.88738600  1
  C  34  1  0.96310700  0.74446800  0.86883800  1
  C  35  1  0.95007800  0.72676700  0.84097800  1
  C  36  1  0.95429600  0.69894300  0.83182100  1
  C  40  1  0.99903200  0.75375800  0.91466600  1
  C  41  1  0.92702100  0.73581100  0.82276200  1
  C  42  1  0.98998100  0.66112500  0.83991800  1
  C  46  1  0.96385500  0.73361700  0.23899400  1
  C  47  1  0.95241700  0.74079600  0.26640200  1
  C  48  1  0.93220900  0.72145900  0.27428400  1
  C  49  1  0.92593600  0.69449900  0.25363200  1
  C  50  1  0.94562200  0.68583400  0.22637900  1
  C  51  1  0.96353100  0.70596300  0.21949800  1
  C  55  1  0.91980700  0.72586600  0.30067800  1
  C  56  1  0.95354900  0.65805100  0.20771100  1
  C  57  1  0.98107900  0.75338400  0.23179200  1
  C  61  1  0.92651400  0.52686500  0.27291600  1
  C  63  1  0.92047900  0.54254900  0.24155400  1
  C  65  1  0.96373400  0.72844300  0.49431000  1
  C  66  1  0.95232800  0.70103600  0.47407500  1
  C  67  1  0.93255600  0.69315300  0.44684600  1
  C  68  1  0.92657200  0.71380600  0.44053900  1
  C  69  1  0.94584300  0.74106800  0.45914400  1
  C  70  1  0.96347600  0.74794400  0.48615700  1
  C  74  1  0.92016900  0.66675900  0.42485900  1
  C  75  1  0.95369800  0.75974500  0.45004200  1
  C  76  1  0.98082100  0.73563800  0.52128000  1
  C  80  1  0.93864600  0.79565500  0.16955500  1
  C  81  1  0.82596000  0.77941800  0.16831100  1
  C  82  1  0.83082200  0.76519200  0.18242300  1
  C  83  1  0.94524500  0.76653100  0.19819500  1
  C  84  1  0.05949500  0.78235900  0.19908000  1
  C  86  1  0.05443000  0.79669900  0.18502200  1
  C  96  1  0.93860600  0.79786600  0.62578600  1
  C  97  1  0.82596200  0.79913800  0.61079900  1
  C  98  1  0.83080300  0.78503400  0.58246400  1
  C  99  1  0.94516200  0.76924100  0.56802400  1
  C  100  1  0.05937200  0.76832900  0.58295800  1
  C  102  1  0.05433100  0.78238100  0.61135700  1
  C  112  1  0.93825600  0.61515500  0.80634000  1
  C  113  1  0.82567100  0.60016500  0.79006600  1
  C  114  1  0.83053900  0.57182800  0.77582700  1
  C  115  1  0.94490600  0.55739400  0.77718100  1
  C  116  1  0.05911400  0.57233100  0.79302700  1
  C  118  1  0.05403700  0.60072800  0.80737800  1
  C  128  1  0.97282900  0.79813600  0.01878800  1
  C  129  1  0.08402400  0.79766900  0.00258300  1
  C  130  1  0.07501500  0.78222600  0.97428700  1
  C  131  1  0.95636500  0.76705400  0.96106000  1
  C  132  1  0.84519200  0.76749500  0.97725500  1
  C  134  1  0.85414900  0.78296600  0.00555200  1
  C  144  1  0.97282000  0.94860600  0.77902900  1
  C  145  1  0.08404600  0.96481200  0.79475700  1
  C  146  1  0.85411300  0.96184300  0.77710600  1
  C  152  1  0.97275700  0.76840000  0.80880900  1
  C  153  1  0.08393500  0.78414800  0.80835200  1
  C  154  1  0.07496200  0.79699000  0.79290000  1
  C  155  1  0.95636500  0.79502700  0.77770800  1
  C  156  1  0.84520800  0.77926500  0.77814100  1
  C  158  1  0.85412500  0.76644900  0.79361900  1
  C  168  1  0.07496700  0.96361900  0.17040300  1
  C  169  1  0.95641000  0.95038900  0.17237700  1
  C  170  1  0.84527000  0.96658000  0.18814900  1
  C  176  1  0.92925100  0.74998600  0.34970700  1
  C  177  1  0.98211200  0.77271500  0.37293700  1
  C  178  1  0.97873600  0.77399100  0.39808300  1
  C  179  1  0.92553800  0.75283600  0.40089500  1
  C  180  1  0.86820400  0.73059500  0.37825300  1
  C  182  1  0.86903500  0.72972500  0.35343900  1
  C  192  1  0.92966300  0.56746500  0.21744500  1
  C  193  1  0.98255600  0.56799300  0.19473200  1
  C  194  1  0.97905200  0.59187000  0.19347100  1
  C  195  1  0.92565700  0.61581800  0.21462400  1
  C  196  1  0.86829800  0.61539000  0.23684900  1
  C  198  1  0.86927900  0.59143600  0.23770500  1
  C  208  1  0.92939500  0.61772800  0.39993400  1
  C  209  1  0.98182300  0.59447900  0.39944900  1
  C  210  1  0.97846200  0.56933700  0.37557500  1
  C  211  1  0.92567800  0.56654400  0.35158800  1
  C  212  1  0.86879100  0.58920900  0.35196900  1
  C  214  1  0.86961700  0.61402100  0.37591800  1
  C  670  1  0.97345900  0.26813400  0.12878400  1
  C  672  1  0.99027100  0.29564000  0.13816000  1
  C  674  1  0.96388200  0.47309400  0.23379500  1
  C  675  1  0.95260000  0.49332700  0.22661700  1
  C  676  1  0.93271100  0.52055500  0.24595600  1
  C  677  1  0.94582900  0.50826800  0.28158000  1
  C  678  1  0.96348300  0.48125200  0.26144800  1
  C  681  1  0.95363500  0.51738100  0.30936300  1
  C  682  1  0.98102800  0.44612300  0.21402500  1
  C  685  1  0.92744300  0.26224300  0.72442900  1
  C  686  1  0.94613400  0.27090200  0.75170200  1
  C  688  1  0.95373500  0.29868500  0.77038400  1
  C  690  1  0.96362800  0.48368500  0.74428700  1
  C  691  1  0.95254800  0.46345000  0.75146700  1
  C  692  1  0.93328700  0.43620400  0.73212000  1
  C  693  1  0.92748600  0.42988700  0.70515500  1
  C  694  1  0.94611800  0.44850200  0.69649300  1
  C  695  1  0.96330500  0.47553000  0.71663300  1
  C  699  1  0.92122900  0.41420800  0.73652200  1
  C  700  1  0.95366300  0.43939900  0.66871000  1
  C  701  1  0.98051300  0.51066300  0.76406200  1
  C  705  1  0.93328300  0.26360300  0.53119800  1
  C  707  1  0.92123200  0.29000000  0.55319600  1
  C  709  1  0.93865700  0.34161400  0.17175600  1
  C  710  1  0.82599000  0.35660700  0.18800100  1
  C  711  1  0.83084500  0.38494300  0.20222700  1
  C  712  1  0.94525000  0.39937700  0.20088300  1
  C  713  1  0.05948600  0.38443600  0.18504900  1
  C  715  1  0.05442500  0.35603800  0.17070700  1
  C  726  1  0.92984900  0.38927400  0.76062100  1
  C  727  1  0.98144200  0.38882000  0.78345400  1
  C  728  1  0.97811500  0.36493600  0.78470400  1
  C  729  1  0.92610200  0.34091500  0.76343600  1
  C  730  1  0.86996000  0.34126800  0.74108600  1
  C  732  1  0.87078500  0.36522100  0.74023200  1
  C  742  1  0.92978800  0.33903300  0.57812900  1
  C  743  1  0.98119300  0.36232700  0.57857000  1
  C  744  1  0.97788800  0.38746400  0.60245400  1
  C  745  1  0.92608100  0.39021400  0.62648700  1
  C  746  1  0.87013500  0.36750400  0.62614900  1
  C  748  1  0.87093400  0.34269500  0.60219700  1
  C  934  1  0.98505500  0.24939900  0.10105800  1
  C  935  1  0.97891000  0.22142700  0.09068800  1
  C  936  1  0.96320800  0.21229700  0.10923400  1
  C  937  1  0.95028500  0.22999700  0.13709700  1
  C  938  1  0.95457200  0.25782100  0.14625500  1
  C  941  1  0.99906800  0.20299700  0.06340600  1
  C  942  1  0.92711300  0.22094800  0.15530500  1
  C  945  1  0.97318000  0.11810600  0.83903000  1
  C  946  1  0.98488100  0.09038100  0.83004000  1
  C  947  1  0.97877200  0.08000600  0.84763900  1
  C  948  1  0.96308700  0.09855300  0.87531700  1
  C  949  1  0.95013900  0.12641400  0.88548000  1
  C  950  1  0.95433700  0.13557100  0.86681400  1
  C  954  1  0.99899500  0.05272600  0.83877900  1
  C  955  1  0.92698400  0.14462500  0.91273900  1
  C  956  1  0.99007400  0.12748300  0.82090500  1
  C  960  1  0.97316900  0.12836800  0.27876900  1
  C  961  1  0.98476700  0.13736000  0.26003500  1
  C  962  1  0.97867500  0.11975600  0.23206100  1
  C  963  1  0.96308700  0.09207900  0.22293300  1
  C  964  1  0.95005800  0.08192000  0.24063500  1
  C  965  1  0.95427900  0.10058700  0.26845800  1
  C  969  1  0.99898100  0.12860900  0.21363600  1
  C  970  1  0.92700400  0.05466000  0.23159200  1
  C  971  1  0.98990300  0.14650600  0.30627500  1
  C  975  1  0.96358600  0.22310700  0.73908700  1
  C  976  1  0.95247200  0.21593100  0.71167400  1
  C  977  1  0.93321700  0.23528000  0.70378000  1
  C  978  1  0.96333100  0.25076200  0.75858800  1
  C  981  1  0.92109500  0.23087800  0.67738300  1
  C  982  1  0.98039900  0.20332800  0.74628700  1
  C  985  1  0.96352100  0.22829300  0.48371100  1
  C  986  1  0.95248000  0.25570800  0.50395200  1
  C  987  1  0.92742300  0.24295200  0.53750900  1
  C  988  1  0.94602900  0.21567600  0.51888900  1
  C  989  1  0.96323200  0.20879400  0.49186600  1
  C  992  1  0.95352500  0.19698900  0.52798600  1
  C  993  1  0.98042800  0.22109600  0.45673500  1
  C  996  1  0.93835800  0.16107700  0.80853000  1
  C  997  1  0.82573800  0.17734300  0.80981100  1
  C  998  1  0.83057600  0.19157800  0.79570800  1
  C  999  1  0.94490600  0.19021500  0.77990800  1
  C  1000  1  0.05909800  0.17435800  0.77898500  1
  C  1002  1  0.05405400  0.16001200  0.79303400  1
  C  1012  1  0.93827400  0.15887700  0.35224200  1
  C  1013  1  0.82574300  0.15756600  0.36722800  1
  C  1014  1  0.83058700  0.17166500  0.39556400  1
  C  1015  1  0.94488300  0.18748000  0.41000200  1
  C  1016  1  0.05904000  0.18841600  0.39506800  1
  C  1018  1  0.05398100  0.17436800  0.36667100  1
  C  1028  1  0.97280300  0.18835200  0.16925500  1
  C  1029  1  0.08396200  0.17259800  0.16970800  1
  C  1030  1  0.07494700  0.15974800  0.18515200  1
  C  1031  1  0.95632700  0.16170500  0.20033400  1
  C  1032  1  0.84518800  0.17747100  0.19990500  1
  C  1034  1  0.85415000  0.19029800  0.18443600  1
  C  1044  1  0.07503400  0.99310700  0.80761100  1
  C  1045  1  0.95635400  0.00633300  0.80567400  1
  C  1046  1  0.84515700  0.99013900  0.78993100  1
  C  1052  1  0.97278800  0.15859300  0.95928400  1
  C  1053  1  0.08397700  0.15905100  0.97548600  1
  C  1054  1  0.07500500  0.17450400  0.00378100  1
  C  1055  1  0.95641000  0.18969500  0.01701100  1
  C  1056  1  0.84524500  0.18926100  0.00081900  1
  C  1058  1  0.85415500  0.17378100  0.97252200  1
  C  1068  1  0.97275800  0.00811700  0.19900200  1
  C  1069  1  0.08392200  0.99191600  0.18324600  1
  C  1070  1  0.85417000  0.99487600  0.20096400  1
  C  1076  1  0.92965900  0.20677100  0.62834900  1
  C  1077  1  0.98121900  0.18393200  0.60506200  1
  C  1078  1  0.97790000  0.18267800  0.57992700  1
  C  1079  1  0.92595600  0.20394700  0.57717000  1
  C  1080  1  0.86987600  0.22630700  0.59987300  1
  C  1082  1  0.87068800  0.22716500  0.62468300  1
  H  7  1  0.95924600  0.86516800  0.08964700  1
  H  8  1  0.94733200  0.80108700  0.10433400  1
  H  9  1  0.00128800  0.87933700  0.16790400  1
  H  13  1  0.04750500  0.84018700  0.17328800  1
  H  14  1  0.86722900  0.79647500  0.06091200  1
  H  15  1  0.05329100  0.90853800  0.12751600  1
  H  22  1  0.95922500  0.87774400  0.77520700  1
  H  23  1  0.94726000  0.86306700  0.69644200  1
  H  24  1  0.00127300  0.79949200  0.71111100  1
  H  28  1  0.04736300  0.79410400  0.66657800  1
  H  29  1  0.86712900  0.90648300  0.73525800  1
  H  30  1  0.05346400  0.83986300  0.78068200  1
  H  37  1  0.95922900  0.76457400  0.87584100  1
  H  38  1  0.94708300  0.68580500  0.81176100  1
  H  39  1  0.00105900  0.70048200  0.89000700  1
  H  43  1  0.04710300  0.65595000  0.85087100  1
  H  44  1  0.86724400  0.72460700  0.80713100  1
  H  45  1  0.05331100  0.77005900  0.91920900  1
  H  52  1  0.91575000  0.68027600  0.25891300  1
  H  53  1  0.97780600  0.70028500  0.19984700  1
  H  54  1  0.95565600  0.76047100  0.28090200  1
  H  58  1  0.02133100  0.77076900  0.24521900  1
  H  59  1  0.98147400  0.65160900  0.18842100  1
  H  60  1  0.90134000  0.70902500  0.30152700  1
  H  62  1  0.91661200  0.54637200  0.28714100  1
  H  64  1  0.90226300  0.56024700  0.25840500  1
  H  71  1  0.91650800  0.70853100  0.42103400  1
  H  72  1  0.97759100  0.76759700  0.50014000  1
  H  73  1  0.95552200  0.68653300  0.47924700  1
  H  77  1  0.02086700  0.72219700  0.52524000  1
  H  78  1  0.98116700  0.77905800  0.46291700  1
  H  79  1  0.90245600  0.66591000  0.40714500  1
  H  85  1  0.74835900  0.75348600  0.18100200  1
  H  87  1  0.13915600  0.80744500  0.18547300  1
  H  101  1  0.74837600  0.78647400  0.57218200  1
  H  103  1  0.13902700  0.78191100  0.62164900  1
  H  117  1  0.74814200  0.56154600  0.76409800  1
  H  119  1  0.13874200  0.61102100  0.81813800  1
  H  133  1  0.15797500  0.78185600  0.96318800  1
  H  135  1  0.77120300  0.78329800  0.01663100  1
  H  147  1  0.77115500  0.95076300  0.76636700  1
  H  157  1  0.15791100  0.80772600  0.79253800  1
  H  159  1  0.77119100  0.75569700  0.79394600  1
  H  171  1  0.15790200  0.95252400  0.15966000  1
  H  181  1  0.02185800  0.78997900  0.41433800  1
  H  183  1  0.82269700  0.71365700  0.33800800  1
  H  197  1  0.02219700  0.59215800  0.17749600  1
  H  199  1  0.82288400  0.59204900  0.25375700  1
  H  213  1  0.02124700  0.55306500  0.37532400  1
  H  215  1  0.82357600  0.62947000  0.37526600  1
  H  671  1  0.94731100  0.27095700  0.16631300  1
  H  673  1  0.04743300  0.30081600  0.12721300  1
  H  679  1  0.97757000  0.46727400  0.26712600  1
  H  680  1  0.95594500  0.48815500  0.20694300  1
  H  683  1  0.02120200  0.44216000  0.19663400  1
  H  684  1  0.98097600  0.50450600  0.31580900  1
  H  687  1  0.91776800  0.27647200  0.71914800  1
  H  689  1  0.98052300  0.30512700  0.78973000  1
  H  696  1  0.91782500  0.41038000  0.69093000  1
  H  697  1  0.97703200  0.48951900  0.71096100  1
  H  698  1  0.95567700  0.46862800  0.77114200  1
  H  702  1  0.02017300  0.51463800  0.78149500  1
  H  703  1  0.98035700  0.45230500  0.66226600  1
  H  704  1  0.90419000  0.39647900  0.71963800  1
  H  706  1  0.95561100  0.27020800  0.49877700  1
  H  708  1  0.90426300  0.29084500  0.57092500  1
  H  714  1  0.74839700  0.39522800  0.21393700  1
  H  716  1  0.13913900  0.34574300  0.15995600  1
  H  731  1  0.02029700  0.36471300  0.80078400  1
  H  733  1  0.82525300  0.36454400  0.72407900  1
  H  747  1  0.01991600  0.40377100  0.60266600  1
  H  749  1  0.82554700  0.32721600  0.60288900  1
  H  939  1  0.95926300  0.19219000  0.10223000  1
  H  940  1  0.00127600  0.25628100  0.08806600  1
  H  943  1  0.86728500  0.23215000  0.17092800  1
  H  944  1  0.05337200  0.18669700  0.05886400  1
  H  951  1  0.95919500  0.09154700  0.88841900  1
  H  952  1  0.94712600  0.15563400  0.87374000  1
  H  953  1  0.00111300  0.07739000  0.81016400  1
  H  957  1  0.04726000  0.11653700  0.80478500  1
  H  958  1  0.86711900  0.16024200  0.91716000  1
  H  959  1  0.05336100  0.04818200  0.85052700  1
  H  966  1  0.95921500  0.07897400  0.20282700  1
  H  967  1  0.94705900  0.09366600  0.28159700  1
  H  968  1  0.00101400  0.15723500  0.26691700  1
  H  972  1  0.04684600  0.16265500  0.31145400  1
  H  973  1  0.86722900  0.05023100  0.24279200  1
  H  974  1  0.05327000  0.11684900  0.19733900  1
  H  979  1  0.97707200  0.25643200  0.77824900  1
  H  980  1  0.95552900  0.19625400  0.69717600  1
  H  983  1  0.02015400  0.18590200  0.73283500  1
  H  984  1  0.90404400  0.24776100  0.67653700  1
  H  990  1  0.91775800  0.24823000  0.55701400  1
  H  991  1  0.97694100  0.18913200  0.47787400  1
  H  994  1  0.02004000  0.23455900  0.45276400  1
  H  995  1  0.98036600  0.17764700  0.51508600  1
  H  1001  1  0.74817400  0.20330900  0.79715800  1
  H  1003  1  0.13874200  0.14924200  0.79255500  1
  H  1017  1  0.74823100  0.17020100  0.40584600  1
  H  1019  1  0.13864900  0.17485200  0.35638000  1
  H  1033  1  0.15788600  0.14900900  0.18551200  1
  H  1035  1  0.77123100  0.20105500  0.18411300  1
  H  1047  1  0.15801000  0.00420600  0.81833100  1
  H  1057  1  0.15796200  0.17486900  0.01488000  1
  H  1059  1  0.77122200  0.17345500  0.96144500  1
  H  1071  1  0.77124900  0.00595300  0.21172400  1
  H  1081  1  0.02003900  0.16659100  0.56362300  1
  H  1083  1  0.82520700  0.24332600  0.64015800  1
  N  88  1  0.17921900  0.78265100  0.21319200  1
  N  89  1  0.70918500  0.77784100  0.15287600  1
  N  94  1  0.93469400  0.80783000  0.15475200  1
  N  95  1  0.94160000  0.75077900  0.20926700  1
  N  104  1  0.17904800  0.75419900  0.56913300  1
  N  105  1  0.70925600  0.81459500  0.62466600  1
  N  110  1  0.93468300  0.81266400  0.65276400  1
  N  111  1  0.94152800  0.75817900  0.54120200  1
  N  120  1  0.17881300  0.55850700  0.79332300  1
  N  121  1  0.70895800  0.61402700  0.78846800  1
  N  126  1  0.93436400  0.64213200  0.81850500  1
  N  127  1  0.94137300  0.53057300  0.76141100  1
  N  136  1  0.72494200  0.75263800  0.96457600  1
  N  137  1  0.20444000  0.81246900  0.01524800  1
  N  142  1  0.98183400  0.81355400  0.04570700  1
  N  143  1  0.94824000  0.75154400  0.93414800  1
  N  148  1  0.20449200  0.95214700  0.79688200  1
  N  151  1  0.98183200  0.92168700  0.76753000  1
  N  160  1  0.72500200  0.77707200  0.76326700  1
  N  161  1  0.20429600  0.78630100  0.82317300  1
  N  166  1  0.98172100  0.75690500  0.82423300  1
  N  167  1  0.94824100  0.80642600  0.76219400  1
  N  172  1  0.72510800  0.95389800  0.19035500  1
  N  175  1  0.94832300  0.92347700  0.16098000  1
  N  184  1  0.80985200  0.70941200  0.38057600  1
  N  185  1  0.04760500  0.79424400  0.37239500  1
  N  190  1  0.94207600  0.74784400  0.32499800  1
  N  191  1  0.93221500  0.75225700  0.42402900  1
  N  200  1  0.80979000  0.63887700  0.25803200  1
  N  201  1  0.04824100  0.54594500  0.17321000  1
  N  206  1  0.94257100  0.54489200  0.21957200  1
  N  207  1  0.93212200  0.63953900  0.21521800  1
  N  216  1  0.81091000  0.58691700  0.32844300  1
  N  217  1  0.04679500  0.59499400  0.42155100  1
  N  222  1  0.94212300  0.64242900  0.42251200  1
  N  223  1  0.93230800  0.54340300  0.32788100  1
  N  717  1  0.17919900  0.39825600  0.18475100  1
  N  718  1  0.70923400  0.34274500  0.18958300  1
  N  723  1  0.93471300  0.31463400  0.15958000  1
  N  724  1  0.94161600  0.42620200  0.21663800  1
  N  734  1  0.81281400  0.31771000  0.71977100  1
  N  735  1  0.04549400  0.41097100  0.80514200  1
  N  740  1  0.94250800  0.41187400  0.75853100  1
  N  741  1  0.93271100  0.31721000  0.76287800  1
  N  750  1  0.81320200  0.36973700  0.64971700  1
  N  751  1  0.04498800  0.36187000  0.55640100  1
  N  756  1  0.94241600  0.31434500  0.55552700  1
  N  757  1  0.93270000  0.41336500  0.65018600  1
  N  1004  1  0.17874000  0.17404500  0.76484300  1
  N  1005  1  0.70905400  0.17894300  0.82527500  1
  N  1010  1  0.93443600  0.14889400  0.82332500  1
  N  1011  1  0.94132400  0.20598100  0.76885200  1
  N  1020  1  0.17867800  0.20256200  0.40889500  1
  N  1021  1  0.70911100  0.14207900  0.35336300  1
  N  1026  1  0.93442000  0.14406300  0.32526500  1
  N  1027  1  0.94133200  0.19853100  0.43682300  1
  N  1036  1  0.72496400  0.17966100  0.21477300  1
  N  1037  1  0.20435200  0.17045200  0.15489700  1
  N  1042  1  0.98181400  0.19985700  0.15384000  1
  N  1043  1  0.94819800  0.15030400  0.21584500  1
  N  1048  1  0.72488000  0.00281800  0.78776400  1
  N  1051  1  0.94820900  0.03324600  0.81708200  1
  N  1060  1  0.72504300  0.20413500  0.01350000  1
  N  1061  1  0.20434300  0.14423400  0.96282000  1
  N  1066  1  0.98176700  0.14316900  0.93236500  1
  N  1067  1  0.94830700  0.20521200  0.04392300  1
  N  1072  1  0.20425000  0.00458400  0.18108200  1
  N  1075  1  0.98171500  0.03503700  0.21049700  1
  N  1084  1  0.81279500  0.24762500  0.59762900  1
  N  1085  1  0.04519300  0.16223800  0.60552800  1
  N  1089  1  0.94234000  0.20886600  0.65304100  1
  N  1090  1  0.93255400  0.20449500  0.55401800  1
  O  90  1  0.20725100  0.80584400  0.23149400  1
  O  91  1  0.60247500  0.78630200  0.16705100  1
  O  92  1  0.68767000  0.75432900  0.13456400  1
  O  93  1  0.28199400  0.77342500  0.19801300  1
  O  106  1  0.20696500  0.73588700  0.57401600  1
  O  107  1  0.60246500  0.80044100  0.61894900  1
  O  108  1  0.68787700  0.83291500  0.61947200  1
  O  109  1  0.28189500  0.76936100  0.57508900  1
  O  122  1  0.20676900  0.56338400  0.81651600  1
  O  123  1  0.60215400  0.60830100  0.79689400  1
  O  124  1  0.68764000  0.60884300  0.76495800  1
  O  125  1  0.28163700  0.56447000  0.78411800  1
  O  138  1  0.62104600  0.76751000  0.97018600  1
  O  139  1  0.30816600  0.79755300  0.00961300  1
  O  140  1  0.22871900  0.82970000  0.00865500  1
  O  141  1  0.70085600  0.73541600  0.97118900  1
  O  149  1  0.30817600  0.95778100  0.78758900  1
  O  150  1  0.22884600  0.95873900  0.82070100  1
  O  162  1  0.62105200  0.78632800  0.77812400  1
  O  163  1  0.30808700  0.77702800  0.80827400  1
  O  164  1  0.22847900  0.81013000  0.84040300  1
  O  165  1  0.70098600  0.75323300  0.74604700  1
  O  173  1  0.62110800  0.95949700  0.18111000  1
  O  174  1  0.70118100  0.96051800  0.21419800  1
  O  186  1  0.68349300  0.70651400  0.37487500  1
  O  187  1  0.96734200  0.80555000  0.36411700  1
  O  188  1  0.15375000  0.78675900  0.35797900  1
  O  189  1  0.87038100  0.68768100  0.36582300  1
  O  202  1  0.68344200  0.63604100  0.26091100  1
  O  203  1  0.96813100  0.52634000  0.16188100  1
  O  204  1  0.15441000  0.53903900  0.18071300  1
  O  205  1  0.87026900  0.64586000  0.27976700  1
  O  218  1  0.68461300  0.59267000  0.33119200  1
  O  219  1  0.96621500  0.60328500  0.44108900  1
  O  220  1  0.15304300  0.60938200  0.42854400  1
  O  221  1  0.87193200  0.60164500  0.32149300  1
  O  719  1  0.20719700  0.39336600  0.16155700  1
  O  720  1  0.60249700  0.34846100  0.18112900  1
  O  721  1  0.68775800  0.34794600  0.21309500  1
  O  722  1  0.28199500  0.39230200  0.19397100  1
  O  725  1  0.87462600  0.26921700  0.61232000  1
  O  736  1  0.68661700  0.32037600  0.71660600  1
  O  737  1  0.96438100  0.43043600  0.81628000  1
  O  738  1  0.15195900  0.41807100  0.79790900  1
  O  739  1  0.87457600  0.31080700  0.69817400  1
  O  752  1  0.68703500  0.36388700  0.64707800  1
  O  753  1  0.96371700  0.35353600  0.53696000  1
  O  754  1  0.15149400  0.34755200  0.54927300  1
  O  755  1  0.87518400  0.35505600  0.65661100  1
  O  1006  1  0.20659700  0.15084800  0.74652500  1
  O  1007  1  0.60223300  0.17051500  0.81112900  1
  O  1008  1  0.68773700  0.20245800  0.84360000  1
  O  1009  1  0.28163700  0.18324200  0.77999500  1
  O  1022  1  0.20648600  0.22088100  0.40401700  1
  O  1023  1  0.60220800  0.15620400  0.35908500  1
  O  1024  1  0.68795300  0.12374900  0.35854900  1
  O  1025  1  0.28158800  0.18741300  0.40293700  1
  O  1038  1  0.62103000  0.17041100  0.19991100  1
  O  1039  1  0.30812400  0.17972000  0.16980200  1
  O  1040  1  0.22855000  0.14662800  0.13766200  1
  O  1041  1  0.70095400  0.20349800  0.23199800  1
  O  1049  1  0.62102200  0.99720700  0.79703500  1
  O  1050  1  0.70073200  0.99620200  0.76392900  1
  O  1062  1  0.62109400  0.18927800  0.00790000  1
  O  1063  1  0.30812400  0.15913400  0.96844300  1
  O  1064  1  0.22854700  0.12700600  0.96941900  1
  O  1065  1  0.70102600  0.22135500  0.00687900  1
  O  1073  1  0.30808300  0.99896100  0.19034800  1
  O  1074  1  0.22837600  0.99798800  0.15725400  1
  O  1086  1  0.68661000  0.25080500  0.60346600  1
  O  1087  1  0.96402700  0.15111000  0.61385600  1
  O  1088  1  0.15166300  0.16945900  0.61985700  1
