# generated using pymatgen
data_H9(C9N2)2
_symmetry_space_group_name_H-M   'P 1'
_cell_length_a   29.30880000
_cell_length_b   33.39485952
_cell_length_c   33.39300000
_cell_angle_alpha   119.99847409
_cell_angle_beta   90.00000000
_cell_angle_gamma   90.56709729
_symmetry_Int_Tables_number   1
_chemical_formula_structural   H9(C9N2)2
_chemical_formula_sum   'H108 C216 N48'
_cell_volume   28303.62367496
_cell_formula_units_Z   12
loop_
 _symmetry_equiv_pos_site_id
 _symmetry_equiv_pos_as_xyz
  1  'x, y, z'
loop_
 _atom_site_type_symbol
 _atom_site_label
 _atom_site_symmetry_multiplicity
 _atom_site_fract_x
 _atom_site_fract_y
 _atom_site_fract_z
 _atom_site_occupancy
  H  9  1  0.87315400  0.93715700  0.54465500  1
  H  17  1  0.13969000  0.10069600  0.62162700  1
  H  19  1  0.09896700  0.94070400  0.54318600  1
  H  20  1  0.03009600  0.89863900  0.52941700  1
  H  21  1  0.98357600  0.13865300  0.65316500  1
  H  22  1  0.91442500  0.09648500  0.62788200  1
  H  35  1  0.20313400  0.45838000  0.39325600  1
  H  43  1  0.46924900  0.38594400  0.48024400  1
  H  45  1  0.42892400  0.46352600  0.39845900  1
  H  46  1  0.36012400  0.47597600  0.36989200  1
  H  47  1  0.31319900  0.35178300  0.48651600  1
  H  48  1  0.24405000  0.37623700  0.46985100  1
  H  61  1  0.53688500  0.61390600  0.06714300  1
  H  69  1  0.80166600  0.52505000  0.90572600  1
  H  71  1  0.76251100  0.60707900  0.06542300  1
  H  72  1  0.69423700  0.63606300  0.10694900  1
  H  73  1  0.64564100  0.51958900  0.86648200  1
  H  74  1  0.57672900  0.53678800  0.90812100  1
  H  87  1  0.37315900  0.06913900  0.45796700  1
  H  95  1  0.63728100  0.90800500  0.38328700  1
  H  97  1  0.59892100  0.06766200  0.46114200  1
  H  98  1  0.53064400  0.10913900  0.47416400  1
  H  99  1  0.48084700  0.86862200  0.35035600  1
  H  100  1  0.41220700  0.91019800  0.37543000  1
  H  113  1  0.70484900  0.54801200  0.61149000  1
  H  121  1  0.97218900  0.62194500  0.52508100  1
  H  123  1  0.93059800  0.54416000  0.60681500  1
  H  124  1  0.86159700  0.53120800  0.63510700  1
  H  125  1  0.81659100  0.65489200  0.51816300  1
  H  126  1  0.74710500  0.63022300  0.53485300  1
  H  139  1  0.03547200  0.39404800  0.93706100  1
  H  147  1  0.30129500  0.48344100  0.10023500  1
  H  149  1  0.26118200  0.40141000  0.94034800  1
  H  150  1  0.19254900  0.37235600  0.89841100  1
  H  151  1  0.14506500  0.48831800  0.13852300  1
  H  152  1  0.07602200  0.47085600  0.09645400  1
  H  167  1  0.68198700  0.07444700  0.46956600  1
  H  168  1  0.69890100  0.15509200  0.50850600  1
  H  169  1  0.76074000  0.18672900  0.56421000  1
  H  170  1  0.80566200  0.13751800  0.58069400  1
  H  172  1  0.85381800  0.08597600  0.58144600  1
  H  174  1  0.68932400  0.94579500  0.43727100  1
  H  185  1  0.01304400  0.53578400  0.60587600  1
  H  186  1  0.02710300  0.49599700  0.64704900  1
  H  187  1  0.08688400  0.43913000  0.62261000  1
  H  188  1  0.13262500  0.42234400  0.55709100  1
  H  190  1  0.18207100  0.42116700  0.50502200  1
  H  192  1  0.02376100  0.56857300  0.50998700  1
  H  203  1  0.34338400  0.40142500  0.93386400  1
  H  204  1  0.35705000  0.35982500  0.85284600  1
  H  205  1  0.41712800  0.38427100  0.81978100  1
  H  206  1  0.46357100  0.45019400  0.86796500  1
  H  208  1  0.51399600  0.50205100  0.91850900  1
  H  210  1  0.35423500  0.49840000  0.06204700  1
  H  221  1  0.18153600  0.93440600  0.53701800  1
  H  222  1  0.19504000  0.85341800  0.49717300  1
  H  223  1  0.25458000  0.82086200  0.43973000  1
  H  224  1  0.30065200  0.86949200  0.42246100  1
  H  226  1  0.35061800  0.92033800  0.42110000  1
  H  228  1  0.19250100  0.06283000  0.56910300  1
  H  239  1  0.51178800  0.47242100  0.39992000  1
  H  240  1  0.52769600  0.51126600  0.35801700  1
  H  241  1  0.58957200  0.56719800  0.38179300  1
  H  242  1  0.63554100  0.58400500  0.44740400  1
  H  244  1  0.68470700  0.58506200  0.49961900  1
  H  246  1  0.52105600  0.44036600  0.49641700  1
  H  257  1  0.84486400  0.60583800  0.07241100  1
  H  258  1  0.86030100  0.64738400  0.15326000  1
  H  259  1  0.92088400  0.62331500  0.18556900  1
  H  260  1  0.96604000  0.55779300  0.13680800  1
  H  262  1  0.01482000  0.50592000  0.08578700  1
  H  264  1  0.85347300  0.50944800  0.94384500  1
  H  275  1  0.91986000  0.65192900  0.43324300  1
  H  276  1  0.90688000  0.64400600  0.35875200  1
  H  277  1  0.90071800  0.71181200  0.35051300  1
  H  278  1  0.90778100  0.78772700  0.41666200  1
  H  280  1  0.89311200  0.85660000  0.49054900  1
  H  282  1  0.96134900  0.70129700  0.54704700  1
  H  293  1  0.25005900  0.57292600  0.22165900  1
  H  294  1  0.23963900  0.64724900  0.28894300  1
  H  295  1  0.23455800  0.65481100  0.36481800  1
  H  296  1  0.24019300  0.58813600  0.37368800  1
  H  298  1  0.22381900  0.51396700  0.36827000  1
  H  300  1  0.28837600  0.45835100  0.15559300  1
  H  311  1  0.58269300  0.78684600  0.35258500  1
  H  312  1  0.56939300  0.72014500  0.36032300  1
  H  313  1  0.56370800  0.64392100  0.29246500  1
  H  314  1  0.57161000  0.63412400  0.21668000  1
  H  316  1  0.55754900  0.63878100  0.14740000  1
  H  318  1  0.62461200  0.85202100  0.30348900  1
  H  329  1  0.41945800  0.35455200  0.56998900  1
  H  330  1  0.41048800  0.36244200  0.64490100  1
  H  331  1  0.40673800  0.29466500  0.65353900  1
  H  332  1  0.41228900  0.21880400  0.58733300  1
  H  334  1  0.39501700  0.14940800  0.51371000  1
  H  336  1  0.45611500  0.30514000  0.45443500  1
  H  347  1  0.74937800  0.43510900  0.78438800  1
  H  348  1  0.73769800  0.36051300  0.71735900  1
  H  349  1  0.73271600  0.35238300  0.64123100  1
  H  350  1  0.73970400  0.41877000  0.63185900  1
  H  352  1  0.72464300  0.49265600  0.63673300  1
  H  354  1  0.78971600  0.54983100  0.85008100  1
  H  365  1  0.08845300  0.22239300  0.65169100  1
  H  366  1  0.07679600  0.28925100  0.64412700  1
  H  367  1  0.06908400  0.36491300  0.71214200  1
  H  368  1  0.07326000  0.37402000  0.78792600  1
  H  370  1  0.05611200  0.36814800  0.85631900  1
  H  372  1  0.12745900  0.15780100  0.70102900  1
  C  1  1  0.98587500  0.00600500  0.58132100  1
  C  2  1  0.98621300  0.95673300  0.55866900  1
  C  3  1  0.94445800  0.93152700  0.54781800  1
  C  4  1  0.90327400  0.95549900  0.55478100  1
  C  5  1  0.90265600  0.00371900  0.57333300  1
  C  6  1  0.94359900  0.02976500  0.59082400  1
  C  7  1  0.02857700  0.93397200  0.54658700  1
  C  8  1  0.94405900  0.07848400  0.61736700  1
  C  10  1  0.02785900  0.03154000  0.59356500  1
  C  11  1  0.07004600  0.00783700  0.57798500  1
  C  12  1  0.11104600  0.03349100  0.58476600  1
  C  13  1  0.11007000  0.08197600  0.61402500  1
  C  14  1  0.06945500  0.10577500  0.63448900  1
  C  15  1  0.02757600  0.08076200  0.62065300  1
  C  16  1  0.06943300  0.95895700  0.55423900  1
  C  18  1  0.98514200  0.10339500  0.63358000  1
  C  27  1  0.31570800  0.42325100  0.42523300  1
  C  28  1  0.31614200  0.44593500  0.39862900  1
  C  29  1  0.27442800  0.45623200  0.38435500  1
  C  30  1  0.23322000  0.44861500  0.40136800  1
  C  31  1  0.23251500  0.42988400  0.43088800  1
  C  32  1  0.27340400  0.41312100  0.43953400  1
  C  33  1  0.35855100  0.45874500  0.38802000  1
  C  34  1  0.27375200  0.38689500  0.46204200  1
  C  36  1  0.35764000  0.41178000  0.43865100  1
  C  37  1  0.39985500  0.42819500  0.43069700  1
  C  38  1  0.44074000  0.42239900  0.44992600  1
  C  39  1  0.43967200  0.39304500  0.46906100  1
  C  40  1  0.39910800  0.37158800  0.47202700  1
  C  41  1  0.35725400  0.38472300  0.46083300  1
  C  42  1  0.39935400  0.45185000  0.40548200  1
  C  44  1  0.31479300  0.37124400  0.47067800  1
  C  53  1  0.64901900  0.58096000  0.99921500  1
  C  54  1  0.64986500  0.60761400  0.04849800  1
  C  55  1  0.60838300  0.62221300  0.07337500  1
  C  56  1  0.56687400  0.60549100  0.04906000  1
  C  57  1  0.56570100  0.57584600  0.00085100  1
  C  58  1  0.60648300  0.56692700  0.97510600  1
  C  59  1  0.69240800  0.61801300  0.07160000  1
  C  60  1  0.60652000  0.54440400  0.92636900  1
  C  62  1  0.69073600  0.56726300  0.97400700  1
  C  63  1  0.73302700  0.57499300  0.99805700  1
  C  64  1  0.77358000  0.55560900  0.97272600  1
  C  65  1  0.77228400  0.53642500  0.92423700  1
  C  66  1  0.73173700  0.53356900  0.90010900  1
  C  67  1  0.69005000  0.54505000  0.92477000  1
  C  68  1  0.73287300  0.60019800  0.04693400  1
  C  70  1  0.64746300  0.53551800  0.90177200  1
  C  79  1  0.48495200  0.00135900  0.42184900  1
  C  80  1  0.48597900  0.05064400  0.44450600  1
  C  81  1  0.44455500  0.07546200  0.45516600  1
  C  82  1  0.40305600  0.05110000  0.44802800  1
  C  83  1  0.40179300  0.00288300  0.42943200  1
  C  84  1  0.44235400  0.97719300  0.41213400  1
  C  85  1  0.52865500  0.07378900  0.45687500  1
  C  86  1  0.44212200  0.92846200  0.38580300  1
  C  88  1  0.52657000  0.97619100  0.40998000  1
  C  89  1  0.56905500  0.00028500  0.42605500  1
  C  90  1  0.60958800  0.97497000  0.41993700  1
  C  91  1  0.60795300  0.92648900  0.39057000  1
  C  92  1  0.56714400  0.90232800  0.36946000  1
  C  93  1  0.52560100  0.92695300  0.38291600  1
  C  94  1  0.56913700  0.04916100  0.44970900  1
  C  96  1  0.48287000  0.90391400  0.36973300  1
  C  105  1  0.81801000  0.58346700  0.57946400  1
  C  106  1  0.81808500  0.56085800  0.60613500  1
  C  107  1  0.77621100  0.55040100  0.62038700  1
  C  108  1  0.73510100  0.55780100  0.60331000  1
  C  109  1  0.73469200  0.57635700  0.57364400  1
  C  110  1  0.77585300  0.59335500  0.56507700  1
  C  111  1  0.86029400  0.54836000  0.61690800  1
  C  112  1  0.77662100  0.61965200  0.54264700  1
  C  114  1  0.86013000  0.59522000  0.56618000  1
  C  115  1  0.90210000  0.57917800  0.57435500  1
  C  116  1  0.94312100  0.58539300  0.55540900  1
  C  117  1  0.94250700  0.61467900  0.53619100  1
  C  118  1  0.90221200  0.63560800  0.53281100  1
  C  119  1  0.86017100  0.62221700  0.54393800  1
  C  120  1  0.90120600  0.55551700  0.59956900  1
  C  122  1  0.81790800  0.63544800  0.53400900  1
  C  131  1  0.14785900  0.42733000  0.00585500  1
  C  132  1  0.14842400  0.40071300  0.95658600  1
  C  133  1  0.10679900  0.38596100  0.93142200  1
  C  134  1  0.06548700  0.40251100  0.95541400  1
  C  135  1  0.06461300  0.43207100  0.00365900  1
  C  136  1  0.10547100  0.44117100  0.02966600  1
  C  137  1  0.19087300  0.39048200  0.93374700  1
  C  138  1  0.10574200  0.46354200  0.07840200  1
  C  140  1  0.18973800  0.44109900  0.03132500  1
  C  141  1  0.23200200  0.43341500  0.00753700  1
  C  142  1  0.27287600  0.45275700  0.03309700  1
  C  143  1  0.27173600  0.47201700  0.08158200  1
  C  144  1  0.23108600  0.47478600  0.10545800  1
  C  145  1  0.18927300  0.46324400  0.08055200  1
  C  146  1  0.23160000  0.40822800  0.95866500  1
  C  148  1  0.14674800  0.47260600  0.10325800  1
  C  157  1  0.79794000  0.04372700  0.54220600  1
  C  158  1  0.77041400  0.07451900  0.53493900  1
  C  159  1  0.73248100  0.05597700  0.50327400  1
  C  160  1  0.72319300  0.00748800  0.48084400  1
  C  163  1  0.70719600  0.08634500  0.49385400  1
  C  164  1  0.71741600  0.13384100  0.51600600  1
  C  165  1  0.75329200  0.15212100  0.54811800  1
  C  166  1  0.77965700  0.12275500  0.55732300  1
  C  171  1  0.83876000  0.05429300  0.56815500  1
  C  173  1  0.68758700  0.98077700  0.45058600  1
  C  175  1  0.12800400  0.46158700  0.50238900  1
  C  176  1  0.09989400  0.46903400  0.54030200  1
  C  177  1  0.06311000  0.50137600  0.55359900  1
  C  178  1  0.05544800  0.52427100  0.52783800  1
  C  181  1  0.03736600  0.51100200  0.59331800  1
  C  182  1  0.04593300  0.48835300  0.61835100  1
  C  183  1  0.08063500  0.45557800  0.60431700  1
  C  184  1  0.10749200  0.44618700  0.56585000  1
  C  189  1  0.16811500  0.43511300  0.48694800  1
  C  191  1  0.02097900  0.55501500  0.53140700  1
  C  193  1  0.45950400  0.50535500  0.96188800  1
  C  194  1  0.43091600  0.46727700  0.93171900  1
  C  195  1  0.39386700  0.45406800  0.95110300  1
  C  196  1  0.38632300  0.48020400  0.99975900  1
  C  199  1  0.36778800  0.41403800  0.92135100  1
  C  200  1  0.37615100  0.38872100  0.87364600  1
  C  201  1  0.41103400  0.40275100  0.85454500  1
  C  202  1  0.43830400  0.44145400  0.88329700  1
  C  207  1  0.50000300  0.52053700  0.95044300  1
  C  209  1  0.35147800  0.47687500  0.02706900  1
  C  211  1  0.29667800  0.96345600  0.46170700  1
  C  212  1  0.26832500  0.93302900  0.46938000  1
  C  213  1  0.23160900  0.95212200  0.50197200  1
  C  214  1  0.22420400  0.00077000  0.52481200  1
  C  217  1  0.20572200  0.92210400  0.51194700  1
  C  218  1  0.21399300  0.87441800  0.48929900  1
  C  219  1  0.24855900  0.85561100  0.45620100  1
  C  220  1  0.27560700  0.88462300  0.44651700  1
  C  225  1  0.33670400  0.95226400  0.43485300  1
  C  227  1  0.18959800  0.02782700  0.55547000  1
  C  229  1  0.62905400  0.54568500  0.50287700  1
  C  230  1  0.60089400  0.53823600  0.46488900  1
  C  231  1  0.56295000  0.50642500  0.45193900  1
  C  232  1  0.55428300  0.48404700  0.47810800  1
  C  235  1  0.53703800  0.49681400  0.41219600  1
  C  236  1  0.54666100  0.51890900  0.38673500  1
  C  237  1  0.58255700  0.55115600  0.40040100  1
  C  238  1  0.60953700  0.56055200  0.43892000  1
  C  243  1  0.67002400  0.57172600  0.51805300  1
  C  245  1  0.51886500  0.45363500  0.47472300  1
  C  247  1  0.95989200  0.50270700  0.04291900  1
  C  248  1  0.93214400  0.54061700  0.07342600  1
  C  249  1  0.89487600  0.55367700  0.05447300  1
  C  250  1  0.88634900  0.52764200  0.00588300  1
  C  253  1  0.86951000  0.59342000  0.08458100  1
  C  254  1  0.87888300  0.61868300  0.13220300  1
  C  255  1  0.91404600  0.60486200  0.15086900  1
  C  256  1  0.94055800  0.56639400  0.12177000  1
  C  261  1  0.00038500  0.48757300  0.05385400  1
  C  263  1  0.85134400  0.53102700  0.97881900  1
  C  265  1  0.92262100  0.81029800  0.50622100  1
  C  266  1  0.91729400  0.76586000  0.46615200  1
  C  267  1  0.92071000  0.72569800  0.47099800  1
  C  268  1  0.92866000  0.73195800  0.51578700  1
  C  271  1  0.91691200  0.68126400  0.43108700  1
  C  272  1  0.90944300  0.67627500  0.38726600  1
  C  273  1  0.90585300  0.71554000  0.38250300  1
  C  274  1  0.90983900  0.75991300  0.42152700  1
  C  279  1  0.91827700  0.85238600  0.50798800  1
  C  281  1  0.93458700  0.69800300  0.52721800  1
  C  283  1  0.25217300  0.49866600  0.30580400  1
  C  284  1  0.24766700  0.53902700  0.30196900  1
  C  285  1  0.25040600  0.53456800  0.25705300  1
  C  286  1  0.25682600  0.48984400  0.21808000  1
  C  289  1  0.24753400  0.57478500  0.25306700  1
  C  290  1  0.24156200  0.61851700  0.29232400  1
  C  291  1  0.23859200  0.62289200  0.33625500  1
  C  292  1  0.24171300  0.58356200  0.34108000  1
  C  297  1  0.24845200  0.49656900  0.34603300  1
  C  299  1  0.26236300  0.47872000  0.17269300  1
  C  301  1  0.58692400  0.70124100  0.19430500  1
  C  302  1  0.58106900  0.70563400  0.23864700  1
  C  303  1  0.58413700  0.75076400  0.27883500  1
  C  304  1  0.59226100  0.78938000  0.27266100  1
  C  307  1  0.57990500  0.75529300  0.32320400  1
  C  308  1  0.57225500  0.71637500  0.32809400  1
  C  309  1  0.56893200  0.67224500  0.28880000  1
  C  310  1  0.57340500  0.66687500  0.24449600  1
  C  315  1  0.58285400  0.66077100  0.15216600  1
  C  317  1  0.59806800  0.83494300  0.30659900  1
  C  319  1  0.42277800  0.19627600  0.49734200  1
  C  320  1  0.41832200  0.24066300  0.53744400  1
  C  321  1  0.42023600  0.28079600  0.53234400  1
  C  322  1  0.42575000  0.27452300  0.48725600  1
  C  325  1  0.41746900  0.32520500  0.57229500  1
  C  326  1  0.41233700  0.33018300  0.61637300  1
  C  327  1  0.41013600  0.29093700  0.62136900  1
  C  328  1  0.41321100  0.24659200  0.58231900  1
  C  333  1  0.41948600  0.15419100  0.49588200  1
  C  335  1  0.43052400  0.30842800  0.47545700  1
  C  337  1  0.75324700  0.50846700  0.69938400  1
  C  338  1  0.74792400  0.46826900  0.70351400  1
  C  339  1  0.75060300  0.47305700  0.74857600  1
  C  340  1  0.75776500  0.51794100  0.78739300  1
  C  343  1  0.74691400  0.43300900  0.75286500  1
  C  344  1  0.74020200  0.38912000  0.71376100  1
  C  345  1  0.73729500  0.38441800  0.66968300  1
  C  346  1  0.74122600  0.42357700  0.66456000  1
  C  351  1  0.74958600  0.51026000  0.65899000  1
  C  353  1  0.76332700  0.52938500  0.83289300  1
  C  355  1  0.08624400  0.30661000  0.81006100  1
  C  356  1  0.08259900  0.30263700  0.76570700  1
  C  357  1  0.08695200  0.25786000  0.72541600  1
  C  358  1  0.09414700  0.21917900  0.73148200  1
  C  361  1  0.08483600  0.25372000  0.68108800  1
  C  362  1  0.07814400  0.29272100  0.67631700  1
  C  363  1  0.07365400  0.33652800  0.71570400  1
  C  364  1  0.07593900  0.34149100  0.75999100  1
  C  369  1  0.08126200  0.34670600  0.85220400  1
  C  371  1  0.10082000  0.17401900  0.69741700  1
  N  23  1  0.86289700  0.01883200  0.56553500  1
  N  24  1  0.94380700  0.88688800  0.53545800  1
  N  25  1  0.07021800  0.15079900  0.66649100  1
  N  26  1  0.14906700  0.01134900  0.56071900  1
  N  49  1  0.19297800  0.43758600  0.45421600  1
  N  50  1  0.27370600  0.46882000  0.35224600  1
  N  51  1  0.40017600  0.33955300  0.48500900  1
  N  52  1  0.47875800  0.44728200  0.45216500  1
  N  75  1  0.52554300  0.55300900  0.98549600  1
  N  76  1  0.60820900  0.65439100  0.11805300  1
  N  77  1  0.73257300  0.52062000  0.85509100  1
  N  78  1  0.81148300  0.55338200  0.99513900  1
  N  101  1  0.36195300  0.98744400  0.43729100  1
  N  102  1  0.44424400  0.12011500  0.46756900  1
  N  103  1  0.56759400  0.85729700  0.33742800  1
  N  104  1  0.64779400  0.99732800  0.44457000  1
  N  127  1  0.69479300  0.56898700  0.55066900  1
  N  128  1  0.77530700  0.53803300  0.65266300  1
  N  129  1  0.90345100  0.66749900  0.51963400  1
  N  130  1  0.98075700  0.56083000  0.55341200  1
  N  153  1  0.02488500  0.45486700  0.01865300  1
  N  154  1  0.10644500  0.35383800  0.88674900  1
  N  155  1  0.23193900  0.48756100  0.15043600  1
  N  156  1  0.31097800  0.45484700  0.01082600  1
  N  161  1  0.75161300  0.98171200  0.49053700  1
  N  162  1  0.78597000  0.99833700  0.51867900  1
  N  179  1  0.08430000  0.51439100  0.49251100  1
  N  180  1  0.11765600  0.48566700  0.48087500  1
  N  197  1  0.41557900  0.51572100  0.02492400  1
  N  198  1  0.44924700  0.52720300  0.00753100  1
  N  215  1  0.25326100  0.02619900  0.51472300  1
  N  216  1  0.28659100  0.00906200  0.48579400  1
  N  233  1  0.58324900  0.49394000  0.51351700  1
  N  234  1  0.61761300  0.52220300  0.52486400  1
  N  251  1  0.91489200  0.49230000  0.98040000  1
  N  252  1  0.94871300  0.48089800  0.99739100  1
  N  269  1  0.93333100  0.77573400  0.55162200  1
  N  270  1  0.93026400  0.81213900  0.54718600  1
  N  287  1  0.26080300  0.45372000  0.22555400  1
  N  288  1  0.25837300  0.45779900  0.26630400  1
  N  305  1  0.59738900  0.78139000  0.22896100  1
  N  306  1  0.59464900  0.74045100  0.19254600  1
  N  323  1  0.42972600  0.23078100  0.45141800  1
  N  324  1  0.42805400  0.19440900  0.45608300  1
  N  341  1  0.76247700  0.55389300  0.77964500  1
  N  342  1  0.76010200  0.54951300  0.73876100  1
  N  359  1  0.09720200  0.22673600  0.77520000  1
  N  360  1  0.09328800  0.26737200  0.81172500  1
