# generated using pymatgen
data_H20C37O4
_symmetry_space_group_name_H-M   'P 1'
_cell_length_a   19.41900000
_cell_length_b   38.56788407
_cell_length_c   38.56788407
_cell_angle_alpha   86.36624271
_cell_angle_beta   75.41885363
_cell_angle_gamma   75.41885363
_symmetry_Int_Tables_number   1
_chemical_formula_structural   H20C37O4
_chemical_formula_sum   'H160 C296 O32'
_cell_volume   27054.69238636
_cell_formula_units_Z   8
loop_
 _symmetry_equiv_pos_site_id
 _symmetry_equiv_pos_as_xyz
  1  'x, y, z'
loop_
 _atom_site_type_symbol
 _atom_site_label
 _atom_site_symmetry_multiplicity
 _atom_site_fract_x
 _atom_site_fract_y
 _atom_site_fract_z
 _atom_site_occupancy
  C  1  1  0.89052000  0.92160950  0.92501950  1
  C  2  1  0.94175950  0.92461050  0.89263750  1
  C  3  1  0.91963300  0.91464350  0.86440350  1
  C  4  1  0.85172000  0.90629000  0.87753900  1
  C  5  1  0.81502150  0.89898300  0.85238300  1
  C  6  1  0.84792750  0.89972400  0.81503800  1
  C  7  1  0.91792150  0.90703250  0.80312050  1
  C  8  1  0.95390950  0.91479100  0.82769500  1
  C  9  1  0.00186400  0.93941000  0.88994300  1
  C  10  1  0.01028800  0.95312650  0.92075050  1
  C  11  1  0.95939050  0.95236600  0.95411300  1
  C  12  1  0.89947100  0.93628800  0.95616400  1
  C  13  1  0.75432700  0.91304800  0.93690400  1
  C  14  1  0.73030450  0.88144050  0.94594050  1
  C  15  1  0.78843050  0.85203100  0.93812600  1
  C  16  1  0.85302500  0.86333700  0.92462800  1
  C  17  1  0.78676750  0.81581950  0.94249750  1
  C  18  1  0.85282550  0.78982700  0.93363100  1
  C  19  1  0.92042450  0.79961600  0.92131900  1
  C  20  1  0.92004350  0.83652900  0.91574700  1
  C  21  1  0.70059450  0.94596050  0.94669350  1
  C  22  1  0.62618500  0.94602100  0.96447500  1
  C  23  1  0.60611750  0.91301700  0.97178000  1
  C  24  1  0.65769850  0.88067650  0.96265650  1
  C  37  1  0.83523950  0.90315850  0.91769750  1
  C  38  1  0.74231100  0.56825600  0.57490700  1
  C  39  1  0.76422450  0.56512650  0.60728450  1
  C  40  1  0.70387700  0.57481000  0.63555800  1
  C  41  1  0.64071100  0.58328850  0.62244550  1
  C  42  1  0.57157000  0.59056350  0.64762550  1
  C  43  1  0.56799450  0.58970800  0.68495600  1
  C  44  1  0.63338050  0.58232550  0.69686850  1
  C  45  1  0.70166650  0.57457300  0.67226700  1
  C  46  1  0.83643650  0.55024600  0.60993500  1
  C  47  1  0.88939750  0.53671850  0.57906450  1
  C  48  1  0.87107450  0.53764900  0.54569200  1
  C  49  1  0.79704550  0.55364350  0.54372250  1
  C  50  1  0.60936800  0.57683100  0.56304400  1
  C  51  1  0.56265000  0.60848400  0.55418300  1
  C  52  1  0.58340400  0.63785850  0.56220150  1
  C  53  1  0.64594250  0.62648250  0.57558550  1
  C  54  1  0.54984550  0.67409100  0.55797100  1
  C  55  1  0.58117300  0.70004050  0.56682650  1
  C  56  1  0.64640900  0.69016300  0.57899300  1
  C  57  1  0.67740250  0.65323850  0.58446950  1
  C  58  1  0.59841100  0.54397050  0.55307450  1
  C  59  1  0.54170200  0.54399650  0.53535850  1
  C  60  1  0.49579850  0.57703800  0.52824400  1
  C  61  1  0.50589000  0.60933100  0.53751200  1
  C  74  1  0.66120000  0.58662400  0.58230500  1
  C  75  1  0.81711700  0.92016450  0.57351250  1
  C  76  1  0.87153600  0.88785150  0.57058150  1
  C  77  1  0.83957700  0.85952450  0.58018050  1
  C  78  1  0.76327650  0.87255950  0.58835450  1
  C  79  1  0.71947100  0.84730900  0.59540600  1
  C  80  1  0.75339400  0.80999100  0.59443600  1
  C  81  1  0.83066650  0.79816300  0.58732900  1
  C  82  1  0.87420850  0.82283050  0.57987050  1
  C  83  1  0.94638450  0.88524700  0.55570900  1
  C  84  1  0.96836450  0.91612300  0.54210700  1
  C  85  1  0.91655300  0.94943150  0.54285650  1
  C  86  1  0.84056300  0.95136050  0.55884750  1
  C  87  1  0.67238850  0.93195500  0.58191300  1
  C  88  1  0.61667850  0.94079450  0.61352450  1
  C  89  1  0.64528000  0.93275800  0.64294800  1
  C  90  1  0.72117400  0.91927150  0.63166050  1
  C  91  1  0.60734400  0.93697000  0.67916100  1
  C  92  1  0.64738250  0.92806650  0.70516150  1
  C  93  1  0.72480450  0.91594400  0.69538200  1
  C  94  1  0.76142350  0.91051900  0.65846300  1
  C  95  1  0.65165700  0.94198650  0.54901550  1
  C  96  1  0.57732950  0.95983550  0.54897850  1
  C  97  1  0.52415700  0.96689450  0.58197250  1
  C  98  1  0.54332750  0.95756100  0.61429700  1
  C  111  1  0.74341950  0.91269250  0.59177150  1
  C  112  1  0.31554950  0.56986550  0.92676150  1
  C  113  1  0.33440100  0.60224550  0.92977250  1
  C  114  1  0.28390750  0.63048750  0.91991150  1
  C  115  1  0.22919050  0.61734550  0.91149850  1
  C  116  1  0.16738250  0.64250950  0.90414650  1
  C  117  1  0.16303700  0.67984200  0.90485800  1
  C  118  1  0.22117650  0.69177600  0.91206700  1
  C  119  1  0.28163050  0.66719100  0.91992100  1
  C  120  1  0.39171150  0.60495550  0.94464050  1
  C  121  1  0.43099450  0.57413850  0.95832050  1
  C  122  1  0.41354450  0.54076650  0.95750050  1
  C  123  1  0.35569650  0.53871200  0.94140800  1
  C  124  1  0.19121650  0.55798850  0.91820250  1
  C  125  1  0.17614800  0.54902200  0.88659100  1
  C  126  1  0.22637400  0.55690200  0.85718100  1
  C  127  1  0.27757400  0.57031250  0.86849250  1
  C  128  1  0.22901900  0.55258200  0.82096700  1
  C  129  1  0.28625650  0.56141100  0.79497700  1
  C  130  1  0.34165150  0.57362500  0.80477400  1
  C  131  1  0.33574400  0.57917200  0.84168700  1
  C  132  1  0.14737300  0.54812350  0.95110550  1
  C  133  1  0.09063700  0.53041850  0.95115350  1
  C  134  1  0.07762750  0.52329150  0.91815250  1
  C  135  1  0.12006300  0.53244150  0.88581850  1
  C  148  1  0.25292400  0.57719350  0.90832250  1
  C  149  1  0.10440350  0.06826950  0.07480950  1
  C  150  1  0.05319350  0.06519250  0.10717850  1
  C  151  1  0.07561350  0.07487200  0.13544900  1
  C  152  1  0.14358650  0.08317850  0.12233750  1
  C  153  1  0.18006600  0.09062900  0.14753000  1
  C  154  1  0.14704950  0.08989650  0.18485650  1
  C  155  1  0.07702100  0.08262800  0.19675600  1
  C  156  1  0.04119700  0.07478550  0.17214650  1
  C  157  1  0.99332650  0.05021900  0.10986000  1
  C  158  1  0.98467100  0.03674300  0.07898500  1
  C  159  1  0.03543700  0.03766800  0.04561100  1
  C  160  1  0.09546400  0.05364600  0.04363300  1
  C  161  1  0.24065300  0.07679400  0.06290900  1
  C  162  1  0.26460200  0.10844000  0.05401900  1
  C  163  1  0.20649350  0.13782700  0.06209000  1
  C  164  1  0.14193850  0.12647350  0.07552550  1
  C  165  1  0.20809800  0.17405550  0.05789550  1
  C  166  1  0.14200800  0.20001950  0.06684750  1
  C  167  1  0.07445150  0.19017250  0.07904150  1
  C  168  1  0.07487900  0.15324550  0.08448950  1
  C  169  1  0.29440000  0.04392550  0.05293350  1
  C  170  1  0.36880450  0.04392950  0.03520750  1
  C  171  1  0.38880200  0.07696050  0.02805050  1
  C  172  1  0.33717900  0.10926650  0.03731050  1
  C  185  1  0.15979050  0.08660700  0.08220600  1
  C  186  1  0.25267800  0.42143400  0.42514200  1
  C  187  1  0.23073050  0.42437750  0.39278850  1
  C  188  1  0.29104450  0.41457400  0.36451500  1
  C  189  1  0.35423450  0.40635650  0.37760850  1
  C  190  1  0.42336050  0.39923900  0.35241300  1
  C  191  1  0.42687650  0.40008750  0.31508650  1
  C  192  1  0.36150550  0.40717850  0.30319050  1
  C  193  1  0.29323600  0.41478200  0.32781000  1
  C  194  1  0.15845250  0.43906250  0.39014150  1
  C  195  1  0.10553100  0.45275400  0.42096800  1
  C  196  1  0.12390900  0.45209000  0.45430000  1
  C  197  1  0.19794000  0.43613300  0.45629300  1
  C  198  1  0.38550750  0.41305950  0.43701850  1
  C  199  1  0.43218500  0.38147900  0.44605600  1
  C  200  1  0.41155000  0.35203100  0.43813900  1
  C  201  1  0.34932550  0.36326950  0.42450850  1
  C  202  1  0.44514050  0.31583450  0.44252150  1
  C  203  1  0.41409550  0.28980200  0.43360600  1
  C  204  1  0.34899850  0.29952950  0.42130550  1
  C  205  1  0.31790850  0.33643600  0.41575400  1
  C  206  1  0.39637450  0.44599600  0.44684700  1
  C  207  1  0.45275800  0.44609750  0.46473650  1
  C  208  1  0.49870750  0.41312750  0.47197950  1
  C  209  1  0.48874400  0.38076850  0.46282150  1
  C  222  1  0.33381500  0.40312950  0.41775750  1
  C  223  1  0.17766200  0.06992850  0.42665650  1
  C  224  1  0.12345850  0.10232250  0.42960150  1
  C  225  1  0.15565550  0.13054000  0.41978400  1
  C  226  1  0.23191400  0.11736700  0.41139900  1
  C  227  1  0.27597100  0.14250150  0.40407250  1
  C  228  1  0.24239400  0.17985100  0.40477200  1
  C  229  1  0.16510750  0.19180000  0.41199800  1
  C  230  1  0.12130100  0.16725200  0.41983500  1
  C  231  1  0.04857450  0.10505650  0.44450950  1
  C  232  1  0.02634150  0.07425250  0.45816350  1
  C  233  1  0.07796700  0.04088800  0.45743800  1
  C  234  1  0.15398050  0.03880500  0.44136900  1
  C  235  1  0.32245050  0.05795950  0.41810250  1
  C  236  1  0.37803950  0.04889250  0.38648550  1
  C  237  1  0.34934050  0.05679750  0.35708050  1
  C  238  1  0.27344950  0.07032550  0.36839850  1
  C  239  1  0.38720250  0.05244750  0.32086750  1
  C  240  1  0.34713150  0.06135900  0.29488000  1
  C  241  1  0.26974400  0.07365750  0.30468350  1
  C  242  1  0.23322250  0.07923800  0.34159800  1
  C  243  1  0.34331600  0.04819450  0.45100650  1
  C  244  1  0.41767050  0.03040100  0.45104000  1
  C  245  1  0.47073550  0.02312550  0.41803350  1
  C  246  1  0.45145650  0.03224950  0.38570350  1
  C  259  1  0.25143850  0.07721750  0.40822850  1
  C  260  1  0.67925200  0.42000400  0.07340000  1
  C  261  1  0.66030550  0.38765200  0.07037600  1
  C  262  1  0.71096700  0.35937000  0.08006400  1
  C  263  1  0.76594550  0.37246500  0.08827900  1
  C  264  1  0.82766750  0.34726800  0.09567600  1
  C  265  1  0.83202600  0.30994350  0.09485450  1
  C  266  1  0.77393900  0.29804600  0.08754700  1
  C  267  1  0.71337050  0.32266400  0.07984500  1
  C  268  1  0.60304300  0.38498900  0.05545100  1
  C  269  1  0.56377400  0.41584100  0.04181700  1
  C  270  1  0.58124650  0.44920150  0.04269450  1
  C  271  1  0.63917800  0.45118600  0.05875800  1
  C  272  1  0.80357450  0.43190350  0.08192850  1
  C  273  1  0.81856500  0.44085450  0.11356950  1
  C  274  1  0.76851400  0.43280850  0.14296150  1
  C  275  1  0.71759550  0.41921050  0.13161650  1
  C  276  1  0.76577550  0.43712700  0.17918700  1
  C  277  1  0.70859050  0.42821800  0.20514800  1
  C  278  1  0.65332350  0.41594500  0.19530200  1
  C  279  1  0.65931700  0.41039350  0.15838250  1
  C  280  1  0.84741900  0.44181800  0.04904900  1
  C  281  1  0.90402200  0.45959450  0.04905450  1
  C  282  1  0.91687800  0.46676250  0.08207550  1
  C  283  1  0.87444450  0.45756100  0.11438500  1
  C  296  1  0.74203250  0.41259050  0.09174050  1
  C  593  1  0.95861600  0.03076950  0.00616150  1
  C  594  1  0.93220800  0.00799050  0.98823050  1
  C  595  1  0.97037000  0.97158300  0.98190400  1
  C  596  1  0.03614900  0.95937850  0.99350550  1
  C  597  1  0.06255000  0.98213450  0.01147250  1
  C  598  1  0.02432250  0.01853950  0.01778350  1
  C  605  1  0.00075550  0.45921900  0.49373300  1
  C  606  1  0.93366800  0.48203950  0.51164550  1
  C  607  1  0.92908750  0.51848150  0.51789050  1
  C  608  1  0.99432850  0.53060650  0.50622350  1
  C  609  1  0.06142400  0.50779850  0.48830750  1
  C  610  1  0.06596050  0.47138400  0.48206300  1
  C  617  1  0.99416200  0.00146250  0.46451150  1
  C  618  1  0.94498100  0.98352500  0.48728800  1
  C  619  1  0.94668300  0.97728100  0.52371300  1
  C  620  1  0.00011200  0.98897400  0.53592100  1
  C  621  1  0.04928800  0.00689550  0.51311950  1
  C  622  1  0.04770450  0.01313450  0.47667550  1
  C  629  1  0.46501100  0.48866450  0.03581250  1
  C  630  1  0.42065600  0.50662500  0.01305100  1
  C  631  1  0.45247850  0.51295250  0.97663250  1
  C  632  1  0.52983950  0.50133900  0.96441900  1
  C  633  1  0.57422100  0.48337300  0.98716700  1
  C  634  1  0.54234800  0.47704750  0.02356850  1
  C  641  1  0.53263700  0.48599250  0.46420850  1
  C  642  1  0.56336500  0.50492450  0.48404650  1
  C  643  1  0.52880750  0.51402700  0.52043200  1
  C  644  1  0.46185500  0.50426050  0.53557050  1
  C  645  1  0.43111600  0.48529950  0.51576750  1
  C  646  1  0.46577350  0.47620150  0.47938250  1
  C  653  1  0.48821600  0.00419700  0.03537500  1
  C  654  1  0.55768700  0.98523800  0.01553100  1
  C  655  1  0.56837200  0.97608350  0.97917550  1
  C  656  1  0.50679100  0.98581300  0.96407300  1
  C  657  1  0.43734750  0.00477650  0.98393550  1
  C  658  1  0.42655550  0.01393950  0.02029050  1
  C  665  1  0.49720400  0.03085100  0.49088600  1
  C  666  1  0.54771750  0.01100900  0.50984500  1
  C  667  1  0.54959250  0.97460550  0.51895550  1
  C  668  1  0.49780800  0.95950800  0.50911300  1
  C  669  1  0.44725400  0.97932600  0.49016500  1
  C  670  1  0.44546950  0.01572100  0.48108900  1
  C  677  1  0.02383500  0.45932900  0.00922600  1
  C  678  1  0.07337300  0.47921800  0.99027300  1
  C  679  1  0.04772350  0.51559350  0.98117850  1
  C  680  1  0.97100050  0.53063750  0.99099950  1
  C  681  1  0.92147700  0.51073950  0.00995550  1
  C  682  1  0.94711000  0.47434900  0.01905000  1
  C  785  1  0.74478450  0.93977550  0.74797550  1
  C  786  1  0.76861150  0.93527850  0.77981350  1
  C  787  1  0.80883400  0.90129700  0.78845000  1
  C  788  1  0.82770300  0.87281850  0.76377250  1
  C  789  1  0.80345100  0.87735000  0.73180500  1
  C  790  1  0.76086400  0.91104150  0.72378350  1
  C  797  1  0.43829950  0.54972650  0.75232950  1
  C  798  1  0.48936250  0.55419550  0.72044050  1
  C  799  1  0.50385050  0.58823750  0.71156350  1
  C  800  1  0.46929650  0.61678400  0.73613100  1
  C  801  1  0.41769950  0.61229300  0.76814800  1
  C  802  1  0.40124200  0.57853550  0.77639950  1
  C  809  1  0.69170600  0.74218100  0.55465200  1
  C  810  1  0.71102750  0.77408350  0.55890650  1
  C  811  1  0.71599550  0.78335100  0.59293400  1
  C  812  1  0.70516750  0.75912750  0.62174250  1
  C  813  1  0.68546550  0.72708950  0.61747450  1
  C  814  1  0.67792000  0.71847400  0.58370100  1
  C  821  1  0.99332350  0.74709400  0.94505000  1
  C  822  1  0.04890700  0.71522400  0.94048700  1
  C  823  1  0.09737650  0.70644050  0.90641250  1
  C  824  1  0.09123850  0.73108250  0.87793250  1
  C  825  1  0.03509700  0.76307950  0.88252050  1
  C  826  1  0.98494100  0.77123850  0.91630850  1
  C  833  1  0.24927400  0.04979600  0.25225800  1
  C  834  1  0.22560900  0.05429400  0.22037600  1
  C  835  1  0.18602300  0.08834650  0.21148150  1
  C  836  1  0.16760050  0.11688350  0.23605650  1
  C  837  1  0.19169650  0.11237400  0.26806600  1
  C  838  1  0.23359300  0.07859800  0.27631800  1
  C  845  1  0.55619700  0.44005400  0.24748100  1
  C  846  1  0.50508400  0.43568200  0.27938300  1
  C  847  1  0.49098950  0.40159900  0.28847000  1
  C  848  1  0.52589850  0.37288600  0.26413300  1
  C  849  1  0.57753050  0.37729400  0.23210200  1
  C  850  1  0.59363050  0.41110000  0.22363800  1
  C  857  1  0.30538050  0.24682550  0.44495650  1
  C  858  1  0.28613800  0.21498850  0.44035950  1
  C  859  1  0.27996400  0.20642400  0.40633400  1
  C  860  1  0.28948050  0.23119650  0.37794150  1
  C  861  1  0.30912050  0.26315900  0.38257300  1
  C  862  1  0.31800750  0.27109600  0.41629300  1
  C  869  1  0.00153600  0.24240900  0.05496400  1
  C  870  1  0.94598100  0.27428850  0.05934750  1
  C  871  1  0.89760450  0.28331800  0.09340200  1
  C  872  1  0.90373400  0.25889650  0.12205450  1
  C  873  1  0.95982400  0.22688550  0.11765150  1
  C  874  1  0.00991300  0.21850850  0.08388150  1
  H  25  1  0.55384750  0.91196000  0.98515000  1
  H  26  1  0.64218900  0.85725150  0.96950750  1
  H  27  1  0.73889900  0.80802950  0.95188350  1
  H  28  1  0.85093150  0.76348950  0.93703050  1
  H  29  1  0.96824700  0.84393950  0.90590450  1
  H  30  1  0.71590100  0.96960850  0.94154850  1
  H  31  1  0.76423300  0.89395650  0.86118550  1
  H  32  1  0.94122500  0.90920050  0.77634850  1
  H  33  1  0.00286500  0.92162550  0.81855750  1
  H  34  1  0.86173050  0.93596250  0.97995050  1
  H  35  1  0.03718550  0.94205700  0.86589800  1
  H  36  1  0.05253700  0.96535350  0.91801950  1
  H  62  1  0.45572450  0.57816600  0.51493100  1
  H  63  1  0.47355750  0.63279000  0.53089500  1
  H  64  1  0.50356800  0.68192950  0.54859450  1
  H  65  1  0.55649800  0.72639400  0.56339200  1
  H  66  1  0.72337750  0.64578500  0.59414900  1
  H  67  1  0.63233800  0.52029750  0.55806550  1
  H  68  1  0.52451700  0.59570400  0.63884600  1
  H  69  1  0.63213350  0.58018200  0.72363600  1
  H  70  1  0.74835800  0.56783500  0.68137300  1
  H  71  1  0.78272050  0.55404150  0.51993850  1
  H  72  1  0.85033500  0.54739300  0.63399000  1
  H  73  1  0.94111800  0.52440900  0.58178000  1
  H  99  1  0.47080650  0.98023650  0.58304650  1
  H  100  1  0.50428400  0.96416550  0.63773050  1
  H  101  1  0.55167850  0.94632500  0.68694300  1
  H  102  1  0.61911100  0.93138450  0.73149850  1
  H  103  1  0.81708250  0.90085600  0.65105600  1
  H  104  1  0.69064950  0.93696250  0.52536950  1
  H  105  1  0.66364850  0.85603100  0.60037900  1
  H  106  1  0.85629950  0.77140950  0.58516550  1
  H  107  1  0.93002000  0.81378300  0.57327500  1
  H  108  1  0.80237650  0.97509800  0.55912100  1
  H  109  1  0.98447200  0.86124300  0.55307700  1
  H  110  1  0.02283800  0.91346550  0.52991750  1
  H  136  1  0.03871500  0.50993500  0.91708000  1
  H  137  1  0.11128750  0.52567900  0.86239000  1
  H  138  1  0.19049450  0.54323100  0.81317600  1
  H  139  1  0.28775550  0.55802300  0.76863800  1
  H  140  1  0.37421250  0.58892650  0.84909950  1
  H  141  1  0.15762400  0.55319300  0.97475400  1
  H  142  1  0.12538950  0.63371900  0.89911100  1
  H  143  1  0.21772250  0.71854250  0.91424950  1
  H  144  1  0.32149850  0.67632000  0.92671400  1
  H  145  1  0.34179650  0.51491600  0.94104600  1
  H  146  1  0.40290500  0.62900900  0.94734200  1
  H  147  1  0.47048850  0.57687050  0.97056450  1
  H  173  1  0.44106050  0.07807400  0.01471700  1
  H  174  1  0.35269050  0.13271850  0.03067750  1
  H  175  1  0.25592750  0.18187850  0.04850150  1
  H  176  1  0.14380950  0.22636900  0.06345700  1
  H  177  1  0.02667200  0.14580300  0.09418600  1
  H  178  1  0.27914800  0.02025750  0.05797950  1
  H  179  1  0.23079750  0.09572500  0.13876100  1
  H  180  1  0.05364900  0.08045600  0.22351700  1
  H  181  1  0.99208100  0.06810150  0.18124550  1
  H  182  1  0.13319300  0.05401900  0.01985000  1
  H  183  1  0.95810700  0.04746650  0.13390450  1
  H  184  1  0.94253200  0.02444300  0.08169800  1
  H  210  1  0.53864800  0.41210950  0.48535050  1
  H  211  1  0.52102050  0.35736000  0.46957800  1
  H  212  1  0.49134300  0.30808350  0.45196650  1
  H  213  1  0.43901700  0.26347850  0.43700250  1
  H  214  1  0.27208400  0.34381400  0.40595300  1
  H  215  1  0.36252550  0.46962750  0.44169050  1
  H  216  1  0.47040450  0.39432200  0.36117700  1
  H  217  1  0.36274900  0.40931850  0.27642450  1
  H  218  1  0.24652650  0.42143400  0.31871900  1
  H  219  1  0.21230550  0.43590650  0.48004750  1
  H  220  1  0.14446550  0.44168400  0.36611400  1
  H  221  1  0.05374600  0.46492300  0.41825800  1
  H  247  1  0.52409000  0.00979450  0.41696350  1
  H  248  1  0.49038950  0.02543350  0.36227250  1
  H  249  1  0.44285000  0.04301800  0.31306900  1
  H  250  1  0.37533900  0.05791600  0.26854200  1
  H  251  1  0.17760500  0.08905650  0.34901350  1
  H  252  1  0.30439550  0.05335900  0.47466400  1
  H  253  1  0.33178600  0.13367400  0.39904700  1
  H  254  1  0.13964950  0.21857500  0.41411800  1
  H  255  1  0.06551250  0.17640550  0.42652450  1
  H  256  1  0.19202850  0.01501900  0.44109700  1
  H  257  1  0.01064250  0.12911550  0.44714750  1
  H  258  1  0.97188200  0.07702650  0.47044950  1
  H  284  1  0.95584500  0.48007500  0.08317800  1
  H  285  1  0.88331550  0.46420950  0.13783350  1
  H  286  1  0.80411900  0.44660100  0.18700600  1
  H  287  1  0.70694450  0.43165800  0.23149700  1
  H  288  1  0.62084650  0.40066050  0.15094150  1
  H  289  1  0.83730900  0.43670250  0.02538050  1
  H  290  1  0.86964450  0.35603250  0.10075950  1
  H  291  1  0.77729200  0.27128350  0.08540950  1
  H  292  1  0.67332950  0.31357550  0.07317650  1
  H  293  1  0.65317250  0.47495900  0.05911400  1
  H  294  1  0.59185600  0.36095000  0.05268200  1
  H  295  1  0.52428250  0.41314500  0.02955500  1
  H  599  1  0.06674950  0.93365800  0.98795800  1
  H  601  1  0.92797100  0.05647400  0.01175900  1
  H  603  1  0.83029250  0.01600000  0.99284700  1
  H  604  1  0.16447100  0.97409450  0.00685550  1
  H  611  1  0.99373050  0.55632450  0.51173950  1
  H  613  1  0.00135100  0.43349450  0.48823950  1
  H  615  1  0.84437900  0.47399000  0.50706900  1
  H  616  1  0.15068050  0.51586600  0.49290200  1
  H  623  1  0.00498300  0.98345350  0.56164550  1
  H  625  1  0.98930950  0.00696250  0.43878150  1
  H  627  1  0.85114850  0.98806150  0.47921650  1
  H  628  1  0.14312450  0.00233100  0.52120300  1
  H  635  1  0.55486900  0.50692200  0.93870800  1
  H  637  1  0.43997950  0.48307750  0.06152550  1
  H  639  1  0.32334600  0.50201150  0.02108150  1
  H  640  1  0.67153500  0.48797300  0.97915400  1
  H  647  1  0.43343100  0.51207450  0.56116350  1
  H  649  1  0.56113550  0.47808800  0.43865400  1
  H  651  1  0.66553750  0.50044500  0.47505700  1
  H  652  1  0.32897300  0.48968850  0.52469550  1
  H  659  1  0.51167700  0.97790400  0.93852800  1
  H  661  1  0.48335200  0.01207600  0.06092900  1
  H  663  1  0.64650200  0.98973950  0.02437350  1
  H  664  1  0.34858100  0.00026050  0.97504850  1
  H  671  1  0.49489450  0.93393650  0.51695650  1
  H  673  1  0.50012100  0.05641800  0.48302200  1
  H  675  1  0.64088400  0.02001300  0.50539100  1
  H  676  1  0.35405700  0.97034950  0.49462450  1
  H  683  1  0.95025150  0.55619550  0.98315350  1
  H  685  1  0.04457550  0.43377450  0.01707750  1
  H  687  1  0.17105850  0.47031700  0.99474600  1
  H  688  1  0.82381400  0.51965300  0.00544300  1
  H  791  1  0.86015650  0.84860650  0.76877050  1
  H  793  1  0.71449050  0.96450300  0.74271500  1
  H  795  1  0.78986800  0.97757100  0.79199900  1
  H  796  1  0.86840250  0.84611650  0.69543050  1
  H  803  1  0.48228450  0.64104100  0.73099900  1
  H  805  1  0.42772900  0.52495800  0.75772200  1
  H  807  1  0.56520550  0.51189950  0.70848050  1
  H  808  1  0.41459150  0.64371300  0.80444700  1
  H  815  1  0.71244850  0.76453900  0.64604300  1
  H  817  1  0.68689500  0.73653550  0.52988650  1
  H  819  1  0.77578950  0.78552800  0.51667600  1
  H  820  1  0.71748800  0.69090200  0.64924700  1
  H  827  1  0.12843250  0.72601900  0.85365500  1
  H  829  1  0.95805600  0.75242400  0.96984400  1
  H  831  1  0.08272800  0.70314000  0.98269400  1
  H  832  1  0.06338950  0.79940450  0.85112650  1
  H  839  1  0.13558050  0.14116600  0.23092000  1
  H  841  1  0.27916350  0.02501150  0.25764750  1
  H  843  1  0.20377400  0.01207000  0.20841100  1
  H  844  1  0.12721650  0.14385650  0.30434650  1
  H  851  1  0.51317500  0.34858450  0.26943950  1
  H  853  1  0.56657800  0.46484350  0.24192550  1
  H  855  1  0.42888750  0.47788850  0.29102250  1
  H  856  1  0.58139700  0.34563550  0.19586550  1
  H  863  1  0.28122450  0.22626300  0.35371500  1
  H  865  1  0.31087700  0.25203100  0.46971400  1
  H  867  1  0.22262900  0.20268750  0.48261150  1
  H  868  1  0.27529400  0.29951700  0.35134300  1
  H  875  1  0.86659000  0.26413800  0.14633000  1
  H  877  1  0.03681500  0.23691450  0.03019350  1
  H  879  1  0.91226050  0.28600150  0.01707350  1
  H  880  1  0.93189600  0.19059950  0.14919750  1
  O  600  1  0.87177100  0.02249200  0.97554500  1
  O  602  1  0.12298150  0.96761950  0.02416250  1
  O  612  1  0.87504150  0.46754450  0.52437650  1
  O  614  1  0.12007000  0.52227350  0.47557050  1
  O  624  1  0.89914550  0.97077500  0.47277000  1
  O  626  1  0.09514700  0.01963700  0.52762900  1
  O  636  1  0.34753550  0.51930600  0.02757600  1
  O  638  1  0.64734150  0.47068900  0.97264200  1
  O  648  1  0.62444950  0.51591150  0.46657550  1
  O  650  1  0.37003450  0.47432050  0.53327450  1
  O  660  1  0.61235700  0.97431400  0.03297200  1
  O  662  1  0.38265900  0.01573050  0.96651450  1
  O  672  1  0.59129500  0.02850300  0.52083400  1
  O  674  1  0.40365250  0.96182600  0.47919700  1
  O  684  1  0.14548250  0.46180050  0.97927950  1
  O  686  1  0.84936600  0.52816400  0.02092400  1
  O  792  1  0.75225400  0.96418950  0.80165250  1
  O  794  1  0.81812700  0.84852050  0.71016750  1
  O  804  1  0.52394000  0.52520300  0.69872900  1
  O  806  1  0.38165300  0.64119650  0.78964750  1
  O  816  1  0.72466050  0.79546700  0.52971600  1
  O  818  1  0.67007000  0.70596050  0.64659150  1
  O  828  1  0.05461700  0.69345000  0.96942700  1
  O  830  1  0.02783850  0.78465250  0.85367550  1
  O  840  1  0.24161950  0.02530150  0.19867950  1
  O  842  1  0.17748500  0.14128000  0.28954300  1
  O  852  1  0.47011800  0.46478100  0.30089900  1
  O  854  1  0.61396700  0.34828000  0.21081500  1
  O  864  1  0.27364000  0.19308200  0.46922200  1
  O  866  1  0.32320600  0.28487950  0.35380350  1
  O  876  1  0.94026300  0.29585650  0.03026950  1
  O  878  1  0.96711750  0.20553400  0.14663700  1
