# generated using pymatgen
data_H24C39(N2O)4
_symmetry_space_group_name_H-M   'P 1'
_cell_length_a   39.67871511
_cell_length_b   39.68014617
_cell_length_c   39.67728369
_cell_angle_alpha   70.53172654
_cell_angle_beta   70.53743263
_cell_angle_gamma   109.48282141
_symmetry_Int_Tables_number   1
_chemical_formula_structural   H24C39(N2O)4
_chemical_formula_sum   'H144 C234 N48 O24'
_cell_volume   48089.56989815
_cell_formula_units_Z   6
loop_
 _symmetry_equiv_pos_site_id
 _symmetry_equiv_pos_as_xyz
  1  'x, y, z'
loop_
 _atom_site_type_symbol
 _atom_site_label
 _atom_site_symmetry_multiplicity
 _atom_site_fract_x
 _atom_site_fract_y
 _atom_site_fract_z
 _atom_site_occupancy
  C  1  1  0.77891050  0.21072000  0.48712350  1
  C  2  1  0.74927900  0.19206100  0.47781600  1
  C  3  1  0.74790050  0.22214850  0.44906400  1
  C  4  1  0.77578100  0.26110700  0.43979000  1
  C  5  1  0.78031350  0.29666450  0.40969400  1
  C  6  1  0.75741150  0.29255200  0.38882750  1
  C  7  1  0.72849650  0.25231200  0.40045750  1
  C  8  1  0.72362750  0.21708300  0.43033850  1
  C  9  1  0.72554550  0.14905850  0.49654000  1
  C  10  1  0.73089400  0.12409250  0.52645450  1
  C  11  1  0.75944550  0.14143100  0.53812150  1
  C  12  1  0.78437950  0.18520400  0.51724950  1
  C  13  1  0.84371200  0.27979150  0.43630550  1
  C  14  1  0.86287050  0.30840350  0.44638400  1
  C  15  1  0.83269550  0.30442700  0.48051150  1
  C  16  1  0.79402300  0.27516050  0.49058650  1
  C  17  1  0.83635600  0.32258600  0.50503900  1
  C  18  1  0.80060150  0.31004150  0.54081100  1
  C  19  1  0.76072550  0.28087250  0.55172000  1
  C  20  1  0.75821700  0.26405200  0.52542600  1
  C  21  1  0.86744050  0.27896650  0.40135600  1
  C  22  1  0.91049400  0.30795100  0.37494300  1
  C  23  1  0.92871900  0.33693250  0.38585350  1
  C  24  1  0.90551450  0.33676100  0.42174250  1
  C  37  1  0.79807450  0.25666350  0.46345000  1
  C  38  1  0.72460400  0.26389200  0.59042200  1
  C  39  1  0.93215450  0.31074150  0.33611500  1
  C  40  1  0.76052800  0.32691850  0.35816750  1
  C  41  1  0.76309350  0.11393950  0.56887700  1
  C  46  1  0.38012750  0.86242000  0.43675350  1
  C  47  1  0.40793950  0.88100750  0.44791000  1
  C  48  1  0.40656200  0.85086950  0.47936450  1
  C  49  1  0.37697850  0.81193500  0.49027450  1
  C  50  1  0.37153200  0.77633550  0.52122850  1
  C  51  1  0.39643150  0.78038550  0.54010800  1
  C  52  1  0.42492600  0.82059600  0.52896300  1
  C  53  1  0.43026050  0.85586500  0.49867350  1
  C  54  1  0.43215850  0.92400250  0.42878000  1
  C  55  1  0.42730350  0.94903450  0.39841900  1
  C  56  1  0.39843650  0.93177150  0.38703400  1
  C  57  1  0.37556250  0.88800600  0.40577250  1
  C  58  1  0.36188100  0.79337600  0.44093000  1
  C  59  1  0.32320750  0.76478800  0.45032550  1
  C  60  1  0.29303700  0.76874500  0.47652100  1
  C  61  1  0.31219550  0.79797050  0.48598500  1
  C  62  1  0.25035700  0.75058750  0.49098450  1
  C  63  1  0.22712700  0.76318250  0.51412050  1
  C  64  1  0.24536050  0.79234100  0.52485150  1
  C  65  1  0.28844250  0.80907650  0.51066600  1
  C  66  1  0.39768850  0.79434700  0.41622750  1
  C  67  1  0.39517750  0.76549650  0.40198100  1
  C  68  1  0.35529150  0.73649550  0.41273900  1
  C  69  1  0.31954050  0.73654200  0.43590350  1
  C  82  1  0.35783350  0.81646600  0.46347750  1
  C  83  1  0.22368100  0.80944150  0.54381550  1
  C  84  1  0.43128350  0.76288350  0.38289800  1
  C  85  1  0.39278350  0.74596900  0.57124050  1
  C  86  1  0.39532500  0.95934250  0.35580050  1
  C  91  1  0.60488850  0.33888200  0.13756750  1
  C  92  1  0.59397100  0.36688250  0.11887750  1
  C  93  1  0.56250050  0.36556500  0.14893750  1
  C  94  1  0.55138700  0.33588350  0.18790950  1
  C  95  1  0.52035100  0.33044450  0.22344150  1
  C  96  1  0.50158400  0.35543650  0.21929350  1
  C  97  1  0.51295700  0.38405250  0.17903950  1
  C  98  1  0.54333600  0.38938950  0.14383450  1
  C  99  1  0.61327050  0.39115350  0.07587300  1
  C  100  1  0.64358550  0.38619000  0.05093450  1
  C  101  1  0.65476250  0.35717050  0.06830600  1
  C  102  1  0.63589750  0.33428050  0.11208100  1
  C  103  1  0.60057900  0.32067300  0.20665600  1
  C  104  1  0.59110650  0.28199150  0.23529400  1
  C  105  1  0.56484850  0.25181900  0.23137650  1
  C  106  1  0.55553400  0.27100250  0.20202350  1
  C  107  1  0.55034900  0.20913750  0.24955050  1
  C  108  1  0.52715400  0.18588950  0.23700150  1
  C  109  1  0.51643150  0.20410650  0.20783400  1
  C  110  1  0.53078500  0.24723300  0.19096900  1
  C  111  1  0.62531100  0.35648350  0.20567650  1
  C  112  1  0.63945550  0.35395050  0.23460500  1
  C  113  1  0.62860300  0.31406350  0.26367550  1
  C  114  1  0.60538100  0.27830800  0.26365900  1
  C  127  1  0.57809550  0.31664300  0.18350350  1
  C  128  1  0.49734950  0.18237750  0.19081900  1
  C  129  1  0.65860050  0.39008600  0.23715750  1
  C  130  1  0.47035700  0.35178200  0.25363400  1
  C  131  1  0.68588500  0.35385850  0.04085250  1
  C  136  1  0.55418650  0.73747800  0.78933650  1
  C  137  1  0.56347850  0.70782900  0.80796750  1
  C  138  1  0.59224400  0.70648550  0.77786250  1
  C  139  1  0.60153750  0.73440400  0.73891350  1
  C  140  1  0.63167650  0.73899950  0.70334400  1
  C  141  1  0.65255350  0.71611150  0.70743300  1
  C  142  1  0.64090300  0.68715850  0.74766050  1
  C  143  1  0.61098150  0.68222850  0.78290300  1
  C  144  1  0.54475100  0.68407000  0.85096700  1
  C  145  1  0.51485150  0.68941500  0.87595250  1
  C  146  1  0.50320650  0.71799550  0.85863900  1
  C  147  1  0.52408900  0.74295500  0.81487200  1
  C  148  1  0.60499350  0.80230750  0.72029600  1
  C  149  1  0.59488450  0.82148000  0.69172850  1
  C  150  1  0.56078200  0.79130100  0.69565900  1
  C  151  1  0.55072250  0.75262450  0.72489400  1
  C  152  1  0.53617200  0.79495850  0.67760350  1
  C  153  1  0.50040650  0.75919350  0.69012900  1
  C  154  1  0.48954400  0.71931950  0.71924050  1
  C  155  1  0.51588650  0.71681000  0.73599250  1
  C  156  1  0.63984900  0.82605900  0.72124400  1
  C  157  1  0.66618250  0.86914800  0.69237750  1
  C  158  1  0.65522600  0.88740300  0.66346300  1
  C  159  1  0.61942200  0.86415850  0.66352050  1
  C  172  1  0.57786350  0.75667200  0.74339250  1
  C  173  1  0.45084800  0.68318300  0.73623300  1
  C  174  1  0.70497350  0.89083950  0.68966500  1
  C  175  1  0.68329300  0.71933050  0.67305150  1
  C  176  1  0.47250500  0.72168450  0.88614750  1
  C  181  1  0.30251050  0.56024100  0.26562750  1
  C  182  1  0.26356800  0.55092200  0.29358500  1
  C  183  1  0.23344550  0.52218600  0.29221850  1
  C  184  1  0.25206100  0.51293000  0.26252600  1
  C  185  1  0.22650550  0.48284750  0.25703600  1
  C  186  1  0.18273600  0.46200350  0.28196850  1
  C  187  1  0.16544250  0.47360900  0.31059350  1
  C  188  1  0.19044750  0.50345750  0.31598700  1
  C  189  1  0.25855000  0.56963950  0.31786750  1
  C  190  1  0.29380450  0.59953550  0.31295700  1
  C  191  1  0.33402550  0.61120500  0.28397350  1
  C  192  1  0.33809550  0.59035100  0.26105550  1
  C  193  1  0.31647300  0.50942250  0.24736350  1
  C  194  1  0.34567900  0.51947350  0.20868050  1
  C  195  1  0.34966950  0.55362550  0.17852300  1
  C  196  1  0.32111300  0.56373700  0.19770400  1
  C  197  1  0.37795700  0.57822750  0.13586750  1
  C  198  1  0.37803550  0.61404000  0.11263750  1
  C  199  1  0.34908450  0.62496400  0.13087950  1
  C  200  1  0.32019850  0.59861550  0.17396000  1
  C  201  1  0.30542650  0.47461700  0.28316750  1
  C  202  1  0.32222250  0.44831300  0.28064450  1
  C  203  1  0.35133000  0.45919700  0.24075800  1
  C  204  1  0.36382250  0.49494300  0.20500650  1
  C  217  1  0.29800800  0.53658700  0.24333700  1
  C  218  1  0.35174400  0.66371100  0.10918200  1
  C  219  1  0.30529300  0.40965200  0.31678400  1
  C  220  1  0.15521250  0.43134650  0.27823600  1
  C  221  1  0.36842900  0.64193800  0.28074900  1
  C  226  1  0.85336600  0.50994250  0.66430650  1
  C  227  1  0.89232900  0.52103300  0.63463400  1
  C  228  1  0.92241050  0.55250700  0.63330250  1
  C  229  1  0.90374550  0.56346750  0.66127000  1
  C  230  1  0.92925900  0.59447650  0.66586450  1
  C  231  1  0.97303200  0.61332500  0.64297500  1
  C  232  1  0.99037550  0.60210650  0.61398500  1
  C  233  1  0.96541600  0.57178900  0.60903000  1
  C  234  1  0.89740700  0.50186050  0.61081250  1
  C  235  1  0.86218600  0.47151300  0.61612500  1
  C  236  1  0.82194150  0.46018000  0.64471750  1
  C  237  1  0.81781500  0.47893700  0.66972400  1
  C  238  1  0.83930650  0.51413050  0.72916400  1
  C  239  1  0.81000700  0.52349800  0.74835400  1
  C  240  1  0.80604300  0.54970200  0.71819000  1
  C  241  1  0.83464950  0.55914800  0.67951250  1
  C  242  1  0.77783500  0.56416850  0.72185950  1
  C  243  1  0.77782250  0.58739850  0.68610700  1
  C  244  1  0.80683550  0.59819050  0.64622000  1
  C  245  1  0.83566650  0.58392250  0.64370200  1
  C  246  1  0.85043850  0.48946700  0.75290250  1
  C  247  1  0.83369800  0.47525300  0.79599100  1
  C  248  1  0.80450800  0.48593100  0.81424500  1
  C  249  1  0.79189850  0.50905700  0.79102550  1
  C  262  1  0.85780350  0.53667200  0.68352850  1
  C  263  1  0.80425350  0.61731050  0.61009600  1
  C  264  1  0.85081550  0.45629750  0.81767100  1
  C  265  1  0.00051900  0.64449050  0.64623150  1
  C  266  1  0.78758400  0.42900500  0.64832800  1
  C  541  1  0.73689800  0.31682400  0.61244300  1
  C  542  1  0.75241900  0.35432300  0.57703600  1
  C  543  1  0.76924850  0.39226800  0.57648350  1
  C  544  1  0.76916150  0.39148300  0.61276350  1
  C  548  1  0.78580450  0.43144200  0.53860850  1
  C  556  1  0.14868900  0.75663400  0.58440600  1
  C  557  1  0.14655350  0.71915050  0.60651700  1
  C  558  1  0.10912000  0.68121900  0.62775900  1
  C  559  1  0.07363800  0.68199850  0.62702150  1
  C  563  1  0.10776600  0.64206150  0.65054750  1
  C  571  1  0.41901150  0.72843650  0.34235800  1
  C  572  1  0.40353900  0.74835250  0.32033550  1
  C  573  1  0.38676050  0.73211000  0.29917150  1
  C  574  1  0.38683800  0.69591450  0.29987250  1
  C  578  1  0.37026050  0.75346200  0.27650150  1
  C  586  1  0.00713300  0.34506250  0.31397650  1
  C  587  1  0.00919350  0.32506350  0.34937700  1
  C  588  1  0.04657850  0.34123250  0.34996100  1
  C  589  1  0.08209450  0.37744950  0.31373100  1
  C  593  1  0.04784750  0.31978750  0.38782200  1
  C  601  1  0.45683550  0.10740700  0.24365750  1
  C  602  1  0.43470950  0.10525550  0.28114700  1
  C  603  1  0.41355850  0.06784950  0.31907900  1
  C  604  1  0.41437650  0.03240100  0.31829150  1
  C  608  1  0.39076800  0.06648100  0.35824600  1
  C  616  1  0.42873850  0.69542000  0.68336750  1
  C  617  1  0.46416300  0.71098900  0.64586500  1
  C  618  1  0.46469850  0.72778200  0.60792750  1
  C  619  1  0.42839600  0.72763150  0.60871850  1
  C  623  1  0.50259100  0.74438250  0.56874850  1
  C  631  1  0.72710150  0.96581600  0.65534150  1
  C  632  1  0.69175500  0.96795600  0.67530900  1
  C  633  1  0.69125400  0.00537800  0.65908400  1
  C  634  1  0.72751000  0.04084400  0.62284900  1
  C  638  1  0.65345850  0.00674850  0.68050800  1
  C  646  1  0.69908050  0.37777450  0.27164700  1
  C  647  1  0.72103050  0.36225250  0.25172900  1
  C  648  1  0.74213950  0.34539400  0.26797550  1
  C  649  1  0.74145100  0.34542750  0.30418150  1
  C  653  1  0.76472100  0.32883450  0.24662350  1
  C  661  1  0.38614400  0.68585000  0.03421700  1
  C  662  1  0.36615600  0.65047100  0.03211800  1
  C  663  1  0.38235400  0.64990900  0.99472900  1
  C  664  1  0.41857900  0.68615350  0.95923450  1
  C  668  1  0.36092700  0.61205900  0.99342800  1
  C  676  1  0.76984450  0.65786250  0.62238300  1
  C  677  1  0.78976750  0.67989050  0.63785300  1
  C  678  1  0.77351250  0.70102650  0.65465300  1
  C  679  1  0.73728350  0.70027050  0.65462000  1
  C  683  1  0.79488700  0.72372700  0.67112700  1
  C  691  1  0.79798000  0.41563750  0.89265850  1
  C  692  1  0.76047300  0.39356450  0.89480250  1
  C  693  1  0.72255800  0.37234500  0.93223800  1
  C  694  1  0.72337350  0.37305200  0.96771950  1
  C  698  1  0.68337400  0.34960300  0.93360200  1
  C  706  1  0.35810250  0.38749950  0.30443900  1
  C  707  1  0.39558300  0.42291400  0.28896800  1
  C  708  1  0.43354400  0.42351050  0.27211950  1
  C  709  1  0.43279600  0.38727700  0.27211600  1
  C  713  1  0.47269800  0.46138950  0.25562250  1
  H  25  1  0.95866150  0.36018950  0.36661000  1
  H  26  1  0.91905450  0.35891400  0.42803650  1
  H  27  1  0.86477950  0.34260000  0.49863950  1
  H  28  1  0.80457200  0.32094450  0.55992950  1
  H  29  1  0.73052350  0.24181600  0.53254550  1
  H  30  1  0.85233250  0.25845200  0.39417450  1
  H  31  1  0.80132800  0.32526450  0.40202550  1
  H  32  1  0.71015400  0.24799750  0.38750350  1
  H  33  1  0.70305100  0.18844700  0.43770400  1
  H  34  1  0.80525950  0.19857800  0.52495550  1
  H  35  1  0.70431750  0.13581000  0.48914550  1
  H  36  1  0.71364650  0.09279100  0.53943650  1
  H  70  1  0.35131650  0.71335500  0.40588450  1
  H  71  1  0.29111750  0.71446550  0.44437700  1
  H  72  1  0.23678050  0.73067450  0.48246300  1
  H  73  1  0.19714200  0.75236400  0.52093800  1
  H  74  1  0.30355200  0.83135000  0.51608900  1
  H  75  1  0.42538100  0.81489600  0.41079900  1
  H  76  1  0.35067250  0.74775500  0.52870550  1
  H  77  1  0.44214100  0.82485350  0.54305150  1
  H  78  1  0.45145350  0.88448050  0.49073800  1
  H  79  1  0.35458500  0.87467950  0.39814250  1
  H  80  1  0.45270000  0.93719750  0.43688350  1
  H  81  1  0.44561150  0.98032650  0.38444400  1
  H  115  1  0.63538100  0.31008500  0.28686900  1
  H  116  1  0.59683900  0.24987650  0.28577150  1
  H  117  1  0.55874700  0.19552900  0.26957700  1
  H  118  1  0.52021050  0.15586550  0.24793400  1
  H  119  1  0.52536750  0.26233800  0.16869450  1
  H  120  1  0.63079300  0.38418200  0.18509200  1
  H  121  1  0.51274050  0.30952000  0.25205250  1
  H  122  1  0.49895650  0.40134050  0.17470000  1
  H  123  1  0.55141200  0.41064500  0.11518900  1
  H  124  1  0.64335300  0.31316600  0.12547300  1
  H  125  1  0.60532650  0.41181550  0.06260400  1
  H  126  1  0.65766050  0.40450000  0.01963150  1
  H  160  1  0.67440600  0.91738100  0.64028700  1
  H  161  1  0.61305950  0.87774750  0.64145400  1
  H  162  1  0.54252650  0.82338250  0.65765300  1
  H  163  1  0.48123500  0.76315600  0.67930200  1
  H  164  1  0.50877050  0.68912000  0.75822350  1
  H  165  1  0.64703200  0.81093750  0.74174550  1
  H  166  1  0.63937500  0.76005150  0.67475150  1
  H  167  1  0.65387500  0.66883600  0.75195200  1
  H  168  1  0.60359900  0.66162350  0.81153050  1
  H  169  1  0.51638100  0.76383450  0.80151350  1
  H  170  1  0.55212950  0.66282650  0.86419600  1
  H  171  1  0.50187600  0.67215700  0.90724900  1
  H  205  1  0.36224150  0.44008950  0.23678300  1
  H  206  1  0.38384000  0.50135600  0.17658300  1
  H  207  1  0.39998800  0.57183200  0.12227600  1
  H  208  1  0.40120250  0.63321550  0.08265500  1
  H  209  1  0.29970200  0.60579900  0.18908000  1
  H  210  1  0.28323400  0.46750850  0.31087550  1
  H  211  1  0.23984950  0.47520150  0.23608900  1
  H  212  1  0.13414650  0.46065550  0.32784100  1
  H  213  1  0.17723100  0.51082800  0.33724600  1
  H  214  1  0.36668250  0.59807300  0.23997350  1
  H  215  1  0.22992550  0.56223150  0.33850500  1
  H  216  1  0.28953050  0.61249550  0.33129600  1
  H  250  1  0.79373100  0.47913900  0.84421800  1
  H  251  1  0.77197000  0.51755700  0.80460400  1
  H  252  1  0.75578800  0.55572400  0.75028100  1
  H  253  1  0.75472900  0.59431800  0.69007200  1
  H  254  1  0.85626100  0.58942250  0.61599950  1
  H  255  1  0.87273400  0.48408200  0.73778200  1
  H  256  1  0.91588300  0.60197100  0.68694900  1
  H  257  1  0.02167800  0.61617650  0.59566350  1
  H  258  1  0.97866350  0.56380450  0.58840300  1
  H  259  1  0.78921100  0.47136900  0.69061500  1
  H  260  1  0.92604850  0.50992950  0.58955100  1
  H  261  1  0.86650800  0.45752400  0.59882100  1
  H  546  1  0.75095350  0.35375500  0.55196650  1
  H  549  1  0.78114700  0.42635200  0.51473800  1
  H  550  1  0.81892400  0.45056800  0.52564100  1
  H  551  1  0.77041800  0.44826350  0.54619150  1
  H  553  1  0.69292750  0.25850600  0.64457950  1
  H  555  1  0.80896850  0.45148800  0.58795850  1
  H  561  1  0.17218250  0.71972550  0.60743900  1
  H  564  1  0.13672450  0.64716550  0.65011700  1
  H  565  1  0.10154350  0.62281250  0.63668900  1
  H  566  1  0.08338050  0.62536600  0.68275250  1
  H  568  1  0.17496200  0.81506200  0.56968400  1
  H  570  1  0.03834750  0.62194550  0.64747300  1
  H  576  1  0.40501100  0.77488800  0.31943500  1
  H  579  1  0.37492050  0.78198750  0.27693600  1
  H  580  1  0.33714400  0.73333100  0.29045500  1
  H  581  1  0.38568200  0.76127200  0.24429300  1
  H  583  1  0.46276700  0.74003300  0.35701700  1
  H  585  1  0.34708000  0.68095350  0.27961250  1
  H  591  1  0.98353750  0.29852350  0.37441500  1
  H  594  1  0.01886950  0.29126350  0.41165000  1
  H  595  1  0.05402850  0.33986600  0.40086050  1
  H  596  1  0.07222850  0.31195500  0.38019550  1
  H  598  1  0.98087650  0.33365450  0.28175400  1
  H  600  1  0.11730050  0.39224550  0.33858800  1
  H  606  1  0.43373300  0.13086200  0.28057900  1
  H  609  1  0.39111700  0.09540400  0.35315200  1
  H  610  1  0.40468950  0.06035500  0.37745150  1
  H  611  1  0.35858650  0.04202850  0.37498200  1
  H  613  1  0.47135550  0.13361250  0.18529300  1
  H  615  1  0.39414600  0.99720400  0.37830500  1
  H  621  1  0.48925300  0.70957650  0.64642550  1
  H  624  1  0.52648200  0.73977900  0.57383200  1
  H  625  1  0.51551700  0.77749300  0.54963300  1
  H  626  1  0.49503600  0.72898300  0.55192200  1
  H  628  1  0.39659800  0.65156850  0.74173450  1
  H  630  1  0.45317600  0.76740100  0.54870800  1
  H  636  1  0.66670750  0.94234000  0.70188050  1
  H  639  1  0.62960650  0.97780500  0.70906450  1
  H  640  1  0.64040650  0.01292250  0.66044500  1
  H  641  1  0.66117000  0.03116850  0.68828150  1
  H  643  1  0.75924700  0.93957600  0.66698500  1
  H  645  1  0.70272900  0.07607600  0.60791000  1
  H  651  1  0.72189650  0.36372350  0.22520600  1
  H  654  1  0.76428650  0.33353050  0.21809800  1
  H  655  1  0.75069850  0.29570650  0.26675000  1
  H  656  1  0.79693800  0.34418700  0.23882800  1
  H  658  1  0.68437450  0.42149550  0.26013900  1
  H  660  1  0.76159200  0.30557650  0.31914050  1
  H  666  1  0.33960600  0.62542550  0.05775650  1
  H  669  1  0.33239200  0.58822250  0.02238650  1
  H  670  1  0.38100800  0.59902650  0.98726550  1
  H  671  1  0.35312200  0.61970050  0.96902550  1
  H  673  1  0.37462750  0.71805350  0.06043900  1
  H  675  1  0.43346150  0.66131500  0.92404050  1
  H  681  1  0.81632100  0.68081850  0.63635850  1
  H  684  1  0.82343550  0.72333850  0.66642700  1
  H  685  1  0.77478800  0.70976600  0.70424700  1
  H  686  1  0.80265850  0.75592650  0.65571500  1
  H  688  1  0.78153650  0.64334500  0.57853550  1
  H  690  1  0.72229900  0.72046650  0.69443150  1
  H  696  1  0.76102000  0.39264700  0.86917600  1
  H  699  1  0.68844750  0.35005500  0.90462650  1
  H  700  1  0.66416200  0.36348500  0.93983800  1
  H  701  1  0.66666300  0.31739650  0.95796650  1
  H  703  1  0.85637100  0.43025050  0.86638350  1
  H  705  1  0.66332500  0.35257900  0.00305000  1
  H  711  1  0.39499250  0.44795750  0.29047000  1
  H  714  1  0.46758450  0.48520550  0.26034500  1
  H  715  1  0.49183350  0.47442150  0.22249100  1
  H  716  1  0.48953150  0.45378050  0.27099700  1
  H  718  1  0.29969450  0.35529450  0.34819800  1
  H  720  1  0.49279400  0.41215400  0.23226700  1
  N  545  1  0.75261300  0.35374050  0.64570950  1
  N  547  1  0.73715800  0.31903950  0.64580250  1
  N  552  1  0.71726000  0.27851550  0.61724650  1
  N  554  1  0.78861950  0.42645900  0.61444150  1
  N  560  1  0.07849050  0.71972650  0.60566000  1
  N  562  1  0.11313200  0.75441900  0.58630700  1
  N  567  1  0.18224150  0.79495650  0.56557300  1
  N  569  1  0.03693350  0.64700700  0.64267550  1
  N  575  1  0.40329400  0.67945900  0.32115400  1
  N  577  1  0.41870450  0.69478800  0.34044650  1
  N  582  1  0.43852700  0.74316800  0.36117100  1
  N  584  1  0.36739350  0.67478300  0.28434150  1
  N  590  1  0.07732050  0.39398400  0.28079950  1
  N  592  1  0.04271700  0.37871850  0.28067550  1
  N  597  1  0.97359300  0.33040250  0.30917050  1
  N  599  1  0.11875900  0.39848750  0.31208950  1
  N  605  1  0.43571350  0.03724700  0.28055950  1
  N  607  1  0.45498950  0.07186900  0.24586850  1
  N  612  1  0.47556200  0.14092850  0.20534850  1
  N  614  1  0.39884850  0.99575450  0.35327100  1
  N  620  1  0.39544750  0.71106500  0.64646350  1
  N  622  1  0.39536450  0.69563800  0.68116050  1
  N  627  1  0.42395350  0.67585450  0.72168200  1
  N  629  1  0.42670350  0.74705250  0.57374300  1
  N  635  1  0.76038100  0.03598400  0.60634200  1
  N  637  1  0.76043850  0.00135450  0.62166100  1
  N  642  1  0.73187250  0.93228050  0.67011100  1
  N  644  1  0.72921150  0.07751150  0.60173400  1
  N  650  1  0.72025700  0.36194550  0.32063450  1
  N  652  1  0.70101100  0.37742900  0.30530200  1
  N  657  1  0.68025100  0.39728300  0.25695400  1
  N  659  1  0.75694650  0.32592250  0.32530300  1
  N  665  1  0.43508200  0.71907400  0.96403400  1
  N  667  1  0.41979350  0.71917650  0.99864200  1
  N  672  1  0.37144000  0.69065950  0.06774050  1
  N  674  1  0.43964650  0.68780600  0.92258150  1
  N  680  1  0.72083050  0.67900100  0.63815050  1
  N  682  1  0.73617800  0.65974300  0.62270900  1
  N  687  1  0.78462100  0.63911950  0.60281350  1
  N  689  1  0.71616550  0.71579500  0.67408050  1
  N  695  1  0.76112250  0.39438900  0.96285250  1
  N  697  1  0.79580100  0.41372400  0.92820800  1
  N  702  1  0.83628500  0.43442750  0.85910650  1
  N  704  1  0.68841700  0.35743600  0.00442500  1
  N  710  1  0.39507450  0.35433000  0.28858750  1
  N  712  1  0.36035400  0.35419450  0.30406250  1
  N  717  1  0.31977100  0.38268600  0.32397500  1
  N  719  1  0.46779250  0.38565300  0.25261850  1
  O  42  1  0.90841750  0.29702250  0.32047500  1
  O  43  1  0.69499050  0.22466050  0.60597200  1
  O  44  1  0.76009900  0.35725300  0.36646900  1
  O  45  1  0.80172900  0.12163800  0.56038800  1
  O  87  1  0.46069300  0.77664100  0.39285000  1
  O  88  1  0.24739350  0.84877450  0.53392700  1
  O  89  1  0.35415900  0.71573850  0.60211350  1
  O  90  1  0.39580900  0.95154250  0.32498250  1
  O  132  1  0.64851150  0.41941050  0.22355700  1
  O  133  1  0.50714300  0.20605850  0.15151950  1
  O  134  1  0.43956400  0.31315900  0.28397100  1
  O  135  1  0.71695000  0.35497850  0.04844250  1
  O  177  1  0.72054000  0.86713100  0.70361700  1
  O  178  1  0.43523850  0.65368750  0.77553400  1
  O  179  1  0.67497000  0.71879150  0.64275250  1
  O  180  1  0.48094200  0.76032300  0.87837700  1
  O  222  1  0.26588650  0.39391100  0.34613950  1
  O  223  1  0.33805500  0.67939150  0.13288250  1
  O  224  1  0.16295400  0.43989800  0.23957900  1
  O  225  1  0.39859750  0.63347300  0.28148750  1
  O  267  1  0.89008550  0.46605750  0.79393700  1
  O  268  1  0.81814950  0.60752450  0.58058600  1
  O  269  1  0.99285600  0.67546650  0.64533150  1
  O  270  1  0.75729550  0.39814900  0.68694350  1
