# generated using pymatgen
data_ZnH20C29N3O5
_symmetry_space_group_name_H-M   'P 1'
_cell_length_a   17.52781000
_cell_length_b   21.32556090
_cell_length_c   21.34094016
_cell_angle_alpha   80.54231219
_cell_angle_beta   65.97094047
_cell_angle_gamma   66.00301558
_symmetry_Int_Tables_number   1
_chemical_formula_structural   ZnH20C29N3O5
_chemical_formula_sum   'Zn8 H160 C232 N24 O40'
_cell_volume   6656.00313951
_cell_formula_units_Z   8
loop_
 _symmetry_equiv_pos_site_id
 _symmetry_equiv_pos_as_xyz
  1  'x, y, z'
loop_
 _atom_site_type_symbol
 _atom_site_label
 _atom_site_symmetry_multiplicity
 _atom_site_fract_x
 _atom_site_fract_y
 _atom_site_fract_z
 _atom_site_occupancy
  Zn  Zn1  1  0.63192000  0.96239000  0.72736000  1.0
  Zn  Zn2  1  0.32226000  0.53840000  0.77176000  1.0
  Zn  Zn3  1  0.59398000  0.72729000  0.53830000  1.0
  Zn  Zn4  1  0.86052000  0.77202000  0.96192000  1.0
  Zn  Zn5  1  0.36807000  0.03762000  0.27264000  1.0
  Zn  Zn6  1  0.67772000  0.46161000  0.22824000  1.0
  Zn  Zn7  1  0.40601000  0.27271000  0.46170000  1.0
  Zn  Zn8  1  0.13947000  0.22798000  0.03809000  1.0
  H  H1  1  0.36584000  0.00346000  0.70732000  1.0
  H  H2  1  0.19657000  0.03670000  0.74916000  1.0
  H  H3  1  0.17543000  0.04068000  0.95611000  1.0
  H  H4  1  0.34346000  0.00611000  0.91444000  1.0
  H  H5  1  0.17658000  0.92430000  0.89207000  1.0
  H  H6  1  0.10805000  0.83644000  0.92359000  1.0
  H  H7  1  0.85462000  0.99070000  0.92917000  1.0
  H  H8  1  0.92056000  0.08111000  0.90181000  1.0
  H  H9  1  0.68546000  0.83985000  0.64918000  1.0
  H  H10  1  0.72319000  0.71487000  0.66423000  1.0
  H  H11  1  0.69351000  0.73999000  0.87176000  1.0
  H  H12  1  0.65465000  0.86466000  0.84788000  1.0
  H  H13  1  0.67290000  0.62813000  0.71745000  1.0
  H  H14  1  0.70871000  0.50388000  0.74344000  1.0
  H  H15  1  0.82590000  0.50835000  0.87534000  1.0
  H  H16  1  0.79919000  0.63184000  0.85307000  1.0
  H  H17  1  0.60805000  0.07878000  0.63918000  1.0
  H  H18  1  0.54625000  0.20613000  0.63992000  1.0
  H  H19  1  0.50335000  0.19593000  0.85548000  1.0
  H  H20  1  0.56384000  0.06828000  0.84553000  1.0
  H  H21  1  0.07894000  0.49760000  0.79153000  1.0
  H  H22  1  0.98314000  0.46493000  0.75023000  1.0
  H  H23  1  0.17075000  0.45989000  0.54312000  1.0
  H  H24  1  0.26459000  0.49405000  0.58443000  1.0
  H  H25  1  0.99204000  0.57763000  0.60705000  1.0
  H  H26  1  0.86712000  0.66445000  0.57552000  1.0
  H  H27  1  0.77336000  0.50845000  0.57176000  1.0
  H  H28  1  0.90263000  0.41924000  0.59896000  1.0
  H  H29  1  0.17616000  0.65936000  0.84987000  1.0
  H  H30  1  0.10308000  0.78435000  0.83551000  1.0
  H  H31  1  0.30435000  0.76097000  0.62807000  1.0
  H  H32  1  0.36719000  0.63630000  0.65161000  1.0
  H  H33  1  0.01977000  0.87098000  0.78260000  1.0
  H  H34  1  0.95718000  0.99521000  0.75685000  1.0
  H  H35  1  0.20882000  0.99211000  0.62460000  1.0
  H  H36  1  0.28336000  0.86883000  0.64686000  1.0
  H  H37  1  0.32561000  0.42218000  0.86023000  1.0
  H  H38  1  0.39182000  0.29476000  0.85959000  1.0
  H  H39  1  0.55405000  0.30532000  0.64450000  1.0
  H  H40  1  0.47732000  0.43293000  0.65430000  1.0
  H  H41  1  0.36947000  0.70696000  0.49715000  1.0
  H  H42  1  0.23321000  0.74868000  0.46410000  1.0
  H  H43  1  0.21597000  0.95586000  0.46026000  1.0
  H  H44  1  0.34972000  0.91399000  0.49513000  1.0
  H  H45  1  0.09935000  0.89236000  0.57745000  1.0
  H  H46  1  0.94315000  0.92375000  0.66423000  1.0
  H  H47  1  0.84574000  0.92863000  0.50811000  1.0
  H  H48  1  0.00195000  0.90116000  0.41895000  1.0
  H  H49  1  0.52709000  0.64933000  0.65975000  1.0
  H  H50  1  0.43851000  0.66425000  0.78443000  1.0
  H  H51  1  0.43193000  0.87243000  0.76106000  1.0
  H  H52  1  0.51891000  0.84846000  0.63652000  1.0
  H  H53  1  0.30191000  0.71723000  0.87125000  1.0
  H  H54  1  0.21368000  0.74324000  0.99541000  1.0
  H  H55  1  0.33386000  0.87581000  0.99241000  1.0
  H  H56  1  0.43038000  0.85353000  0.86907000  1.0
  H  H57  1  0.68533000  0.63952000  0.42112000  1.0
  H  H58  1  0.75202000  0.63977000  0.29397000  1.0
  H  H59  1  0.69857000  0.85540000  0.30459000  1.0
  H  H60  1  0.63063000  0.84614000  0.43205000  1.0
  H  H61  1  0.57639000  0.79286000  0.00293000  1.0
  H  H62  1  0.44686000  0.75278000  0.03646000  1.0
  H  H63  1  0.62791000  0.54486000  0.04085000  1.0
  H  H64  1  0.75674000  0.58471000  0.00549000  1.0
  H  H65  1  0.56770000  0.60864000  0.92456000  1.0
  H  H66  1  0.53034000  0.57708000  0.83673000  1.0
  H  H67  1  0.28231000  0.57168000  0.99110000  1.0
  H  H68  1  0.32127000  0.59936000  0.08142000  1.0
  H  H69  1  0.83559000  0.85053000  0.84019000  1.0
  H  H70  1  0.88758000  0.83568000  0.71518000  1.0
  H  H71  1  0.06555000  0.62846000  0.73895000  1.0
  H  H72  1  0.00336000  0.65217000  0.86369000  1.0
  H  H73  1  0.89078000  0.78252000  0.62820000  1.0
  H  H74  1  0.95236000  0.75628000  0.50398000  1.0
  H  H75  1  0.20044000  0.62433000  0.50810000  1.0
  H  H76  1  0.15165000  0.64702000  0.63148000  1.0
  H  H77  1  0.74822000  0.85947000  0.07793000  1.0
  H  H78  1  0.68679000  0.85927000  0.20520000  1.0
  H  H79  1  0.85879000  0.64393000  0.19521000  1.0
  H  H80  1  0.91024000  0.65339000  0.06760000  1.0
  H  H81  1  0.63415000  0.99654000  0.29269000  1.0
  H  H82  1  0.80340000  0.96331000  0.25085000  1.0
  H  H83  1  0.82455000  0.95933000  0.04389000  1.0
  H  H84  1  0.65653000  0.99389000  0.08556000  1.0
  H  H85  1  0.82340000  0.07570000  0.10794000  1.0
  H  H86  1  0.89193000  0.16357000  0.07641000  1.0
  H  H87  1  0.14537000  0.00931000  0.07083000  1.0
  H  H88  1  0.07944000  0.91889000  0.09819000  1.0
  H  H89  1  0.31453000  0.16016000  0.35082000  1.0
  H  H90  1  0.27681000  0.28513000  0.33577000  1.0
  H  H91  1  0.30648000  0.26001000  0.12824000  1.0
  H  H92  1  0.34535000  0.13534000  0.15212000  1.0
  H  H93  1  0.32710000  0.37187000  0.28255000  1.0
  H  H94  1  0.29129000  0.49612000  0.25656000  1.0
  H  H95  1  0.17410000  0.49165000  0.12466000  1.0
  H  H96  1  0.20081000  0.36816000  0.14693000  1.0
  H  H97  1  0.39194000  0.92122000  0.36082000  1.0
  H  H98  1  0.45375000  0.79387000  0.36008000  1.0
  H  H99  1  0.49662000  0.80408000  0.14453000  1.0
  H  H100  1  0.43614000  0.93173000  0.15448000  1.0
  H  H101  1  0.92104000  0.50241000  0.20848000  1.0
  H  H102  1  0.01685000  0.53507000  0.24977000  1.0
  H  H103  1  0.82924000  0.54012000  0.45688000  1.0
  H  H104  1  0.73539000  0.50595000  0.41558000  1.0
  H  H105  1  0.00794000  0.42238000  0.39296000  1.0
  H  H106  1  0.13287000  0.33555000  0.42449000  1.0
  H  H107  1  0.22663000  0.49155000  0.42825000  1.0
  H  H108  1  0.09736000  0.58076000  0.40104000  1.0
  H  H109  1  0.82383000  0.34064000  0.15014000  1.0
  H  H110  1  0.89691000  0.21566000  0.16449000  1.0
  H  H111  1  0.69564000  0.23903000  0.37194000  1.0
  H  H112  1  0.63279000  0.36371000  0.34840000  1.0
  H  H113  1  0.98021000  0.12903000  0.21740000  1.0
  H  H114  1  0.04281000  0.00480000  0.24315000  1.0
  H  H115  1  0.79117000  0.00789000  0.37541000  1.0
  H  H116  1  0.71664000  0.13117000  0.35314000  1.0
  H  H117  1  0.67437000  0.57783000  0.13977000  1.0
  H  H118  1  0.60817000  0.70525000  0.14041000  1.0
  H  H119  1  0.44594000  0.69468000  0.35550000  1.0
  H  H120  1  0.52266000  0.56708000  0.34571000  1.0
  H  H121  1  0.63052000  0.29305000  0.50285000  1.0
  H  H122  1  0.76679000  0.25132000  0.53590000  1.0
  H  H123  1  0.78402000  0.04414000  0.53974000  1.0
  H  H124  1  0.65027000  0.08602000  0.50487000  1.0
  H  H125  1  0.90063000  0.10764000  0.42256000  1.0
  H  H126  1  0.05684000  0.07625000  0.33578000  1.0
  H  H127  1  0.15426000  0.07137000  0.49189000  1.0
  H  H128  1  0.99804000  0.09884000  0.58106000  1.0
  H  H129  1  0.47289000  0.35068000  0.34025000  1.0
  H  H130  1  0.56149000  0.33575000  0.21557000  1.0
  H  H131  1  0.56806000  0.12757000  0.23894000  1.0
  H  H132  1  0.48108000  0.15154000  0.36349000  1.0
  H  H133  1  0.69808000  0.28277000  0.12876000  1.0
  H  H134  1  0.78632000  0.25676000  0.00459000  1.0
  H  H135  1  0.66613000  0.12419000  0.00759000  1.0
  H  H136  1  0.56961000  0.14647000  0.13094000  1.0
  H  H137  1  0.31467000  0.36048000  0.57888000  1.0
  H  H138  1  0.24796000  0.36024000  0.70604000  1.0
  H  H139  1  0.30142000  0.14461000  0.69541000  1.0
  H  H140  1  0.36937000  0.15386000  0.56795000  1.0
  H  H141  1  0.42359000  0.20714000  0.99708000  1.0
  H  H142  1  0.55313000  0.24722000  0.96355000  1.0
  H  H143  1  0.37208000  0.45515000  0.95915000  1.0
  H  H144  1  0.24324000  0.41530000  0.99451000  1.0
  H  H145  1  0.43230000  0.39136000  0.07544000  1.0
  H  H146  1  0.46966000  0.42292000  0.16327000  1.0
  H  H147  1  0.71768000  0.42833000  0.00890000  1.0
  H  H148  1  0.67872000  0.40064000  0.91858000  1.0
  H  H149  1  0.16440000  0.14948000  0.15981000  1.0
  H  H150  1  0.11240000  0.16433000  0.28483000  1.0
  H  H151  1  0.93445000  0.37154000  0.26105000  1.0
  H  H152  1  0.99664000  0.34783000  0.13631000  1.0
  H  H153  1  0.10921000  0.21748000  0.37181000  1.0
  H  H154  1  0.04764000  0.24372000  0.49602000  1.0
  H  H155  1  0.79955000  0.37567000  0.49190000  1.0
  H  H156  1  0.84835000  0.35298000  0.36852000  1.0
  H  H157  1  0.25175000  0.14054000  0.92208000  1.0
  H  H158  1  0.31320000  0.14073000  0.79481000  1.0
  H  H159  1  0.14121000  0.35607000  0.80479000  1.0
  H  H160  1  0.08973000  0.34662000  0.93241000  1.0
  C  C1  1  0.46364000  0.98400000  0.78456000  1.0
  C  C2  1  0.36411000  0.00266000  0.80859000  1.0
  C  C3  1  0.32315000  0.01157000  0.76152000  1.0
  C  C4  1  0.23011000  0.03014000  0.78426000  1.0
  C  C5  1  0.17839000  0.04011000  0.85445000  1.0
  C  C6  1  0.21765000  0.03180000  0.90198000  1.0
  C  C7  1  0.31072000  0.01266000  0.87876000  1.0
  C  C8  1  0.05253000  0.00781000  0.89418000  1.0
  C  C9  1  0.10612000  0.93913000  0.90037000  1.0
  C  C10  1  0.06783000  0.88985000  0.91767000  1.0
  C  C11  1  0.97736000  0.90784000  0.92774000  1.0
  C  C12  1  0.92464000  0.97713000  0.92174000  1.0
  C  C13  1  0.96116000  0.02734000  0.90587000  1.0
  C  C14  1  0.93891000  0.85406000  0.94322000  1.0
  C  C15  1  0.68742000  0.81545000  0.69784000  1.0
  C  C16  1  0.70872000  0.74516000  0.70698000  1.0
  C  C17  1  0.71190000  0.71559000  0.77022000  1.0
  C  C18  1  0.69319000  0.75954000  0.82145000  1.0
  C  C19  1  0.67124000  0.82940000  0.80858000  1.0
  C  C20  1  0.73273000  0.64136000  0.78325000  1.0
  C  C21  1  0.70811000  0.60353000  0.75212000  1.0
  C  C22  1  0.72758000  0.53384000  0.76717000  1.0
  C  C23  1  0.79258000  0.53631000  0.84008000  1.0
  C  C24  1  0.77674000  0.60598000  0.82815000  1.0
  C  C25  1  0.58421000  0.10702000  0.68581000  1.0
  C  C26  1  0.54981000  0.17829000  0.68678000  1.0
  C  C27  1  0.51906000  0.21267000  0.74824000  1.0
  C  C28  1  0.52512000  0.17229000  0.80648000  1.0
  C  C29  1  0.56019000  0.10112000  0.80125000  1.0
  C  C30  1  0.23291000  0.51744000  0.71437000  1.0
  C  C31  1  0.17644000  0.49822000  0.69017000  1.0
  C  C32  1  0.09764000  0.48945000  0.73741000  1.0
  C  C33  1  0.04508000  0.47117000  0.71492000  1.0
  C  C34  1  0.07265000  0.46129000  0.64472000  1.0
  C  C35  1  0.15119000  0.46893000  0.59711000  1.0
  C  C36  1  0.20273000  0.48779000  0.62009000  1.0
  C  C37  1  0.95362000  0.49341000  0.60544000  1.0
  C  C38  1  0.94473000  0.56223000  0.59905000  1.0
  C  C39  1  0.87440000  0.61093000  0.58179000  1.0
  C  C40  1  0.81187000  0.59224000  0.57227000  1.0
  C  C41  1  0.82230000  0.52280000  0.57874000  1.0
  C  C42  1  0.89326000  0.47320000  0.59446000  1.0
  C  C43  1  0.73535000  0.64563000  0.55673000  1.0
  C  C44  1  0.20174000  0.68436000  0.80152000  1.0
  C  C45  1  0.16151000  0.75456000  0.79270000  1.0
  C  C46  1  0.19790000  0.78450000  0.72965000  1.0
  C  C47  1  0.27397000  0.74109000  0.67828000  1.0
  C  C48  1  0.30946000  0.67130000  0.69089000  1.0
  C  C49  1  0.15755000  0.85863000  0.71676000  1.0
  C  C50  1  0.06453000  0.89596000  0.74797000  1.0
  C  C51  1  0.02932000  0.96558000  0.73302000  1.0
  C  C52  1  0.16865000  0.96389000  0.65993000  1.0
  C  C53  1  0.21057000  0.89434000  0.67185000  1.0
  C  C54  1  0.37661000  0.39397000  0.81376000  1.0
  C  C55  1  0.41442000  0.32271000  0.81286000  1.0
  C  C56  1  0.47949000  0.28845000  0.75157000  1.0
  C  C57  1  0.50338000  0.32889000  0.69338000  1.0
  C  C58  1  0.46215000  0.40003000  0.69852000  1.0
  C  C59  1  0.44652000  0.78456000  0.51830000  1.0
  C  C60  1  0.36638000  0.80835000  0.49873000  1.0
  C  C61  1  0.33466000  0.76119000  0.48932000  1.0
  C  C62  1  0.25995000  0.78392000  0.47090000  1.0
  C  C63  1  0.21784000  0.85418000  0.46135000  1.0
  C  C64  1  0.24912000  0.90175000  0.46938000  1.0
  C  C65  1  0.32320000  0.87849000  0.48852000  1.0
  C  C66  1  0.05971000  0.89389000  0.49314000  1.0
  C  C67  1  0.04417000  0.90037000  0.56200000  1.0
  C  C68  1  0.95662000  0.91775000  0.61066000  1.0
  C  C69  1  0.88455000  0.92767000  0.59197000  1.0
  C  C70  1  0.90162000  0.92141000  0.52248000  1.0
  C  C71  1  0.98836000  0.90539000  0.47288000  1.0
  C  C72  1  0.79247000  0.94321000  0.64542000  1.0
  C  C73  1  0.50392000  0.69801000  0.68460000  1.0
  C  C74  1  0.45430000  0.70712000  0.75473000  1.0
  C  C75  1  0.42734000  0.77048000  0.78465000  1.0
  C  C76  1  0.45205000  0.82194000  0.74123000  1.0
  C  C77  1  0.50054000  0.80907000  0.67148000  1.0
  C  C78  1  0.37405000  0.78346000  0.85880000  1.0
  C  C79  1  0.31215000  0.75210000  0.89616000  1.0
  C  C80  1  0.26208000  0.76716000  0.96580000  1.0
  C  C81  1  0.32873000  0.84044000  0.96416000  1.0
  C  C82  1  0.38241000  0.82850000  0.89457000  1.0
  C  C83  1  0.68979000  0.68614000  0.39314000  1.0
  C  C84  1  0.72736000  0.68678000  0.32192000  1.0
  C  C85  1  0.73119000  0.74809000  0.28764000  1.0
  C  C86  1  0.69651000  0.80651000  0.32816000  1.0
  C  C87  1  0.65981000  0.80162000  0.39929000  1.0
  C  C88  1  0.74970000  0.71462000  0.98301000  1.0
  C  C89  1  0.67363000  0.69105000  0.00200000  1.0
  C  C90  1  0.58630000  0.73885000  0.01112000  1.0
  C  C91  1  0.51491000  0.71706000  0.02993000  1.0
  C  C92  1  0.53183000  0.64700000  0.04004000  1.0
  C  C93  1  0.61784000  0.59878000  0.03177000  1.0
  C  C94  1  0.68881000  0.62103000  0.01224000  1.0
  C  C95  1  0.44529000  0.60721000  0.00795000  1.0
  C  C96  1  0.50530000  0.60061000  0.93933000  1.0
  C  C97  1  0.48429000  0.58299000  0.89017000  1.0
  C  C98  1  0.40379000  0.57295000  0.90820000  1.0
  C  C99  1  0.34500000  0.57909000  0.97750000  1.0
  C  C100  1  0.36563000  0.59534000  0.02759000  1.0
  C  C101  1  0.38062000  0.55763000  0.85440000  1.0
  C  C102  1  0.88598000  0.80200000  0.81543000  1.0
  C  C103  1  0.91607000  0.79298000  0.74515000  1.0
  C  C104  1  0.98232000  0.72986000  0.71530000  1.0
  C  C105  1  0.01505000  0.67865000  0.75882000  1.0
  C  C106  1  0.98053000  0.69140000  0.82867000  1.0
  C  C107  1  0.01596000  0.71680000  0.64113000  1.0
  C  C108  1  0.96040000  0.74783000  0.60349000  1.0
  C  C109  1  0.99479000  0.73265000  0.53384000  1.0
  C  C110  1  0.13216000  0.65972000  0.53609000  1.0
  C  C111  1  0.10452000  0.67185000  0.60568000  1.0
  C  C112  1  0.77091000  0.81305000  0.10621000  1.0
  C  C113  1  0.73720000  0.81236000  0.17744000  1.0
  C  C114  1  0.76770000  0.75114000  0.21187000  1.0
  C  C115  1  0.83193000  0.69280000  0.17153000  1.0
  C  C116  1  0.86221000  0.69775000  0.10038000  1.0
  C  C117  1  0.53634000  0.01601000  0.21544000  1.0
  C  C118  1  0.63587000  0.99734000  0.19142000  1.0
  C  C119  1  0.67685000  0.98843000  0.23848000  1.0
  C  C120  1  0.76989000  0.96986000  0.21574000  1.0
  C  C121  1  0.82159000  0.95989000  0.14556000  1.0
  C  C122  1  0.78235000  0.96820000  0.09802000  1.0
  C  C123  1  0.68927000  0.98735000  0.12124000  1.0
  C  C124  1  0.94747000  0.99219000  0.10582000  1.0
  C  C125  1  0.89387000  0.06087000  0.09964000  1.0
  C  C126  1  0.93216000  0.11016000  0.08233000  1.0
  C  C127  1  0.02262000  0.09217000  0.07227000  1.0
  C  C128  1  0.07534000  0.02288000  0.07827000  1.0
  C  C129  1  0.03883000  0.97267000  0.09413000  1.0
  C  C130  1  0.06108000  0.14595000  0.05678000  1.0
  C  C131  1  0.31258000  0.18455000  0.30216000  1.0
  C  C132  1  0.29125000  0.25485000  0.29303000  1.0
  C  C133  1  0.28810000  0.28441000  0.22978000  1.0
  C  C134  1  0.30679000  0.24047000  0.17855000  1.0
  C  C135  1  0.32876000  0.17060000  0.19142000  1.0
  C  C136  1  0.26726000  0.35865000  0.21675000  1.0
  C  C137  1  0.29189000  0.39647000  0.24788000  1.0
  C  C138  1  0.27242000  0.46616000  0.23283000  1.0
  C  C139  1  0.20741000  0.46370000  0.15992000  1.0
  C  C140  1  0.22324000  0.39403000  0.17186000  1.0
  C  C141  1  0.41577000  0.89298000  0.31420000  1.0
  C  C142  1  0.45019000  0.82171000  0.31322000  1.0
  C  C143  1  0.48092000  0.78733000  0.25177000  1.0
  C  C144  1  0.47488000  0.82771000  0.19352000  1.0
  C  C145  1  0.43979000  0.89888000  0.19876000  1.0
  C  C146  1  0.76708000  0.48256000  0.28564000  1.0
  C  C147  1  0.82355000  0.50179000  0.30983000  1.0
  C  C148  1  0.90235000  0.51056000  0.26259000  1.0
  C  C149  1  0.95491000  0.52883000  0.28509000  1.0
  C  C150  1  0.92734000  0.53872000  0.35528000  1.0
  C  C151  1  0.84879000  0.53108000  0.40289000  1.0
  C  C152  1  0.79726000  0.51221000  0.37992000  1.0
  C  C153  1  0.04636000  0.50660000  0.39456000  1.0
  C  C154  1  0.05527000  0.43777000  0.40095000  1.0
  C  C155  1  0.12559000  0.38908000  0.41821000  1.0
  C  C156  1  0.18813000  0.40776000  0.42773000  1.0
  C  C157  1  0.17770000  0.47720000  0.42126000  1.0
  C  C158  1  0.10674000  0.52680000  0.40554000  1.0
  C  C159  1  0.26464000  0.35437000  0.44327000  1.0
  C  C160  1  0.79825000  0.31565000  0.19848000  1.0
  C  C161  1  0.83847000  0.24544000  0.20731000  1.0
  C  C162  1  0.80210000  0.21550000  0.27035000  1.0
  C  C163  1  0.72602000  0.25892000  0.32172000  1.0
  C  C164  1  0.69054000  0.32870000  0.30911000  1.0
  C  C165  1  0.84245000  0.14137000  0.28324000  1.0
  C  C166  1  0.93546000  0.10405000  0.25203000  1.0
  C  C167  1  0.97066000  0.03442000  0.26699000  1.0
  C  C168  1  0.83133000  0.03612000  0.34008000  1.0
  C  C169  1  0.78942000  0.10566000  0.32815000  1.0
  C  C170  1  0.62337000  0.60604000  0.18625000  1.0
  C  C171  1  0.58556000  0.67729000  0.18715000  1.0
  C  C172  1  0.52051000  0.71155000  0.24843000  1.0
  C  C173  1  0.49662000  0.67111000  0.30662000  1.0
  C  C174  1  0.53784000  0.59998000  0.30148000  1.0
  C  C175  1  0.55347000  0.21544000  0.48171000  1.0
  C  C176  1  0.63361000  0.19165000  0.50128000  1.0
  C  C177  1  0.66533000  0.23881000  0.51069000  1.0
  C  C178  1  0.74003000  0.21608000  0.52911000  1.0
  C  C179  1  0.78215000  0.14583000  0.53865000  1.0
  C  C180  1  0.75086000  0.09826000  0.53062000  1.0
  C  C181  1  0.67678000  0.12152000  0.51149000  1.0
  C  C182  1  0.94028000  0.10612000  0.50686000  1.0
  C  C183  1  0.95582000  0.09963000  0.43800000  1.0
  C  C184  1  0.04337000  0.08225000  0.38935000  1.0
  C  C185  1  0.11544000  0.07233000  0.40803000  1.0
  C  C186  1  0.09837000  0.07859000  0.47753000  1.0
  C  C187  1  0.01164000  0.09461000  0.52712000  1.0
  C  C188  1  0.20753000  0.05679000  0.35458000  1.0
  C  C189  1  0.49607000  0.30199000  0.31540000  1.0
  C  C190  1  0.54569000  0.29289000  0.24527000  1.0
  C  C191  1  0.57265000  0.22952000  0.21536000  1.0
  C  C192  1  0.54793000  0.17807000  0.25878000  1.0
  C  C193  1  0.49944000  0.19094000  0.32853000  1.0
  C  C194  1  0.62595000  0.21654000  0.14120000  1.0
  C  C195  1  0.68784000  0.24790000  0.10385000  1.0
  C  C196  1  0.73792000  0.23284000  0.03420000  1.0
  C  C197  1  0.67125000  0.15957000  0.03585000  1.0
  C  C198  1  0.61758000  0.17150000  0.10544000  1.0
  C  C199  1  0.31020000  0.31386000  0.60686000  1.0
  C  C200  1  0.27262000  0.31323000  0.67809000  1.0
  C  C201  1  0.26880000  0.25191000  0.71236000  1.0
  C  C202  1  0.30346000  0.19350000  0.67185000  1.0
  C  C203  1  0.34018000  0.19838000  0.60071000  1.0
  C  C204  1  0.25029000  0.28538000  0.01700000  1.0
  C  C205  1  0.32636000  0.30896000  0.99800000  1.0
  C  C206  1  0.41368000  0.26115000  0.98889000  1.0
  C  C207  1  0.48506000  0.28295000  0.97008000  1.0
  C  C208  1  0.46817000  0.35300000  0.95996000  1.0
  C  C209  1  0.38215000  0.40122000  0.96823000  1.0
  C  C210  1  0.31118000  0.37897000  0.98777000  1.0
  C  C211  1  0.55471000  0.39279000  0.99205000  1.0
  C  C212  1  0.49469000  0.39939000  0.06067000  1.0
  C  C213  1  0.51570000  0.41701000  0.10984000  1.0
  C  C214  1  0.59621000  0.42705000  0.09180000  1.0
  C  C215  1  0.65500000  0.42091000  0.02250000  1.0
  C  C216  1  0.63435000  0.40466000  0.97242000  1.0
  C  C217  1  0.61938000  0.44237000  0.14560000  1.0
  C  C218  1  0.11401000  0.19800000  0.18458000  1.0
  C  C219  1  0.08392000  0.20702000  0.25485000  1.0
  C  C220  1  0.01766000  0.27014000  0.28471000  1.0
  C  C221  1  0.98495000  0.32135000  0.24118000  1.0
  C  C222  1  0.01946000  0.30860000  0.17133000  1.0
  C  C223  1  0.98404000  0.28320000  0.35887000  1.0
  C  C224  1  0.03960000  0.25217000  0.39651000  1.0
  C  C225  1  0.00520000  0.26735000  0.46617000  1.0
  C  C226  1  0.86783000  0.34029000  0.46391000  1.0
  C  C227  1  0.89548000  0.32815000  0.39432000  1.0
  C  C228  1  0.22908000  0.18695000  0.89380000  1.0
  C  C229  1  0.26280000  0.18764000  0.82256000  1.0
  C  C230  1  0.23229000  0.24886000  0.78814000  1.0
  C  C231  1  0.16806000  0.30720000  0.82847000  1.0
  C  C232  1  0.13778000  0.30225000  0.89963000  1.0
  N  N1  1  0.66832000  0.85729000  0.74773000  1.0
  N  N2  1  0.76879000  0.49972000  0.81076000  1.0
  N  N3  1  0.58985000  0.06870000  0.74177000  1.0
  N  N4  1  0.27421000  0.64313000  0.75159000  1.0
  N  N5  1  0.07948000  0.00003000  0.68938000  1.0
  N  N6  1  0.39995000  0.43231000  0.75785000  1.0
  N  N7  1  0.52655000  0.74798000  0.64333000  1.0
  N  N8  1  0.26882000  0.81093000  0.00029000  1.0
  N  N9  1  0.65660000  0.74229000  0.43164000  1.0
  N  N10  1  0.91694000  0.75211000  0.85686000  1.0
  N  N11  1  0.07925000  0.68897000  0.49965000  1.0
  N  N12  1  0.83268000  0.75706000  0.06796000  1.0
  N  N13  1  0.33167000  0.14272000  0.25227000  1.0
  N  N14  1  0.23120000  0.50028000  0.18925000  1.0
  N  N15  1  0.41014000  0.93130000  0.25824000  1.0
  N  N16  1  0.72578000  0.35687000  0.24841000  1.0
  N  N17  1  0.92051000  0.99997000  0.31063000  1.0
  N  N18  1  0.60005000  0.56769000  0.24215000  1.0
  N  N19  1  0.47344000  0.25202000  0.35667000  1.0
  N  N20  1  0.73116000  0.18908000  0.99972000  1.0
  N  N21  1  0.34339000  0.25771000  0.56837000  1.0
  N  N22  1  0.08305000  0.24790000  0.14314000  1.0
  N  N23  1  0.92075000  0.31103000  0.50035000  1.0
  N  N24  1  0.16731000  0.24294000  0.93205000  1.0
  O  O1  1  0.49892000  0.97607000  0.82823000  1.0
  O  O2  1  0.50974000  0.97751000  0.71938000  1.0
  O  O3  1  0.08519000  0.06009000  0.87663000  1.0
  O  O4  1  0.98945000  0.79093000  0.94271000  1.0
  O  O5  1  0.85386000  0.87285000  0.95564000  1.0
  O  O6  1  0.30353000  0.52575000  0.67090000  1.0
  O  O7  1  0.20731000  0.52399000  0.77963000  1.0
  O  O8  1  0.02132000  0.44140000  0.62236000  1.0
  O  O9  1  0.72368000  0.70873000  0.55568000  1.0
  O  O10  1  0.68037000  0.62657000  0.54584000  1.0
  O  O11  1  0.47312000  0.82834000  0.52727000  1.0
  O  O12  1  0.48648000  0.71930000  0.52430000  1.0
  O  O13  1  0.14451000  0.87631000  0.44133000  1.0
  O  O14  1  0.78022000  0.94283000  0.70853000  1.0
  O  O15  1  0.72619000  0.95554000  0.62649000  1.0
  O  O16  1  0.82829000  0.67071000  0.97459000  1.0
  O  O17  1  0.73106000  0.77990000  0.97691000  1.0
  O  O18  1  0.46011000  0.62539000  0.06011000  1.0
  O  O19  1  0.43095000  0.55778000  0.79131000  1.0
  O  O20  1  0.30751000  0.54582000  0.87307000  1.0
  O  O21  1  0.50107000  0.02394000  0.17177000  1.0
  O  O22  1  0.49026000  0.02249000  0.28062000  1.0
  O  O23  1  0.91479000  0.93992000  0.12338000  1.0
  O  O24  1  0.01055000  0.20907000  0.05729000  1.0
  O  O25  1  0.14613000  0.12716000  0.04436000  1.0
  O  O26  1  0.69646000  0.47425000  0.32911000  1.0
  O  O27  1  0.79269000  0.47601000  0.22037000  1.0
  O  O28  1  0.97867000  0.55860000  0.37765000  1.0
  O  O29  1  0.27632000  0.29127000  0.44432000  1.0
  O  O30  1  0.31963000  0.37343000  0.45416000  1.0
  O  O31  1  0.52686000  0.17167000  0.47273000  1.0
  O  O32  1  0.51351000  0.28071000  0.47570000  1.0
  O  O33  1  0.85548000  0.12370000  0.55867000  1.0
  O  O34  1  0.21978000  0.05717000  0.29147000  1.0
  O  O35  1  0.27381000  0.04446000  0.37351000  1.0
  O  O36  1  0.17170000  0.32929000  0.02541000  1.0
  O  O37  1  0.26892000  0.22011000  0.02310000  1.0
  O  O38  1  0.53988000  0.37461000  0.93990000  1.0
  O  O39  1  0.56905000  0.44222000  0.20869000  1.0
  O  O40  1  0.69247000  0.45419000  0.12693000  1.0
