# generated using pymatgen
data_ZnH6(C3N2)2
_symmetry_space_group_name_H-M   'P 1'
_cell_length_a   9.67988000
_cell_length_b   24.42221000
_cell_length_c   25.05269000
_cell_angle_alpha   91.41647000
_cell_angle_beta   90.00000000
_cell_angle_gamma   90.00000000
_symmetry_Int_Tables_number   1
_chemical_formula_structural   ZnH6(C3N2)2
_chemical_formula_sum   'Zn20 H120 C120 N80'
_cell_volume   5920.74789967
_cell_formula_units_Z   20
loop_
 _symmetry_equiv_pos_site_id
 _symmetry_equiv_pos_as_xyz
  1  'x, y, z'
loop_
 _atom_site_type_symbol
 _atom_site_label
 _atom_site_symmetry_multiplicity
 _atom_site_fract_x
 _atom_site_fract_y
 _atom_site_fract_z
 _atom_site_occupancy
  Zn  Zn1  1  0.96867000  0.23402000  0.31857000  1.0
  Zn  Zn2  1  0.74025000  0.01298000  0.27433000  1.0
  Zn  Zn3  1  0.23781000  0.03230000  0.13605000  1.0
  Zn  Zn4  1  0.32852000  0.34032000  0.48253000  1.0
  Zn  Zn5  1  0.44109000  0.21740000  0.68405000  1.0
  Zn  Zn6  1  0.46867000  0.26598000  0.18143000  1.0
  Zn  Zn7  1  0.24025000  0.48701000  0.22567000  1.0
  Zn  Zn8  1  0.73781000  0.46770000  0.36395000  1.0
  Zn  Zn9  1  0.82852000  0.15967000  0.01747000  1.0
  Zn  Zn10  1  0.94109000  0.28260000  0.81595000  1.0
  Zn  Zn11  1  0.03133000  0.76597000  0.68144000  1.0
  Zn  Zn12  1  0.25975000  0.98701000  0.72567000  1.0
  Zn  Zn13  1  0.76219000  0.96770000  0.86396000  1.0
  Zn  Zn14  1  0.67148000  0.65967000  0.51747000  1.0
  Zn  Zn15  1  0.55891000  0.78260000  0.31595000  1.0
  Zn  Zn16  1  0.53132000  0.73402000  0.81857000  1.0
  Zn  Zn17  1  0.75974000  0.51298000  0.77433000  1.0
  Zn  Zn18  1  0.26219000  0.53230000  0.63605000  1.0
  Zn  Zn19  1  0.17148000  0.84032000  0.98253000  1.0
  Zn  Zn20  1  0.05891000  0.71740000  0.18405000  1.0
  H  H1  1  0.17491000  0.28754000  0.23219000  1.0
  H  H2  1  0.20980000  0.14033000  0.31560000  1.0
  H  H3  1  0.44098000  0.15279000  0.25146000  1.0
  H  H4  1  0.94944000  0.11092000  0.27203000  1.0
  H  H5  1  0.74556000  0.18505000  0.40367000  1.0
  H  H6  1  0.63328000  0.08211000  0.38332000  1.0
  H  H7  1  0.42685000  0.98983000  0.23091000  1.0
  H  H8  1  0.72811000  0.10386000  0.18419000  1.0
  H  H9  1  0.49588000  0.11437000  0.12051000  1.0
  H  H10  1  0.94815000  0.05639000  0.18239000  1.0
  H  H11  1  0.20693000  0.92300000  0.21515000  1.0
  H  H12  1  0.97119000  0.91743000  0.27834000  1.0
  H  H13  1  0.53490000  0.43179000  0.45494000  1.0
  H  H14  1  0.47916000  0.28000000  0.37384000  1.0
  H  H15  1  0.68125000  0.33939000  0.32238000  1.0
  H  H16  1  0.36827000  0.41486000  0.59207000  1.0
  H  H17  1  0.12162000  0.53373000  0.51865000  1.0
  H  H18  1  0.15851000  0.44554000  0.44820000  1.0
  H  H19  1  0.23512000  0.27651000  0.37457000  1.0
  H  H20  1  0.99639000  0.33807000  0.50325000  1.0
  H  H21  1  0.82237000  0.29420000  0.42508000  1.0
  H  H22  1  0.28468000  0.30103000  0.60648000  1.0
  H  H23  1  0.58357000  0.26072000  0.48968000  1.0
  H  H24  1  0.64136000  0.20475000  0.58238000  1.0
  H  H25  1  0.13694000  0.20662000  0.73753000  1.0
  H  H26  1  0.19499000  0.36580000  0.80242000  1.0
  H  H27  1  0.42038000  0.33728000  0.73894000  1.0
  H  H28  1  0.60751000  0.89508000  0.24993000  1.0
  H  H29  1  0.66191000  0.86078000  0.41254000  1.0
  H  H30  1  0.73532000  0.96911000  0.39547000  1.0
  H  H31  1  0.67491000  0.21246000  0.26781000  1.0
  H  H32  1  0.70980000  0.35967000  0.18440000  1.0
  H  H33  1  0.94098000  0.34721000  0.24854000  1.0
  H  H34  1  0.44944000  0.38908000  0.22797000  1.0
  H  H35  1  0.24556000  0.31495000  0.09633000  1.0
  H  H36  1  0.13328000  0.41788000  0.11668000  1.0
  H  H37  1  0.92685000  0.51017000  0.26909000  1.0
  H  H38  1  0.22811000  0.39614000  0.31581000  1.0
  H  H39  1  0.99589000  0.38563000  0.37949000  1.0
  H  H40  1  0.44815000  0.44361000  0.31761000  1.0
  H  H41  1  0.70693000  0.57700000  0.28485000  1.0
  H  H42  1  0.47119000  0.58256000  0.22166000  1.0
  H  H43  1  0.03490000  0.06820000  0.04506000  1.0
  H  H44  1  0.97916000  0.22000000  0.12616000  1.0
  H  H45  1  0.18125000  0.16061000  0.17762000  1.0
  H  H46  1  0.86827000  0.08514000  0.90794000  1.0
  H  H47  1  0.62162000  0.96626000  0.98135000  1.0
  H  H48  1  0.65851000  0.05446000  0.05180000  1.0
  H  H49  1  0.73512000  0.22349000  0.12543000  1.0
  H  H50  1  0.49639000  0.16193000  0.99675000  1.0
  H  H51  1  0.32237000  0.20579000  0.07492000  1.0
  H  H52  1  0.78468000  0.19897000  0.89352000  1.0
  H  H53  1  0.08357000  0.23928000  0.01032000  1.0
  H  H54  1  0.14136000  0.29524000  0.91762000  1.0
  H  H55  1  0.63694000  0.29338000  0.76247000  1.0
  H  H56  1  0.69499000  0.13420000  0.69758000  1.0
  H  H57  1  0.92038000  0.16272000  0.76106000  1.0
  H  H58  1  0.10751000  0.60492000  0.25007000  1.0
  H  H59  1  0.16192000  0.63922000  0.08746000  1.0
  H  H60  1  0.23532000  0.53089000  0.10453000  1.0
  H  H61  1  0.82509000  0.71246000  0.76781000  1.0
  H  H62  1  0.79020000  0.85967000  0.68440000  1.0
  H  H63  1  0.55902000  0.84721000  0.74854000  1.0
  H  H64  1  0.05056000  0.88908000  0.72797000  1.0
  H  H65  1  0.25444000  0.81495000  0.59633000  1.0
  H  H66  1  0.36672000  0.91788000  0.61668000  1.0
  H  H67  1  0.57314000  0.01017000  0.76909000  1.0
  H  H68  1  0.27189000  0.89614000  0.81581000  1.0
  H  H69  1  0.50411000  0.88562000  0.87949000  1.0
  H  H70  1  0.05185000  0.94361000  0.81761000  1.0
  H  H71  1  0.79307000  0.07700000  0.78485000  1.0
  H  H72  1  0.02881000  0.08256000  0.72166000  1.0
  H  H73  1  0.46510000  0.56820000  0.54506000  1.0
  H  H74  1  0.52083000  0.72000000  0.62616000  1.0
  H  H75  1  0.31875000  0.66060000  0.67763000  1.0
  H  H76  1  0.63173000  0.58514000  0.40794000  1.0
  H  H77  1  0.87838000  0.46626000  0.48135000  1.0
  H  H78  1  0.84149000  0.55446000  0.55180000  1.0
  H  H79  1  0.76488000  0.72349000  0.62543000  1.0
  H  H80  1  0.00361000  0.66193000  0.49675000  1.0
  H  H81  1  0.17763000  0.70579000  0.57492000  1.0
  H  H82  1  0.71532000  0.69897000  0.39352000  1.0
  H  H83  1  0.41642000  0.73928000  0.51032000  1.0
  H  H84  1  0.35864000  0.79524000  0.41762000  1.0
  H  H85  1  0.86305000  0.79338000  0.26247000  1.0
  H  H86  1  0.80501000  0.63420000  0.19758000  1.0
  H  H87  1  0.57962000  0.66272000  0.26106000  1.0
  H  H88  1  0.39249000  0.10492000  0.75007000  1.0
  H  H89  1  0.33808000  0.13922000  0.58746000  1.0
  H  H90  1  0.26468000  0.03088000  0.60453000  1.0
  H  H91  1  0.32509000  0.78754000  0.73219000  1.0
  H  H92  1  0.29020000  0.64032000  0.81560000  1.0
  H  H93  1  0.05902000  0.65279000  0.75146000  1.0
  H  H94  1  0.55056000  0.61092000  0.77203000  1.0
  H  H95  1  0.75444000  0.68505000  0.90367000  1.0
  H  H96  1  0.86672000  0.58211000  0.88332000  1.0
  H  H97  1  0.07314000  0.48983000  0.73091000  1.0
  H  H98  1  0.77189000  0.60386000  0.68419000  1.0
  H  H99  1  0.00411000  0.61437000  0.62051000  1.0
  H  H100  1  0.55185000  0.55639000  0.68239000  1.0
  H  H101  1  0.29307000  0.42300000  0.71515000  1.0
  H  H102  1  0.52880000  0.41743000  0.77834000  1.0
  H  H103  1  0.96510000  0.93179000  0.95494000  1.0
  H  H104  1  0.02084000  0.77999000  0.87384000  1.0
  H  H105  1  0.81875000  0.83939000  0.82238000  1.0
  H  H106  1  0.13173000  0.91486000  0.09207000  1.0
  H  H107  1  0.37838000  0.03374000  0.01865000  1.0
  H  H108  1  0.34149000  0.94553000  0.94820000  1.0
  H  H109  1  0.26488000  0.77651000  0.87457000  1.0
  H  H110  1  0.50361000  0.83806000  0.00325000  1.0
  H  H111  1  0.67763000  0.79420000  0.92508000  1.0
  H  H112  1  0.21532000  0.80103000  0.10648000  1.0
  H  H113  1  0.91642000  0.76072000  0.98969000  1.0
  H  H114  1  0.85863000  0.70475000  0.08238000  1.0
  H  H115  1  0.36305000  0.70662000  0.23753000  1.0
  H  H116  1  0.30501000  0.86580000  0.30242000  1.0
  H  H117  1  0.07962000  0.83728000  0.23894000  1.0
  H  H118  1  0.89248000  0.39508000  0.74993000  1.0
  H  H119  1  0.83808000  0.36078000  0.91254000  1.0
  H  H120  1  0.76467000  0.46911000  0.89547000  1.0
  C  C1  1  0.21599000  0.24939000  0.24669000  1.0
  C  C2  1  0.23691000  0.17290000  0.28900000  1.0
  C  C3  1  0.35257000  0.17942000  0.25762000  1.0
  C  C4  1  0.87811000  0.11727000  0.30496000  1.0
  C  C5  1  0.77036000  0.15473000  0.37289000  1.0
  C  C6  1  0.71538000  0.10338000  0.36308000  1.0
  C  C7  1  0.47834000  0.02175000  0.20912000  1.0
  C  C8  1  0.63204000  0.08117000  0.18427000  1.0
  C  C9  1  0.51695000  0.08650000  0.15247000  1.0
  C  C10  1  0.98620000  0.01951000  0.20053000  1.0
  C  C11  1  0.11893000  0.95024000  0.21802000  1.0
  C  C12  1  0.00158000  0.94707000  0.24909000  1.0
  C  C13  1  0.54733000  0.39849000  0.42591000  1.0
  C  C14  1  0.51991000  0.32042000  0.38320000  1.0
  C  C15  1  0.62072000  0.34978000  0.35751000  1.0
  C  C16  1  0.30570000  0.43508000  0.56255000  1.0
  C  C17  1  0.17850000  0.49603000  0.52350000  1.0
  C  C18  1  0.19613000  0.45214000  0.48860000  1.0
  C  C19  1  0.14699000  0.28689000  0.39946000  1.0
  C  C20  1  0.02039000  0.31842000  0.46518000  1.0
  C  C21  1  0.93406000  0.29604000  0.42668000  1.0
  C  C22  1  0.37389000  0.28251000  0.58712000  1.0
  C  C23  1  0.52994000  0.26047000  0.52760000  1.0
  C  C24  1  0.55865000  0.23294000  0.57356000  1.0
  C  C25  1  0.18345000  0.24602000  0.74694000  1.0
  C  C26  1  0.21653000  0.32849000  0.77969000  1.0
  C  C27  1  0.32883000  0.31413000  0.74858000  1.0
  C  C28  1  0.63214000  0.90053000  0.29193000  1.0
  C  C29  1  0.66194000  0.88407000  0.37631000  1.0
  C  C30  1  0.69762000  0.93776000  0.36784000  1.0
  C  C31  1  0.71598000  0.25061000  0.25331000  1.0
  C  C32  1  0.73691000  0.32710000  0.21100000  1.0
  C  C33  1  0.85257000  0.32057000  0.24238000  1.0
  C  C34  1  0.37811000  0.38273000  0.19505000  1.0
  C  C35  1  0.27037000  0.34526000  0.12711000  1.0
  C  C36  1  0.21538000  0.39662000  0.13692000  1.0
  C  C37  1  0.97834000  0.47825000  0.29088000  1.0
  C  C38  1  0.13205000  0.41883000  0.31573000  1.0
  C  C39  1  0.01695000  0.41350000  0.34753000  1.0
  C  C40  1  0.48621000  0.48048000  0.29947000  1.0
  C  C41  1  0.61893000  0.54975000  0.28198000  1.0
  C  C42  1  0.50158000  0.55292000  0.25091000  1.0
  C  C43  1  0.04733000  0.10150000  0.07409000  1.0
  C  C44  1  0.01991000  0.17958000  0.11680000  1.0
  C  C45  1  0.12072000  0.15021000  0.14249000  1.0
  C  C46  1  0.80570000  0.06491000  0.93745000  1.0
  C  C47  1  0.67850000  0.00397000  0.97651000  1.0
  C  C48  1  0.69612000  0.04786000  0.01140000  1.0
  C  C49  1  0.64699000  0.21311000  0.10054000  1.0
  C  C50  1  0.52039000  0.18158000  0.03482000  1.0
  C  C51  1  0.43406000  0.20395000  0.07333000  1.0
  C  C52  1  0.87389000  0.21749000  0.91288000  1.0
  C  C53  1  0.02994000  0.23952000  0.97241000  1.0
  C  C54  1  0.05865000  0.26706000  0.92645000  1.0
  C  C55  1  0.68345000  0.25398000  0.75306000  1.0
  C  C56  1  0.71652000  0.17151000  0.72031000  1.0
  C  C57  1  0.82883000  0.18587000  0.75142000  1.0
  C  C58  1  0.13214000  0.59947000  0.20807000  1.0
  C  C59  1  0.16195000  0.61592000  0.12369000  1.0
  C  C60  1  0.19763000  0.56224000  0.13216000  1.0
  C  C61  1  0.78401000  0.75061000  0.75331000  1.0
  C  C62  1  0.76309000  0.82710000  0.71100000  1.0
  C  C63  1  0.64742000  0.82057000  0.74238000  1.0
  C  C64  1  0.12189000  0.88273000  0.69505000  1.0
  C  C65  1  0.22963000  0.84526000  0.62711000  1.0
  C  C66  1  0.28462000  0.89662000  0.63692000  1.0
  C  C67  1  0.52166000  0.97825000  0.79088000  1.0
  C  C68  1  0.36795000  0.91883000  0.81573000  1.0
  C  C69  1  0.48305000  0.91350000  0.84753000  1.0
  C  C70  1  0.01379000  0.98048000  0.79947000  1.0
  C  C71  1  0.88107000  0.04975000  0.78198000  1.0
  C  C72  1  0.99842000  0.05292000  0.75091000  1.0
  C  C73  1  0.45267000  0.60150000  0.57409000  1.0
  C  C74  1  0.48009000  0.67958000  0.61680000  1.0
  C  C75  1  0.37928000  0.65021000  0.64249000  1.0
  C  C76  1  0.69430000  0.56491000  0.43745000  1.0
  C  C77  1  0.82150000  0.50397000  0.47650000  1.0
  C  C78  1  0.80387000  0.54785000  0.51140000  1.0
  C  C79  1  0.85301000  0.71311000  0.60054000  1.0
  C  C80  1  0.97961000  0.68157000  0.53482000  1.0
  C  C81  1  0.06594000  0.70395000  0.57333000  1.0
  C  C82  1  0.62610000  0.71749000  0.41288000  1.0
  C  C83  1  0.47006000  0.73952000  0.47241000  1.0
  C  C84  1  0.44134000  0.76706000  0.42644000  1.0
  C  C85  1  0.81654000  0.75398000  0.25306000  1.0
  C  C86  1  0.78347000  0.67151000  0.22031000  1.0
  C  C87  1  0.67116000  0.68587000  0.25142000  1.0
  C  C88  1  0.36785000  0.09947000  0.70807000  1.0
  C  C89  1  0.33805000  0.11592000  0.62369000  1.0
  C  C90  1  0.30237000  0.06224000  0.63216000  1.0
  C  C91  1  0.28401000  0.74938000  0.74670000  1.0
  C  C92  1  0.26309000  0.67290000  0.78900000  1.0
  C  C93  1  0.14743000  0.67942000  0.75763000  1.0
  C  C94  1  0.62188000  0.61727000  0.80496000  1.0
  C  C95  1  0.72963000  0.65473000  0.87289000  1.0
  C  C96  1  0.78462000  0.60338000  0.86308000  1.0
  C  C97  1  0.02166000  0.52174000  0.70912000  1.0
  C  C98  1  0.86795000  0.58117000  0.68427000  1.0
  C  C99  1  0.98305000  0.58650000  0.65247000  1.0
  C  C100  1  0.51379000  0.51951000  0.70053000  1.0
  C  C101  1  0.38107000  0.45024000  0.71802000  1.0
  C  C102  1  0.49842000  0.44707000  0.74909000  1.0
  C  C103  1  0.95266000  0.89849000  0.92591000  1.0
  C  C104  1  0.98009000  0.82042000  0.88320000  1.0
  C  C105  1  0.87928000  0.84978000  0.85751000  1.0
  C  C106  1  0.19430000  0.93508000  0.06255000  1.0
  C  C107  1  0.32150000  0.99603000  0.02350000  1.0
  C  C108  1  0.30387000  0.95214000  0.98860000  1.0
  C  C109  1  0.35301000  0.78688000  0.89946000  1.0
  C  C110  1  0.47961000  0.81842000  0.96518000  1.0
  C  C111  1  0.56594000  0.79604000  0.92668000  1.0
  C  C112  1  0.12611000  0.78251000  0.08712000  1.0
  C  C113  1  0.97006000  0.76047000  0.02759000  1.0
  C  C114  1  0.94134000  0.73294000  0.07356000  1.0
  C  C115  1  0.31654000  0.74602000  0.24694000  1.0
  C  C116  1  0.28347000  0.82849000  0.27969000  1.0
  C  C117  1  0.17116000  0.81413000  0.24858000  1.0
  C  C118  1  0.86785000  0.40053000  0.79193000  1.0
  C  C119  1  0.83805000  0.38407000  0.87631000  1.0
  C  C120  1  0.80237000  0.43776000  0.86784000  1.0
  N  N1  1  0.15034000  0.21737000  0.28184000  1.0
  N  N2  1  0.33877000  0.22818000  0.23095000  1.0
  N  N3  1  0.87372000  0.16338000  0.33576000  1.0
  N  N4  1  0.78462000  0.07968000  0.32002000  1.0
  N  N5  1  0.60707000  0.03989000  0.22005000  1.0
  N  N6  1  0.41994000  0.04869000  0.16853000  1.0
  N  N7  1  0.91772000  0.99120000  0.23774000  1.0
  N  N8  1  0.10868000  0.99648000  0.18739000  1.0
  N  N9  1  0.63789000  0.39925000  0.38499000  1.0
  N  N10  1  0.47338000  0.35170000  0.42655000  1.0
  N  N11  1  0.24808000  0.48495000  0.57031000  1.0
  N  N12  1  0.27689000  0.41356000  0.51368000  1.0
  N  N13  1  0.15538000  0.31245000  0.44763000  1.0
  N  N14  1  0.01537000  0.27606000  0.38509000  1.0
  N  N15  1  0.41256000  0.29184000  0.53643000  1.0
  N  N16  1  0.45951000  0.24722000  0.61123000  1.0
  N  N17  1  0.30736000  0.26173000  0.72787000  1.0
  N  N18  1  0.12443000  0.28507000  0.77843000  1.0
  N  N19  1  0.62056000  0.86064000  0.32797000  1.0
  N  N20  1  0.67814000  0.94806000  0.31419000  1.0
  N  N21  1  0.65034000  0.28263000  0.21816000  1.0
  N  N22  1  0.83877000  0.27182000  0.26905000  1.0
  N  N23  1  0.37372000  0.33662000  0.16424000  1.0
  N  N24  1  0.28462000  0.42032000  0.17998000  1.0
  N  N25  1  0.10708000  0.46011000  0.27995000  1.0
  N  N26  1  0.91994000  0.45131000  0.33147000  1.0
  N  N27  1  0.41772000  0.50880000  0.26226000  1.0
  N  N28  1  0.60868000  0.50352000  0.31261000  1.0
  N  N29  1  0.13789000  0.10075000  0.11501000  1.0
  N  N30  1  0.97338000  0.14830000  0.07345000  1.0
  N  N31  1  0.74808000  0.01505000  0.92969000  1.0
  N  N32  1  0.77689000  0.08644000  0.98632000  1.0
  N  N33  1  0.65538000  0.18754000  0.05237000  1.0
  N  N34  1  0.51536000  0.22394000  0.11491000  1.0
  N  N35  1  0.91256000  0.20816000  0.96357000  1.0
  N  N36  1  0.95951000  0.25277000  0.88877000  1.0
  N  N37  1  0.80736000  0.23827000  0.77213000  1.0
  N  N38  1  0.62443000  0.21493000  0.72157000  1.0
  N  N39  1  0.12057000  0.63935000  0.17204000  1.0
  N  N40  1  0.17814000  0.55193000  0.18581000  1.0
  N  N41  1  0.84966000  0.78263000  0.71817000  1.0
  N  N42  1  0.66123000  0.77182000  0.76905000  1.0
  N  N43  1  0.12627000  0.83662000  0.66424000  1.0
  N  N44  1  0.21538000  0.92031000  0.67998000  1.0
  N  N45  1  0.39292000  0.96011000  0.77995000  1.0
  N  N46  1  0.58006000  0.95130000  0.83147000  1.0
  N  N47  1  0.08228000  0.00880000  0.76226000  1.0
  N  N48  1  0.89132000  0.00352000  0.81261000  1.0
  N  N49  1  0.36211000  0.60074000  0.61501000  1.0
  N  N50  1  0.52662000  0.64830000  0.57345000  1.0
  N  N51  1  0.75191000  0.51505000  0.42969000  1.0
  N  N52  1  0.72310000  0.58644000  0.48632000  1.0
  N  N53  1  0.84462000  0.68754000  0.55237000  1.0
  N  N54  1  0.98463000  0.72394000  0.61491000  1.0
  N  N55  1  0.58744000  0.70816000  0.46357000  1.0
  N  N56  1  0.54049000  0.75277000  0.38877000  1.0
  N  N57  1  0.69263000  0.73827000  0.27213000  1.0
  N  N58  1  0.87556000  0.71493000  0.22157000  1.0
  N  N59  1  0.37943000  0.13935000  0.67204000  1.0
  N  N60  1  0.32185000  0.05193000  0.68581000  1.0
  N  N61  1  0.34966000  0.71736000  0.78184000  1.0
  N  N62  1  0.16123000  0.72818000  0.73095000  1.0
  N  N63  1  0.62627000  0.66337000  0.83576000  1.0
  N  N64  1  0.71538000  0.57968000  0.82002000  1.0
  N  N65  1  0.89292000  0.53988000  0.72005000  1.0
  N  N66  1  0.08006000  0.54869000  0.66853000  1.0
  N  N67  1  0.58227000  0.49119000  0.73774000  1.0
  N  N68  1  0.39132000  0.49648000  0.68739000  1.0
  N  N69  1  0.86211000  0.89925000  0.88500000  1.0
  N  N70  1  0.02662000  0.85170000  0.92655000  1.0
  N  N71  1  0.25192000  0.98495000  0.07031000  1.0
  N  N72  1  0.22311000  0.91356000  0.01368000  1.0
  N  N73  1  0.34462000  0.81245000  0.94763000  1.0
  N  N74  1  0.48463000  0.77606000  0.88509000  1.0
  N  N75  1  0.08744000  0.79184000  0.03643000  1.0
  N  N76  1  0.04049000  0.74722000  0.11123000  1.0
  N  N77  1  0.19264000  0.76173000  0.22787000  1.0
  N  N78  1  0.37556000  0.78507000  0.27843000  1.0
  N  N79  1  0.87943000  0.36064000  0.82797000  1.0
  N  N80  1  0.82185000  0.44806000  0.81419000  1.0
