# generated using pymatgen
data_MnH16C24(NO2)2
_symmetry_space_group_name_H-M   'P 1'
_cell_length_a   13.88746000
_cell_length_b   17.77704000
_cell_length_c   18.84239000
_cell_angle_alpha   97.69013000
_cell_angle_beta   89.98783000
_cell_angle_gamma   89.99550000
_symmetry_Int_Tables_number   1
_chemical_formula_structural   MnH16C24(NO2)2
_chemical_formula_sum   'Mn8 H128 C192 N16 O32'
_cell_volume   4609.93336030
_cell_formula_units_Z   8
loop_
 _symmetry_equiv_pos_site_id
 _symmetry_equiv_pos_as_xyz
  1  'x, y, z'
loop_
 _atom_site_type_symbol
 _atom_site_label
 _atom_site_symmetry_multiplicity
 _atom_site_fract_x
 _atom_site_fract_y
 _atom_site_fract_z
 _atom_site_occupancy
  Mn  Mn1  1  0.57000000  0.38411000  0.00524000  1.0
  Mn  Mn2  1  0.42501000  0.13107000  0.00519000  1.0
  Mn  Mn3  1  0.06992000  0.61577000  0.49464000  1.0
  Mn  Mn4  1  0.92504000  0.86889000  0.49481000  1.0
  Mn  Mn5  1  0.43000000  0.61589000  0.99476000  1.0
  Mn  Mn6  1  0.57499000  0.86893000  0.99481000  1.0
  Mn  Mn7  1  0.93008000  0.38423000  0.50536000  1.0
  Mn  Mn8  1  0.07496000  0.13111000  0.50519000  1.0
  H  H1  1  0.83667000  0.28525000  0.29946000  1.0
  H  H2  1  0.86988000  0.10010000  0.12860000  1.0
  H  H3  1  0.96338000  0.02863000  0.21052000  1.0
  H  H4  1  0.99385000  0.08693000  0.33680000  1.0
  H  H5  1  0.75804000  0.41869000  0.11380000  1.0
  H  H6  1  0.85926000  0.35056000  0.19474000  1.0
  H  H7  1  0.71174000  0.14483000  0.10852000  1.0
  H  H8  1  0.61954000  0.22032000  0.03089000  1.0
  H  H9  1  0.67124000  0.48522000  0.20970000  1.0
  H  H10  1  0.67011000  0.68482000  0.36766000  1.0
  H  H11  1  0.57706000  0.75359000  0.28329000  1.0
  H  H12  1  0.53942000  0.68913000  0.16041000  1.0
  H  H13  1  0.89935000  0.39612000  0.34341000  1.0
  H  H14  1  0.81442000  0.47034000  0.25945000  1.0
  H  H15  1  0.67173000  0.59315000  0.44284000  1.0
  H  H16  1  0.76587000  0.51543000  0.51884000  1.0
  H  H17  1  0.65822000  0.96518000  0.20101000  1.0
  H  H18  1  0.62479000  0.14656000  0.37541000  1.0
  H  H19  1  0.52999000  0.21950000  0.29596000  1.0
  H  H20  1  0.50127000  0.16529000  0.16837000  1.0
  H  H21  1  0.75342000  0.82981000  0.38092000  1.0
  H  H22  1  0.64978000  0.89590000  0.29970000  1.0
  H  H23  1  0.78004000  0.10635000  0.39440000  1.0
  H  H24  1  0.87801000  0.03200000  0.47024000  1.0
  H  H25  1  0.34453000  0.22892000  0.21418000  1.0
  H  H26  1  0.40622000  0.40113000  0.39187000  1.0
  H  H27  1  0.50224000  0.47168000  0.31093000  1.0
  H  H28  1  0.51479000  0.42195000  0.18043000  1.0
  H  H29  1  0.24589000  0.09096000  0.39046000  1.0
  H  H30  1  0.35091000  0.15448000  0.30873000  1.0
  H  H31  1  0.24913000  0.36852000  0.41832000  1.0
  H  H32  1  0.14694000  0.29680000  0.49308000  1.0
  H  H33  1  0.33671000  0.71475000  0.20044000  1.0
  H  H34  1  0.36991000  0.89986000  0.37133000  1.0
  H  H35  1  0.46341000  0.97132000  0.28939000  1.0
  H  H36  1  0.49388000  0.91308000  0.16310000  1.0
  H  H37  1  0.25803000  0.58133000  0.38619000  1.0
  H  H38  1  0.35928000  0.64941000  0.30523000  1.0
  H  H39  1  0.21176000  0.85518000  0.39147000  1.0
  H  H40  1  0.11955000  0.77973000  0.46913000  1.0
  H  H41  1  0.17113000  0.51478000  0.29050000  1.0
  H  H42  1  0.17018000  0.31535000  0.13239000  1.0
  H  H43  1  0.07703000  0.24643000  0.21664000  1.0
  H  H44  1  0.03938000  0.31086000  0.33966000  1.0
  H  H45  1  0.39941000  0.60384000  0.15646000  1.0
  H  H46  1  0.31446000  0.52975000  0.24053000  1.0
  H  H47  1  0.17171000  0.40689000  0.05722000  1.0
  H  H48  1  0.26590000  0.48450000  0.98115000  1.0
  H  H49  1  0.15823000  0.03482000  0.29900000  1.0
  H  H50  1  0.12479000  0.85347000  0.12460000  1.0
  H  H51  1  0.03000000  0.78054000  0.20407000  1.0
  H  H52  1  0.00125000  0.83472000  0.33167000  1.0
  H  H53  1  0.25342000  0.17018000  0.11907000  1.0
  H  H54  1  0.14976000  0.10412000  0.20033000  1.0
  H  H55  1  0.28005000  0.89365000  0.10559000  1.0
  H  H56  1  0.37803000  0.96799000  0.02973000  1.0
  H  H57  1  0.84455000  0.77110000  0.28582000  1.0
  H  H58  1  0.90624000  0.59883000  0.10811000  1.0
  H  H59  1  0.00226000  0.52829000  0.18905000  1.0
  H  H60  1  0.01475000  0.57803000  0.31953000  1.0
  H  H61  1  0.74586000  0.90904000  0.10954000  1.0
  H  H62  1  0.85090000  0.84551000  0.19122000  1.0
  H  H63  1  0.74913000  0.63148000  0.08168000  1.0
  H  H64  1  0.64693000  0.70321000  0.00695000  1.0
  H  H65  1  0.16333000  0.71475000  0.70053000  1.0
  H  H66  1  0.13012000  0.89990000  0.87140000  1.0
  H  H67  1  0.03662000  0.97137000  0.78947000  1.0
  H  H68  1  0.00615000  0.91307000  0.66320000  1.0
  H  H69  1  0.24196000  0.58131000  0.88619000  1.0
  H  H70  1  0.14074000  0.64943000  0.80526000  1.0
  H  H71  1  0.28826000  0.85517000  0.89148000  1.0
  H  H72  1  0.38046000  0.77968000  0.96911000  1.0
  H  H73  1  0.32876000  0.51478000  0.79030000  1.0
  H  H74  1  0.32989000  0.31518000  0.63234000  1.0
  H  H75  1  0.42294000  0.24641000  0.71670000  1.0
  H  H76  1  0.46059000  0.31087000  0.83959000  1.0
  H  H77  1  0.10066000  0.60388000  0.65658000  1.0
  H  H78  1  0.18558000  0.52966000  0.74055000  1.0
  H  H79  1  0.32827000  0.40685000  0.55716000  1.0
  H  H80  1  0.23413000  0.48457000  0.48116000  1.0
  H  H81  1  0.34178000  0.03482000  0.79899000  1.0
  H  H82  1  0.37522000  0.85344000  0.62459000  1.0
  H  H83  1  0.47001000  0.78050000  0.70403000  1.0
  H  H84  1  0.49873000  0.83470000  0.83163000  1.0
  H  H85  1  0.24658000  0.17018000  0.61907000  1.0
  H  H86  1  0.35022000  0.10410000  0.70030000  1.0
  H  H87  1  0.21996000  0.89365000  0.60559000  1.0
  H  H88  1  0.12199000  0.96800000  0.52976000  1.0
  H  H89  1  0.65547000  0.77108000  0.78581000  1.0
  H  H90  1  0.59378000  0.59886000  0.60812000  1.0
  H  H91  1  0.49776000  0.52832000  0.68907000  1.0
  H  H92  1  0.48521000  0.57805000  0.81957000  1.0
  H  H93  1  0.75412000  0.90903000  0.60954000  1.0
  H  H94  1  0.64909000  0.84552000  0.69126000  1.0
  H  H95  1  0.75088000  0.63148000  0.58168000  1.0
  H  H96  1  0.85306000  0.70320000  0.50692000  1.0
  H  H97  1  0.66329000  0.28525000  0.79956000  1.0
  H  H98  1  0.63009000  0.10014000  0.62867000  1.0
  H  H99  1  0.53659000  0.02867000  0.71060000  1.0
  H  H100  1  0.50612000  0.08692000  0.83690000  1.0
  H  H101  1  0.74197000  0.41867000  0.61381000  1.0
  H  H102  1  0.64073000  0.35059000  0.69477000  1.0
  H  H103  1  0.78824000  0.14481000  0.60853000  1.0
  H  H104  1  0.88045000  0.22027000  0.53086000  1.0
  H  H105  1  0.82887000  0.48522000  0.70950000  1.0
  H  H106  1  0.82982000  0.68464000  0.86761000  1.0
  H  H107  1  0.92297000  0.75357000  0.78335000  1.0
  H  H108  1  0.96062000  0.68914000  0.66034000  1.0
  H  H109  1  0.60059000  0.39616000  0.84354000  1.0
  H  H110  1  0.68555000  0.47025000  0.75947000  1.0
  H  H111  1  0.82829000  0.59311000  0.94277000  1.0
  H  H112  1  0.73410000  0.51549000  0.01884000  1.0
  H  H113  1  0.84178000  0.96517000  0.70100000  1.0
  H  H114  1  0.87521000  0.14653000  0.87539000  1.0
  H  H115  1  0.97000000  0.21946000  0.79593000  1.0
  H  H116  1  0.99875000  0.16528000  0.66833000  1.0
  H  H117  1  0.74658000  0.82982000  0.88092000  1.0
  H  H118  1  0.85024000  0.89587000  0.79967000  1.0
  H  H119  1  0.71995000  0.10635000  0.89441000  1.0
  H  H120  1  0.62197000  0.03201000  0.97027000  1.0
  H  H121  1  0.15545000  0.22890000  0.71418000  1.0
  H  H122  1  0.09376000  0.40117000  0.89188000  1.0
  H  H123  1  0.99774000  0.47171000  0.81095000  1.0
  H  H124  1  0.98525000  0.42197000  0.68047000  1.0
  H  H125  1  0.25414000  0.09096000  0.89046000  1.0
  H  H126  1  0.14910000  0.15449000  0.80878000  1.0
  H  H127  1  0.25088000  0.36852000  0.91832000  1.0
  H  H128  1  0.35307000  0.29679000  0.99304000  1.0
  C  C1  1  0.93298000  0.22336000  0.40225000  1.0
  C  C2  1  0.91734000  0.18964000  0.32538000  1.0
  C  C3  1  0.86561000  0.22979000  0.27888000  1.0
  C  C4  1  0.84833000  0.19828000  0.20776000  1.0
  C  C5  1  0.88300000  0.12491000  0.18374000  1.0
  C  C6  1  0.93556000  0.08494000  0.22963000  1.0
  C  C7  1  0.95307000  0.11714000  0.30022000  1.0
  C  C8  1  0.75092000  0.35777000  0.11407000  1.0
  C  C9  1  0.80599000  0.31979000  0.15976000  1.0
  C  C10  1  0.79382000  0.24118000  0.15925000  1.0
  C  C11  1  0.72642000  0.20513000  0.11079000  1.0
  C  C12  1  0.67391000  0.24734000  0.06729000  1.0
  C  C13  1  0.57920000  0.54423000  0.10371000  1.0
  C  C14  1  0.60351000  0.58351000  0.17763000  1.0
  C  C15  1  0.65367000  0.54464000  0.22592000  1.0
  C  C16  1  0.67862000  0.58028000  0.29452000  1.0
  C  C17  1  0.65027000  0.65613000  0.31497000  1.0
  C  C18  1  0.59946000  0.69509000  0.26728000  1.0
  C  C19  1  0.57724000  0.65934000  0.19865000  1.0
  C  C20  1  0.84793000  0.44014000  0.36309000  1.0
  C  C21  1  0.79940000  0.48111000  0.31650000  1.0
  C  C22  1  0.73328000  0.53774000  0.34332000  1.0
  C  C23  1  0.72170000  0.55034000  0.41804000  1.0
  C  C24  1  0.77359000  0.50684000  0.46090000  1.0
  C  C25  1  0.56677000  0.03137000  0.09961000  1.0
  C  C26  1  0.57852000  0.06225000  0.17730000  1.0
  C  C27  1  0.63022000  0.02068000  0.22256000  1.0
  C  C28  1  0.64799000  0.05059000  0.29394000  1.0
  C  C29  1  0.61187000  0.12299000  0.31993000  1.0
  C  C30  1  0.55844000  0.16386000  0.27539000  1.0
  C  C31  1  0.54185000  0.13391000  0.20412000  1.0
  C  C32  1  0.75634000  0.89113000  0.38195000  1.0
  C  C33  1  0.69952000  0.92821000  0.33669000  1.0
  C  C34  1  0.70546000  0.00766000  0.34051000  1.0
  C  C35  1  0.77007000  0.04528000  0.39034000  1.0
  C  C36  1  0.82553000  0.00395000  0.43267000  1.0
  C  C37  1  0.43820000  0.29223000  0.11135000  1.0
  C  C38  1  0.43032000  0.32248000  0.18979000  1.0
  C  C39  1  0.37811000  0.28226000  0.23603000  1.0
  C  C40  1  0.36740000  0.31026000  0.30881000  1.0
  C  C41  1  0.41214000  0.37949000  0.33520000  1.0
  C  C42  1  0.46604000  0.41911000  0.28972000  1.0
  C  C43  1  0.47442000  0.39132000  0.21700000  1.0
  C  C44  1  0.24933000  0.15253000  0.39463000  1.0
  C  C45  1  0.30723000  0.18844000  0.34901000  1.0
  C  C46  1  0.30987000  0.26825000  0.35647000  1.0
  C  C47  1  0.25291000  0.30695000  0.41108000  1.0
  C  C48  1  0.19527000  0.26700000  0.45336000  1.0
  C  C49  1  0.43298000  0.77664000  0.09759000  1.0
  C  C50  1  0.41738000  0.81035000  0.17449000  1.0
  C  C51  1  0.36565000  0.77022000  0.22101000  1.0
  C  C52  1  0.34834000  0.80170000  0.29215000  1.0
  C  C53  1  0.38303000  0.87507000  0.31618000  1.0
  C  C54  1  0.43558000  0.91502000  0.27027000  1.0
  C  C55  1  0.45310000  0.88285000  0.19966000  1.0
  C  C56  1  0.25091000  0.64224000  0.38591000  1.0
  C  C57  1  0.30599000  0.68021000  0.34020000  1.0
  C  C58  1  0.29383000  0.75881000  0.34069000  1.0
  C  C59  1  0.22642000  0.79488000  0.38919000  1.0
  C  C60  1  0.17390000  0.75268000  0.43270000  1.0
  C  C61  1  0.07925000  0.45596000  0.39621000  1.0
  C  C62  1  0.10366000  0.41642000  0.32238000  1.0
  C  C63  1  0.15375000  0.45537000  0.27411000  1.0
  C  C64  1  0.17860000  0.41984000  0.20548000  1.0
  C  C65  1  0.15024000  0.34400000  0.18505000  1.0
  C  C66  1  0.09944000  0.30493000  0.23269000  1.0
  C  C67  1  0.07730000  0.34060000  0.30138000  1.0
  C  C68  1  0.34795000  0.55986000  0.13685000  1.0
  C  C69  1  0.29940000  0.51896000  0.18349000  1.0
  C  C70  1  0.23323000  0.46238000  0.15668000  1.0
  C  C71  1  0.22167000  0.44970000  0.08199000  1.0
  C  C72  1  0.27359000  0.49313000  0.03909000  1.0
  C  C73  1  0.06679000  0.96861000  0.40042000  1.0
  C  C74  1  0.07850000  0.93777000  0.32274000  1.0
  C  C75  1  0.13021000  0.97934000  0.27746000  1.0
  C  C76  1  0.14799000  0.94944000  0.20607000  1.0
  C  C77  1  0.11188000  0.87704000  0.18009000  1.0
  C  C78  1  0.05844000  0.83618000  0.22463000  1.0
  C  C79  1  0.04184000  0.86612000  0.29592000  1.0
  C  C80  1  0.25634000  0.10887000  0.11805000  1.0
  C  C81  1  0.19951000  0.07180000  0.16333000  1.0
  C  C82  1  0.20546000  0.99236000  0.15950000  1.0
  C  C83  1  0.27007000  0.95472000  0.10965000  1.0
  C  C84  1  0.32555000  0.99603000  0.06731000  1.0
  C  C85  1  0.93826000  0.70774000  0.38862000  1.0
  C  C86  1  0.93033000  0.67751000  0.31017000  1.0
  C  C87  1  0.87811000  0.71775000  0.26396000  1.0
  C  C88  1  0.86740000  0.68973000  0.19118000  1.0
  C  C89  1  0.91214000  0.62050000  0.16478000  1.0
  C  C90  1  0.96604000  0.58087000  0.21025000  1.0
  C  C91  1  0.97441000  0.60866000  0.28296000  1.0
  C  C92  1  0.74930000  0.84746000  0.10537000  1.0
  C  C93  1  0.80722000  0.81155000  0.15097000  1.0
  C  C94  1  0.80985000  0.73174000  0.14352000  1.0
  C  C95  1  0.75291000  0.69304000  0.08893000  1.0
  C  C96  1  0.69526000  0.73300000  0.04666000  1.0
  C  C97  1  0.06703000  0.77664000  0.59775000  1.0
  C  C98  1  0.08266000  0.81036000  0.67462000  1.0
  C  C99  1  0.13439000  0.77021000  0.72111000  1.0
  C  C100  1  0.15167000  0.80172000  0.79223000  1.0
  C  C101  1  0.11700000  0.87509000  0.81626000  1.0
  C  C102  1  0.06444000  0.91506000  0.77036000  1.0
  C  C103  1  0.04694000  0.88286000  0.69978000  1.0
  C  C104  1  0.24908000  0.64223000  0.88593000  1.0
  C  C105  1  0.19401000  0.68021000  0.84024000  1.0
  C  C106  1  0.20618000  0.75882000  0.84075000  1.0
  C  C107  1  0.27359000  0.79487000  0.88921000  1.0
  C  C108  1  0.32609000  0.75266000  0.93271000  1.0
  C  C109  1  0.42080000  0.45577000  0.89629000  1.0
  C  C110  1  0.39649000  0.41648000  0.82236000  1.0
  C  C111  1  0.34633000  0.45536000  0.77407000  1.0
  C  C112  1  0.32138000  0.41972000  0.70548000  1.0
  C  C113  1  0.34973000  0.34387000  0.68503000  1.0
  C  C114  1  0.40054000  0.30491000  0.73272000  1.0
  C  C115  1  0.42277000  0.34066000  0.80135000  1.0
  C  C116  1  0.15207000  0.55986000  0.63691000  1.0
  C  C117  1  0.20060000  0.51889000  0.68350000  1.0
  C  C118  1  0.26672000  0.46225000  0.65667000  1.0
  C  C119  1  0.27830000  0.44965000  0.58196000  1.0
  C  C120  1  0.22641000  0.49315000  0.53910000  1.0
  C  C121  1  0.43323000  0.96863000  0.90038000  1.0
  C  C122  1  0.42148000  0.93775000  0.82270000  1.0
  C  C123  1  0.36978000  0.97932000  0.77743000  1.0
  C  C124  1  0.35201000  0.94941000  0.70606000  1.0
  C  C125  1  0.38813000  0.87701000  0.68007000  1.0
  C  C126  1  0.44156000  0.83614000  0.72460000  1.0
  C  C127  1  0.45815000  0.86609000  0.79588000  1.0
  C  C128  1  0.24366000  0.10887000  0.61805000  1.0
  C  C129  1  0.30048000  0.07179000  0.66331000  1.0
  C  C130  1  0.29455000  0.99234000  0.65949000  1.0
  C  C131  1  0.22994000  0.95472000  0.60965000  1.0
  C  C132  1  0.17447000  0.99604000  0.56733000  1.0
  C  C133  1  0.56180000  0.70776000  0.88865000  1.0
  C  C134  1  0.56968000  0.67751000  0.81021000  1.0
  C  C135  1  0.62189000  0.71773000  0.76397000  1.0
  C  C136  1  0.63260000  0.68973000  0.69119000  1.0
  C  C137  1  0.58786000  0.62051000  0.66480000  1.0
  C  C138  1  0.53397000  0.58089000  0.71028000  1.0
  C  C139  1  0.52558000  0.60867000  0.78300000  1.0
  C  C140  1  0.75068000  0.84746000  0.60537000  1.0
  C  C141  1  0.69277000  0.81156000  0.65099000  1.0
  C  C142  1  0.69013000  0.73174000  0.64353000  1.0
  C  C143  1  0.74709000  0.69305000  0.58892000  1.0
  C  C144  1  0.80473000  0.73300000  0.54664000  1.0
  C  C145  1  0.56702000  0.22336000  0.90240000  1.0
  C  C146  1  0.58262000  0.18965000  0.82550000  1.0
  C  C147  1  0.63435000  0.22978000  0.77898000  1.0
  C  C148  1  0.65166000  0.19830000  0.70785000  1.0
  C  C149  1  0.61698000  0.12493000  0.68382000  1.0
  C  C150  1  0.56443000  0.08498000  0.72973000  1.0
  C  C151  1  0.54690000  0.11714000  0.80033000  1.0
  C  C152  1  0.74909000  0.35776000  0.61409000  1.0
  C  C153  1  0.69401000  0.31979000  0.65979000  1.0
  C  C154  1  0.70617000  0.24119000  0.65930000  1.0
  C  C155  1  0.77358000  0.20512000  0.61081000  1.0
  C  C156  1  0.82610000  0.24732000  0.56729000  1.0
  C  C157  1  0.92075000  0.54404000  0.60378000  1.0
  C  C158  1  0.89634000  0.58357000  0.67762000  1.0
  C  C159  1  0.84626000  0.54463000  0.72589000  1.0
  C  C160  1  0.82140000  0.58016000  0.79452000  1.0
  C  C161  1  0.84977000  0.65599000  0.81495000  1.0
  C  C162  1  0.90056000  0.69507000  0.76731000  1.0
  C  C163  1  0.92270000  0.65940000  0.69861000  1.0
  C  C164  1  0.65205000  0.44014000  0.86315000  1.0
  C  C165  1  0.70061000  0.48104000  0.81651000  1.0
  C  C166  1  0.76677000  0.53762000  0.84331000  1.0
  C  C167  1  0.77833000  0.55030000  0.91801000  1.0
  C  C168  1  0.72641000  0.50687000  0.96091000  1.0
  C  C169  1  0.93322000  0.03139000  0.59958000  1.0
  C  C170  1  0.92150000  0.06223000  0.67725000  1.0
  C  C171  1  0.86980000  0.02066000  0.72254000  1.0
  C  C172  1  0.85201000  0.05056000  0.79392000  1.0
  C  C173  1  0.88812000  0.12295000  0.81990000  1.0
  C  C174  1  0.94156000  0.16382000  0.77536000  1.0
  C  C175  1  0.95816000  0.13388000  0.70408000  1.0
  C  C176  1  0.74366000  0.89112000  0.88195000  1.0
  C  C177  1  0.80049000  0.92819000  0.83667000  1.0
  C  C178  1  0.79454000  0.00764000  0.84050000  1.0
  C  C179  1  0.72993000  0.04528000  0.89035000  1.0
  C  C180  1  0.67445000  0.00397000  0.93269000  1.0
  C  C181  1  0.06174000  0.29225000  0.61137000  1.0
  C  C182  1  0.06968000  0.32249000  0.68983000  1.0
  C  C183  1  0.12189000  0.28225000  0.73604000  1.0
  C  C184  1  0.13260000  0.31026000  0.80882000  1.0
  C  C185  1  0.08786000  0.37950000  0.83522000  1.0
  C  C186  1  0.03396000  0.41913000  0.78975000  1.0
  C  C187  1  0.02559000  0.39134000  0.71704000  1.0
  C  C188  1  0.25070000  0.15253000  0.89463000  1.0
  C  C189  1  0.19278000  0.18844000  0.84903000  1.0
  C  C190  1  0.19015000  0.26826000  0.85648000  1.0
  C  C191  1  0.24709000  0.30695000  0.91107000  1.0
  C  C192  1  0.30474000  0.26700000  0.95334000  1.0
  N  N1  1  0.68495000  0.32298000  0.06836000  1.0
  N  N2  1  0.83575000  0.45185000  0.43478000  1.0
  N  N3  1  0.81914000  0.92772000  0.42926000  1.0
  N  N4  1  0.19270000  0.19035000  0.44580000  1.0
  N  N5  1  0.18492000  0.67704000  0.43163000  1.0
  N  N6  1  0.33574000  0.54812000  0.06517000  1.0
  N  N7  1  0.31914000  0.07227000  0.07073000  1.0
  N  N8  1  0.69267000  0.80965000  0.05422000  1.0
  N  N9  1  0.31506000  0.67702000  0.93164000  1.0
  N  N10  1  0.16425000  0.54815000  0.56521000  1.0
  N  N11  1  0.18086000  0.07228000  0.57074000  1.0
  N  N12  1  0.80730000  0.80964000  0.55420000  1.0
  N  N13  1  0.81508000  0.32295000  0.56837000  1.0
  N  N14  1  0.66426000  0.45188000  0.93483000  1.0
  N  N15  1  0.68086000  0.92773000  0.92927000  1.0
  N  N16  1  0.30733000  0.19035000  0.94577000  1.0
  O  O1  1  0.97106000  0.18099000  0.44386000  1.0
  O  O2  1  0.90484000  0.29137000  0.42080000  1.0
  O  O3  1  0.54786000  0.58388000  0.05755000  1.0
  O  O4  1  0.59532000  0.47289000  0.09269000  1.0
  O  O5  1  0.53822000  0.07649000  0.05688000  1.0
  O  O6  1  0.59049000  0.96210000  0.08172000  1.0
  O  O7  1  0.46595000  0.33720000  0.06842000  1.0
  O  O8  1  0.41351000  0.22314000  0.09304000  1.0
  O  O9  1  0.47091000  0.81891000  0.05584000  1.0
  O  O10  1  0.40483000  0.70862000  0.07917000  1.0
  O  O11  1  0.04793000  0.41644000  0.44251000  1.0
  O  O12  1  0.09525000  0.52735000  0.40711000  1.0
  O  O13  1  0.03823000  0.92346000  0.44315000  1.0
  O  O14  1  0.09052000  0.03789000  0.41837000  1.0
  O  O15  1  0.96605000  0.66281000  0.43151000  1.0
  O  O16  1  0.91352000  0.77683000  0.40694000  1.0
  O  O17  1  0.02894000  0.81901000  0.55614000  1.0
  O  O18  1  0.09516000  0.70863000  0.57920000  1.0
  O  O19  1  0.45214000  0.41612000  0.94245000  1.0
  O  O20  1  0.40469000  0.52711000  0.90731000  1.0
  O  O21  1  0.46178000  0.92351000  0.94312000  1.0
  O  O22  1  0.40951000  0.03790000  0.91827000  1.0
  O  O23  1  0.53406000  0.66280000  0.93158000  1.0
  O  O24  1  0.58649000  0.77686000  0.90695000  1.0
  O  O25  1  0.52909000  0.18108000  0.94416000  1.0
  O  O26  1  0.59518000  0.29137000  0.92083000  1.0
  O  O27  1  0.95207000  0.58356000  0.55749000  1.0
  O  O28  1  0.90475000  0.47265000  0.59289000  1.0
  O  O29  1  0.96177000  0.07654000  0.55684000  1.0
  O  O30  1  0.90948000  0.96211000  0.58162000  1.0
  O  O31  1  0.03396000  0.33718000  0.56849000  1.0
  O  O32  1  0.08648000  0.22317000  0.59305000  1.0
