# generated using pymatgen
data_H5C14SN5O2F3
_symmetry_space_group_name_H-M   'P 1'
_cell_length_a   15.13190000
_cell_length_b   15.13190000
_cell_length_c   90.79130000
_cell_angle_alpha   90.00000000
_cell_angle_beta   90.00000000
_cell_angle_gamma   120.00000000
_symmetry_Int_Tables_number   1
_chemical_formula_structural   H5C14SN5O2F3
_chemical_formula_sum   'H60 C168 S12 N60 O24 F36'
_cell_volume   18003.70098979
_cell_formula_units_Z   12
loop_
 _symmetry_equiv_pos_site_id
 _symmetry_equiv_pos_as_xyz
  1  'x, y, z'
loop_
 _atom_site_type_symbol
 _atom_site_label
 _atom_site_symmetry_multiplicity
 _atom_site_fract_x
 _atom_site_fract_y
 _atom_site_fract_z
 _atom_site_occupancy
  C  2  1  0.99407600  0.10387700  0.41378500  1
  C  5  1  0.99583750  0.99010450  0.58867800  1
  C  6  1  0.99623500  0.94760800  0.61508500  1
  C  7  1  0.99392100  0.97337600  0.70387300  1
  C  11  1  0.99214050  0.00237250  0.92213500  1
  C  15  1  0.99150750  0.02171850  0.84067000  1
  C  16  1  0.99056150  0.97656450  0.49168600  1
  C  23  1  0.98793250  0.01479950  0.82536900  1
  C  25  1  0.98707650  0.84560550  0.24427600  1
  C  26  1  0.98811150  0.12308650  0.38747700  1
  C  29  1  0.88996150  0.92075850  0.92014900  1
  C  30  1  0.81772450  0.87712950  0.93174500  1
  C  31  1  0.84935750  0.92264950  0.94580500  1
  C  32  1  0.94956900  0.00194000  0.94856200  1
  C  33  1  0.01945350  0.03937750  0.93678300  1
  C  37  1  0.06487850  0.04357150  0.91031900  1
  C  38  1  0.05202800  0.98829300  0.89708600  1
  C  39  1  0.12526500  0.02488600  0.88571300  1
  C  40  1  0.21503700  0.11980800  0.88748500  1
  C  41  1  0.23010650  0.18254150  0.89987000  1
  C  42  1  0.15410650  0.14210150  0.91101500  1
  C  45  1  0.31841900  0.28143800  0.90067500  1
  C  46  1  0.10309450  0.97462550  0.87187000  1
  C  47  1  0.97941300  0.03896300  0.96314600  1
  C  48  1  0.71760400  0.79178100  0.92983600  1
  C  53  1  0.00907900  0.00746600  0.25539700  1
  C  54  1  0.02965200  0.10964600  0.25340800  1
  C  55  1  0.05816050  0.18184750  0.26500700  1
  C  56  1  0.07180950  0.15014850  0.27907600  1
  C  57  1  0.05083400  0.04992300  0.28183000  1
  C  58  1  0.01854250  0.98007350  0.27004900  1
  C  61  1  0.97769150  0.93478050  0.24357700  1
  C  62  1  0.93528900  0.94763400  0.23034200  1
  C  63  1  0.89872250  0.87442350  0.21896600  1
  C  64  1  0.90416600  0.78479700  0.22072500  1
  C  65  1  0.95169450  0.76967250  0.23312200  1
  C  70  1  0.96236400  0.68141300  0.23391700  1
  C  71  1  0.87076050  0.89677350  0.20512400  1
  C  72  1  0.05760050  0.01998550  0.29642200  1
  C  73  1  0.07298100  0.28197600  0.26310100  1
  C  79  1  0.07728150  0.96931750  0.58666000  1
  C  80  1  0.12073550  0.94032350  0.59823400  1
  C  81  1  0.07532750  0.92645450  0.61230200  1
  C  83  1  0.95897550  0.98044850  0.60333200  1
  C  87  1  0.95473400  0.02192900  0.57688500  1
  C  88  1  0.01009000  0.06462800  0.56366400  1
  C  89  1  0.97362250  0.10166750  0.55232800  1
  C  90  1  0.87861700  0.09630200  0.55410300  1
  C  91  1  0.81586500  0.04851500  0.56647900  1
  C  92  1  0.85624800  0.01271800  0.57759900  1
  C  96  1  0.71693650  0.03784450  0.56727800  1
  C  97  1  0.02380250  0.12973950  0.53849300  1
  C  98  1  0.95960100  0.94070000  0.62968000  1
  C  99  1  0.20588900  0.92528200  0.59629400  1
  C  104  1  0.01414400  0.02173800  0.41212300  1
  C  105  1  0.98169300  0.15676900  0.40176700  1
  C  107  1  0.00758350  0.04243250  0.38518100  1
  C  108  1  0.01896100  0.99199100  0.39743000  1
  C  112  1  0.03448100  0.97503400  0.42441800  1
  C  113  1  0.07179200  0.02806100  0.43794100  1
  C  114  1  0.10070900  0.98797600  0.44981700  1
  C  115  1  0.09214500  0.89138200  0.44816600  1
  C  116  1  0.05030300  0.83134800  0.43535900  1
  C  117  1  0.02247250  0.87546850  0.42373800  1
  C  120  1  0.03964800  0.73239400  0.43455400  1
  C  121  1  0.13112500  0.03967800  0.46358400  1
  C  122  1  0.02477750  0.01957050  0.37073500  1
  C  123  1  0.96427650  0.24045950  0.40352000  1
  C  128  1  0.97579650  0.99072050  0.07848100  1
  C  129  1  0.89372750  0.88849850  0.08016400  1
  C  130  1  0.84059400  0.82315900  0.06816600  1
  C  131  1  0.87404600  0.86310900  0.05386800  1
  C  132  1  0.95471400  0.96318300  0.05153100  1
  C  133  1  0.00546650  0.02503750  0.06377400  1
  C  137  1  0.02253300  0.05786300  0.09077200  1
  C  138  1  0.97006100  0.04162300  0.10436000  1
  C  139  1  0.01008150  0.11082450  0.11621400  1
  C  140  1  0.10604300  0.19953400  0.11450700  1
  C  141  1  0.16575450  0.21800250  0.10166000  1
  C  142  1  0.12172050  0.14597650  0.09004400  1
  C  146  1  0.26445300  0.30658100  0.10082000  1
  C  147  1  0.95925050  0.08848050  0.13005200  1
  C  148  1  0.97741550  0.00275750  0.03704700  1
  C  149  1  0.75678700  0.72214400  0.06993600  1
  C  154  1  0.00694700  0.98446000  0.74528000  1
  C  155  1  0.10916050  0.00450750  0.74693000  1
  C  156  1  0.17433900  0.01674400  0.73490500  1
  C  157  1  0.13415200  0.01015500  0.72061900  1
  C  158  1  0.03398800  0.99058100  0.71832700  1
  C  159  1  0.97233150  0.97954350  0.73058500  1
  C  163  1  0.94003050  0.96438850  0.75758800  1
  C  164  1  0.95633750  0.92825350  0.77118000  1
  C  165  1  0.88726100  0.89932200  0.78304600  1
  C  166  1  0.79869350  0.90685350  0.78135100  1
  C  167  1  0.78016200  0.94798700  0.76849900  1
  C  168  1  0.85205900  0.97571100  0.75687200  1
  C  172  1  0.69164600  0.95822800  0.76766400  1
  C  173  1  0.90956100  0.87070200  0.79687800  1
  C  175  1  0.27540650  0.03401450  0.73663700  1
  C  180  1  0.07581650  0.04420750  0.98470900  1
  C  181  1  0.11583450  0.98913950  0.99193700  1
  C  182  1  0.11903900  0.98700000  0.00730800  1
  C  183  1  0.08204200  0.04039800  0.01566000  1
  C  187  1  0.17560050  0.88232750  0.99555700  1
  C  189  1  0.21206250  0.81177550  0.99137200  1
  C  197  1  0.96534350  0.92460750  0.31799700  1
  C  198  1  0.87001400  0.88459600  0.32515300  1
  C  199  1  0.86411250  0.88150950  0.34052200  1
  C  200  1  0.95422850  0.91891050  0.34895700  1
  C  204  1  0.70312850  0.82382650  0.32861500  1
  C  206  1  0.59613600  0.78654900  0.32433000  1
  C  214  1  0.95612750  0.03238850  0.65132000  1
  C  215  1  0.01139050  0.12753750  0.65852500  1
  C  216  1  0.01394850  0.13305050  0.67389400  1
  C  217  1  0.96090650  0.04273850  0.68227700  1
  C  221  1  0.11766500  0.29428800  0.66208400  1
  C  223  1  0.18775500  0.40132900  0.65786300  1
  C  231  1  0.41132600  0.45373000  0.91114600  1
  C  232  1  0.40710300  0.53475800  0.91822800  1
  C  233  1  0.49539950  0.62948650  0.92039100  1
  C  234  1  0.59149350  0.64418150  0.91578100  1
  C  238  1  0.33970800  0.62403400  0.92785600  1
  C  240  1  0.25824050  0.64300650  0.93302900  1
  C  248  1  0.04154550  0.58839750  0.24441800  1
  C  249  1  0.12667250  0.59254550  0.25153000  1
  C  250  1  0.13308500  0.50423400  0.25368600  1
  C  251  1  0.05180150  0.40819150  0.24903600  1
  C  255  1  0.28312000  0.65983900  0.26123200  1
  C  257  1  0.38342000  0.74123900  0.26646200  1
  C  264  1  0.54448100  0.95802300  0.57769600  1
  C  265  1  0.46344350  0.87258950  0.58474500  1
  C  266  1  0.36854500  0.86585100  0.58687000  1
  C  267  1  0.35372150  0.94718250  0.58226400  1
  C  271  1  0.37439700  0.71587800  0.59436600  1
  C  273  1  0.35575000  0.61567200  0.59959900  1
  C  281  1  0.97114450  0.56460550  0.42291800  1
  C  282  1  0.89326800  0.48599800  0.41440800  1
  C  283  1  0.89088150  0.39327550  0.41211700  1
  C  284  1  0.96887800  0.37816200  0.41813400  1
  C  288  1  0.74608800  0.39869500  0.40213900  1
  C  290  1  0.64969900  0.37997600  0.39533400  1
  C  298  1  0.43251750  0.40557050  0.08927300  1
  C  299  1  0.51144150  0.40603350  0.08087900  1
  C  300  1  0.60432350  0.49626050  0.07863200  1
  C  301  1  0.61925650  0.58948950  0.08457200  1
  C  305  1  0.59922450  0.34582950  0.06881800  1
  C  307  1  0.61817650  0.26796050  0.06214100  1
  C  315  1  0.59244300  0.02682200  0.75603600  1
  C  316  1  0.59186500  0.10495700  0.74757400  1
  C  317  1  0.50155100  0.10735800  0.74527000  1
  C  318  1  0.40839900  0.02932300  0.75126700  1
  C  322  1  0.65198550  0.25263750  0.73543300  1
  C  324  1  0.72981950  0.34936450  0.72872800  1
  C  332  1  0.01526100  0.95795800  0.84908700  1
  C  333  1  0.00638750  0.94236250  0.81839500  1
  C  337  1  0.95472100  0.14303300  0.83469000  1
  C  339  1  0.93296600  0.22654000  0.83729300  1
  C  347  1  0.94201150  0.98371850  0.18229000  1
  C  348  1  0.02945200  0.00743900  0.17385700  1
  C  349  1  0.02592500  0.01077600  0.15855500  1
  C  350  1  0.93492000  0.99212100  0.15159500  1
  C  354  1  0.18754150  0.04432250  0.16784900  1
  C  356  1  0.29286500  0.06621400  0.17043500  1
  C  364  1  0.04156750  0.05971350  0.51555900  1
  C  365  1  0.98131900  0.97203000  0.50696200  1
  C  366  1  0.06208450  0.06884350  0.48491300  1
  C  370  1  0.86399650  0.81307350  0.50062800  1
  C  372  1  0.78197850  0.70677350  0.50297800  1
  F  194  1  0.14811100  0.71654300  0.99705600  1
  F  195  1  0.30853900  0.84660000  0.99681800  1
  F  196  1  0.21559000  0.80228200  0.97635500  1
  F  211  1  0.56394950  0.85001650  0.32991900  1
  F  212  1  0.53484400  0.69002300  0.32978400  1
  F  213  1  0.58367150  0.78274450  0.30930000  1
  F  228  1  0.28322650  0.43305750  0.66348700  1
  F  229  1  0.15270950  0.46272950  0.66333600  1
  F  230  1  0.19676350  0.41418250  0.64283900  1
  F  245  1  0.25606700  0.71679500  0.92449400  1
  F  246  1  0.27598900  0.67563400  0.94739400  1
  F  247  1  0.16349900  0.55686500  0.93233600  1
  F  261  1  0.45960650  0.74359550  0.25796100  1
  F  262  1  0.39795200  0.72324600  0.28083100  1
  F  263  1  0.39199900  0.83597900  0.26578700  1
  F  278  1  0.28208700  0.53939100  0.59109100  1
  F  279  1  0.32313100  0.60103800  0.61396500  1
  F  280  1  0.44206600  0.60736300  0.59893600  1
  F  295  1  0.56840450  0.30158750  0.40250700  1
  F  296  1  0.64722200  0.35392600  0.38079800  1
  F  297  1  0.63805800  0.46436100  0.39596000  1
  F  312  1  0.69614150  0.26509050  0.06944800  1
  F  313  1  0.64498150  0.29124250  0.04762000  1
  F  314  1  0.53369450  0.17198850  0.06274300  1
  F  329  1  0.73259150  0.43029750  0.73599200  1
  F  330  1  0.70656500  0.35259400  0.71419700  1
  F  331  1  0.82582300  0.36094700  0.72935600  1
  F  344  1  0.83869950  0.20056950  0.83172200  1
  F  345  1  0.00536050  0.31389750  0.83045500  1
  F  346  1  0.93337400  0.24771300  0.85202500  1
  F  361  1  0.36103750  0.16041850  0.16483400  1
  F  362  1  0.30783300  0.99377100  0.16361400  1
  F  363  1  0.31380600  0.06604200  0.18516500  1
  F  377  1  0.81109300  0.64064700  0.49749000  1
  F  378  1  0.69484400  0.69004200  0.49587200  1
  F  379  1  0.75895250  0.68460950  0.51764300  1
  H  1  1  0.99882000  0.90670500  0.27254400  1
  H  12  1  0.99063150  0.91689250  0.89572900  1
  H  13  1  0.99279100  0.83356200  0.41441300  1
  H  14  1  0.99218350  0.26038550  0.24472000  1
  H  34  1  0.86465100  0.89576000  0.90975700  1
  H  35  1  0.09279600  0.09309900  0.93927600  1
  H  36  1  0.80045100  0.89386800  0.95456800  1
  H  43  1  0.26536700  0.14766600  0.87886600  1
  H  44  1  0.16448000  0.18680100  0.91994600  1
  H  59  1  0.03025700  0.13503400  0.24301100  1
  H  60  1  0.09181600  0.19901500  0.28784400  1
  H  67  1  0.92522400  0.00899300  0.22898900  1
  H  68  1  0.88171400  0.73451100  0.21209900  1
  H  69  1  0.02134900  0.83523700  0.25321400  1
  H  84  1  0.10208200  0.96889700  0.57625800  1
  H  85  1  0.90542450  0.00026150  0.60584700  1
  H  86  1  0.10392400  0.90593800  0.62104600  1
  H  93  1  0.08137000  0.07436300  0.56228700  1
  H  94  1  0.85095850  0.11925850  0.54551300  1
  H  95  1  0.81152650  0.97823150  0.58652300  1
  H  109  1  0.98202100  0.12216200  0.42410700  1
  H  110  1  0.04033600  0.93890700  0.39537900  1
  H  111  1  0.98119800  0.15933900  0.37839500  1
  H  118  1  0.08566900  0.10109800  0.43902600  1
  H  119  1  0.11025350  0.86135350  0.45699400  1
  H  134  1  0.87553550  0.85814250  0.09048300  1
  H  135  1  0.05830900  0.09950600  0.06169200  1
  H  136  1  0.83754900  0.81982000  0.04480600  1
  H  143  1  0.89739350  0.98194350  0.10553200  1
  H  144  1  0.13619350  0.24749650  0.12335000  1
  H  145  1  0.16345000  0.15860900  0.08069100  1
  H  160  1  0.13970950  0.01686450  0.75723800  1
  H  161  1  0.89781650  0.95787850  0.72853000  1
  H  162  1  0.17724050  0.01683750  0.71153800  1
  H  169  1  0.01592000  0.91509900  0.77233700  1
  H  170  1  0.75077700  0.88909400  0.79020000  1
  H  171  1  0.83942650  0.00477250  0.74751400  1
  H  191  1  0.11850050  0.02103650  0.03629500  1
  H  193  1  0.09856900  0.01505000  0.96388600  1
  H  208  1  0.89637550  0.88284350  0.36949500  1
  H  210  1  0.91405250  0.90187150  0.29712900  1
  H  225  1  0.98159600  0.09961300  0.70286700  1
  H  227  1  0.98473050  0.08415950  0.63049200  1
  H  242  1  0.73947600  0.73235100  0.91152400  1
  H  244  1  0.26469250  0.34943950  0.91395500  1
  H  260  1  0.08378800  0.73498300  0.24725500  1
  H  275  1  0.26549000  0.00682500  0.57799200  1
  H  277  1  0.64893400  0.91592200  0.58052300  1
  H  292  1  0.02544900  0.28869800  0.42344500  1
  H  294  1  0.92965950  0.66890050  0.41929600  1
  H  309  1  0.70877250  0.73562550  0.08984900  1
  H  311  1  0.32829100  0.25973200  0.08566700  1
  H  326  1  0.26232700  0.97275500  0.75655300  1
  H  328  1  0.73828350  0.06843950  0.75244000  1
  H  341  1  0.05201950  0.99083250  0.79811100  1
  H  343  1  0.97746100  0.98634000  0.86887200  1
  H  358  1  0.93787800  0.94639300  0.13132000  1
  H  360  1  0.00849350  0.02166550  0.20206100  1
  H  374  1  0.01622750  0.07038150  0.46470300  1
  H  376  1  0.01034300  0.99198100  0.53526300  1
  N  184  1  0.04755000  0.09438600  0.00796800  1
  N  185  1  0.04490850  0.09624750  0.99357500  1
  N  188  1  0.14726250  0.92955850  0.98565300  1
  N  190  1  0.06868150  0.02951750  0.03057300  1
  N  192  1  0.05992000  0.03801700  0.96977400  1
  N  201  1  0.04292350  0.95327350  0.34132000  1
  N  202  1  0.04797100  0.95573400  0.32693300  1
  N  205  1  0.77914050  0.85245750  0.31878200  1
  N  207  1  0.95604650  0.93156450  0.36389300  1
  N  209  1  0.97552750  0.94016350  0.30305800  1
  N  218  1  0.90661750  0.95421650  0.67460200  1
  N  219  1  0.90433150  0.94954250  0.66021000  1
  N  222  1  0.07040850  0.21854750  0.65220700  1
  N  224  1  0.97150150  0.04047550  0.69720600  1
  N  226  1  0.96170700  0.02250200  0.63637600  1
  N  235  1  0.58856650  0.56416750  0.90843500  1
  N  236  1  0.50554450  0.47619350  0.90633500  1
  N  239  1  0.32198200  0.53363200  0.92260700  1
  N  241  1  0.68570750  0.72811250  0.91789200  1
  N  243  1  0.32674300  0.35969000  0.90923400  1
  N  252  1  0.97485650  0.41120350  0.24166000  1
  N  253  1  0.96992200  0.49424000  0.23956900  1
  N  256  1  0.21053550  0.67761250  0.25595900  1
  N  258  1  0.04152550  0.31394750  0.25113000  1
  N  259  1  0.03209400  0.67298700  0.24251000  1
  N  268  1  0.43376100  0.02445900  0.57494800  1
  N  269  1  0.52186600  0.02965400  0.57287900  1
  N  272  1  0.46479700  0.78875600  0.58914800  1
  N  274  1  0.26966500  0.95728200  0.58436500  1
  N  276  1  0.63864600  0.96773300  0.57581400  1
  N  285  1  0.03820500  0.45523200  0.42681100  1
  N  286  1  0.03945900  0.54140900  0.42896000  1
  N  289  1  0.81243000  0.48721400  0.40862600  1
  N  291  1  0.98221850  0.29599250  0.41616900  1
  N  293  1  0.97747700  0.65724400  0.42492600  1
  N  302  1  0.54186800  0.58201900  0.09314400  1
  N  303  1  0.45554250  0.49719150  0.09525500  1
  N  306  1  0.51041450  0.32384150  0.07519000  1
  N  308  1  0.70158850  0.68488950  0.08262300  1
  N  310  1  0.33979100  0.31934600  0.09124900  1
  N  319  1  0.41599150  0.95974350  0.75990400  1
  N  320  1  0.50086200  0.95837100  0.76204600  1
  N  323  1  0.67403550  0.18603050  0.74186100  1
  N  325  1  0.31296200  0.01610200  0.74929200  1
  N  327  1  0.67873050  0.02047050  0.75804400  1
  N  334  1  0.02795700  0.88240300  0.82709700  1
  N  335  1  0.03262900  0.89027200  0.84151700  1
  N  338  1  0.97330950  0.09447950  0.84562500  1
  N  340  1  0.00110400  0.93144700  0.80355400  1
  N  342  1  0.02200550  0.96561850  0.86406300  1
  N  351  1  0.85347800  0.97062700  0.16031300  1
  N  352  1  0.85685200  0.96618500  0.17473300  1
  N  355  1  0.12050150  0.02581450  0.17879600  1
  N  357  1  0.92908950  0.99714750  0.13675300  1
  N  359  1  0.94312150  0.97727550  0.19726900  1
  N  367  1  0.11829600  0.15060400  0.49377900  1
  N  368  1  0.10819950  0.14620150  0.50816900  1
  N  371  1  0.90952000  0.87991700  0.51169900  1
  N  373  1  0.07476350  0.07649450  0.47007900  1
  N  375  1  0.03128350  0.05749350  0.53050800  1
  O  49  1  0.39621700  0.30208000  0.89127300  1
  O  50  1  0.91114850  0.05196050  0.97115000  1
  O  51  1  0.65646650  0.75877250  0.94190000  1
  O  52  1  0.17995300  0.97023100  0.86488800  1
  O  74  1  0.90528000  0.60363600  0.22450800  1
  O  75  1  0.13906450  0.08794350  0.30442100  1
  O  76  1  0.10074300  0.34303100  0.27517200  1
  O  77  1  0.78927750  0.81963850  0.19821800  1
  O  100  1  0.69638000  0.09525500  0.55791500  1
  O  101  1  0.94597000  0.85910500  0.63766100  1
  O  102  1  0.23902400  0.89733300  0.60836400  1
  O  103  1  0.02951350  0.21205250  0.53165700  1
  O  124  1  0.08961550  0.70855650  0.44483000  1
  O  125  1  0.09616050  0.09982150  0.36288300  1
  O  126  1  0.94928350  0.28116750  0.39108800  1
  O  127  1  0.20009000  0.02844300  0.47171700  1
  O  150  1  0.28803800  0.38048500  0.11107100  1
  O  151  1  0.89690350  0.99051150  0.02891300  1
  O  152  1  0.71644150  0.66593850  0.05753500  1
  O  153  1  0.96833950  0.16809950  0.13811100  1
  O  176  1  0.61777800  0.90807300  0.77792500  1
  O  177  1  0.00463050  0.90358750  0.69588800  1
  O  178  1  0.33143900  0.04990300  0.72421800  1
  O  179  1  0.82988400  0.80044100  0.80495600  1
  S  186  1  0.16229400  0.90779200  0.01383800  1
  S  203  1  0.74124450  0.83757650  0.34693100  1
  S  220  1  0.09288000  0.25570500  0.68037900  1
  S  237  1  0.46693350  0.71936350  0.92727400  1
  S  254  1  0.25130000  0.53264200  0.26061900  1
  S  270  1  0.27884800  0.74745800  0.59376200  1
  S  287  1  0.78035600  0.30516300  0.40313300  1
  S  304  1  0.69280500  0.47361300  0.06981300  1
  S  321  1  0.52417350  0.21835350  0.73641000  1
  S  336  1  0.95919900  0.10045400  0.81706900  1
  S  353  1  0.14025150  0.03951050  0.15023600  1
  S  369  1  0.90826900  0.86196200  0.48313900  1
