# generated using pymatgen
data_H28C37N8
_symmetry_space_group_name_H-M   'P 1'
_cell_length_a   23.99275000
_cell_length_b   23.99275000
_cell_length_c   32.78160000
_cell_angle_alpha   90.00000000
_cell_angle_beta   90.00000000
_cell_angle_gamma   120.00000000
_symmetry_Int_Tables_number   1
_chemical_formula_structural   H28C37N8
_chemical_formula_sum   'H84 C111 N24'
_cell_volume   16342.58814218
_cell_formula_units_Z   3
loop_
 _symmetry_equiv_pos_site_id
 _symmetry_equiv_pos_as_xyz
  1  'x, y, z'
loop_
 _atom_site_type_symbol
 _atom_site_label
 _atom_site_symmetry_multiplicity
 _atom_site_fract_x
 _atom_site_fract_y
 _atom_site_fract_z
 _atom_site_occupancy
  C  1  1  0.99358750  0.50161650  0.34719600  1
  C  2  1  0.98739200  0.61609800  0.27150700  1
  C  3  1  0.96315850  0.56609850  0.30043500  1
  C  4  1  0.99348950  0.70496150  0.18451900  1
  C  13  1  0.99497400  0.41676300  0.40610100  1
  C  14  1  0.99346900  0.37205500  0.43823700  1
  C  19  1  0.93599150  0.45835750  0.36702700  1
  C  20  1  0.93708500  0.41613600  0.39635100  1
  C  22  1  0.95985250  0.64058550  0.17073400  1
  C  34  1  0.91234300  0.62282300  0.14047600  1
  C  35  1  0.89992550  0.66990050  0.12400100  1
  C  36  1  0.92690750  0.25802150  0.45726000  1
  C  45  1  0.55516200  0.55672000  0.02269400  1
  C  46  1  0.55359450  0.61300250  0.01385100  1
  C  47  1  0.59966050  0.64753150  0.98436200  1
  C  48  1  0.63021350  0.61304950  0.97339900  1
  C  49  1  0.67904650  0.63818050  0.94348100  1
  C  50  1  0.69879050  0.69913550  0.92545400  1
  C  51  1  0.66805500  0.73366100  0.93814700  1
  C  52  1  0.61804900  0.70789200  0.96707200  1
  C  53  1  0.51032000  0.62732900  0.03367300  1
  C  54  1  0.46811250  0.58402550  0.06300600  1
  C  55  1  0.46875550  0.52677650  0.07276800  1
  C  56  1  0.51297850  0.51345350  0.05235400  1
  C  57  1  0.57981250  0.49296050  0.97339200  1
  C  58  1  0.61032500  0.45844900  0.98438200  1
  C  59  1  0.65639950  0.49298250  0.01386600  1
  C  60  1  0.65485700  0.54928400  0.02269400  1
  C  61  1  0.69964950  0.47863850  0.03370300  1
  C  62  1  0.74185450  0.52194150  0.06303700  1
  C  63  1  0.74122150  0.57919750  0.07279200  1
  C  64  1  0.69701750  0.59253250  0.05236900  1
  C  65  1  0.53096600  0.46782000  0.94348200  1
  C  66  1  0.51117450  0.40683350  0.92548900  1
  C  67  1  0.54190800  0.37230400  0.93818300  1
  C  68  1  0.59193000  0.39808200  0.96709700  1
  C  81  1  0.60500900  0.55300100  0.99779300  1
  C  82  1  0.78590600  0.62238300  0.10494400  1
  C  85  1  0.45868200  0.38143200  0.89434800  1
  C  88  1  0.75124400  0.72451300  0.89428600  1
  C  91  1  0.42406250  0.48358450  0.10491700  1
  C  94  1  0.15856750  0.60285750  0.35601800  1
  C  95  1  0.21641800  0.60443200  0.34716500  1
  C  96  1  0.20487500  0.55836600  0.31767300  1
  C  97  1  0.13983550  0.52779850  0.30672500  1
  C  98  1  0.11613800  0.47899500  0.27678700  1
  C  99  1  0.15734050  0.45923550  0.25876800  1
  C  100  1  0.22260900  0.48997900  0.27144900  1
  C  101  1  0.24684700  0.53997800  0.30038000  1
  C  102  1  0.27402200  0.64770800  0.36698400  1
  C  103  1  0.27292900  0.68991500  0.39631800  1
  C  104  1  0.21503800  0.68926700  0.40608800  1
  C  105  1  0.15748800  0.64503900  0.38568100  1
  C  106  1  0.07015100  0.57820400  0.30671900  1
  C  107  1  0.00512900  0.54769400  0.31771300  1
  C  108  1  0.05143500  0.50316900  0.35602700  1
  C  110  1  0.05251800  0.46098100  0.38568400  1
  C  111  1  0.09385200  0.62704200  0.27680600  1
  C  112  1  0.05265400  0.64682600  0.25880800  1
  C  123  1  0.10499600  0.55300900  0.33112000  1
  C  127  1  0.07973550  0.69930350  0.22765600  1
  C  130  1  0.13025600  0.40676400  0.22761000  1
  C  133  1  0.21654300  0.73395200  0.43824400  1
  C  136  1  0.60123200  0.99943800  0.68937200  1
  C  137  1  0.54494150  0.94159350  0.68052900  1
  C  138  1  0.51042000  0.95314100  0.65103900  1
  C  139  1  0.54491350  0.01817450  0.64007300  1
  C  140  1  0.51979900  0.04187600  0.61014800  1
  C  141  1  0.45883300  0.00067900  0.59212800  1
  C  142  1  0.42429450  0.93541850  0.60482200  1
  C  143  1  0.45004500  0.91117800  0.63375800  1
  C  144  1  0.53059550  0.88399250  0.70036000  1
  C  145  1  0.57389800  0.88508200  0.72969300  1
  C  146  1  0.63115700  0.94296800  0.73945000  1
  C  147  1  0.64449200  0.00051500  0.71903500  1
  C  148  1  0.66501150  0.08782750  0.64006700  1
  C  149  1  0.69951100  0.15286300  0.65102100  1
  C  150  1  0.66499700  0.16442600  0.68051000  1
  C  151  1  0.60870950  0.10658550  0.68936600  1
  C  152  1  0.67934750  0.22203750  0.70032700  1
  C  153  1  0.63605950  0.22096150  0.72966500  1
  C  154  1  0.57880750  0.16307950  0.73943900  1
  C  155  1  0.56546200  0.10552400  0.71903200  1
  C  156  1  0.69008900  0.06411800  0.61011700  1
  C  157  1  0.75103050  0.10531550  0.59207100  1
  C  158  1  0.78557350  0.17058450  0.60474800  1
  C  159  1  0.75985550  0.19482850  0.63370400  1
  C  172  1  0.60496650  0.05300550  0.66446500  1
  C  173  1  0.53564200  0.16460000  0.77159800  1
  C  176  1  0.77637550  0.07822850  0.56088800  1
  C  179  1  0.43346000  0.02776400  0.56096500  1
  C  182  1  0.67434150  0.94145650  0.77160000  1
  C  185  1  0.45303900  0.28954500  0.85120100  1
  C  186  1  0.51740850  0.32030750  0.83740300  1
  C  187  1  0.53518850  0.29056150  0.80715400  1
  C  188  1  0.48810650  0.23108750  0.79065400  1
  C  202  1  0.86833150  0.16445650  0.51777000  1
  C  203  1  0.83761400  0.19809500  0.50395700  1
  C  204  1  0.86742050  0.24564550  0.47372700  1
  C  209  1  0.75690750  0.81642450  0.85115400  1
  C  210  1  0.69253350  0.78569350  0.83737000  1
  C  211  1  0.67477000  0.81544900  0.80711800  1
  C  212  1  0.72185150  0.87494450  0.79064300  1
  C  221  1  0.21649450  0.40107050  0.18448600  1
  C  222  1  0.25011400  0.46542900  0.17066700  1
  C  223  1  0.29764750  0.48318150  0.14042800  1
  C  224  1  0.31003600  0.43608100  0.12395500  1
  C  233  1  0.34155350  0.94152950  0.51782200  1
  C  234  1  0.37228200  0.90788300  0.50404000  1
  C  235  1  0.34253300  0.86037500  0.47377900  1
  C  236  1  0.28304400  0.84796900  0.45730000  1
  H  5  1  0.96926950  0.60671950  0.18243600  1
  H  15  1  0.97218450  0.37996950  0.46561900  1
  H  21  1  0.95636350  0.62931950  0.25968600  1
  H  33  1  0.91595600  0.54439900  0.30908000  1
  H  38  1  0.92667250  0.29340150  0.40233000  1
  H  69  1  0.52867700  0.32804800  0.92637100  1
  H  70  1  0.61360100  0.37256000  0.97575700  1
  H  71  1  0.70057700  0.43747000  0.02716900  1
  H  72  1  0.77293150  0.51105150  0.07760900  1
  H  73  1  0.69533850  0.63333450  0.05888500  1
  H  74  1  0.50899900  0.49344800  0.93562400  1
  H  75  1  0.70096950  0.61252350  0.93559400  1
  H  76  1  0.68126250  0.77790150  0.92631900  1
  H  77  1  0.59635850  0.73340350  0.97572100  1
  H  78  1  0.51466150  0.47265450  0.05887600  1
  H  79  1  0.50937650  0.66848850  0.02712600  1
  H  80  1  0.43702250  0.59490350  0.07756600  1
  H  83  1  0.77394750  0.65931250  0.11316800  1
  H  84  1  0.77798000  0.59316400  0.13231900  1
  H  86  1  0.47615200  0.41184300  0.86719800  1
  H  87  1  0.41936300  0.38689500  0.90672200  1
  H  89  1  0.73372850  0.69409950  0.86713900  1
  H  90  1  0.79056600  0.71902800  0.90663300  1
  H  92  1  0.43198100  0.51280000  0.13228900  1
  H  93  1  0.43602150  0.44665750  0.11314100  1
  H  113  1  0.89389300  0.45742200  0.36049000  1
  H  114  1  0.89511950  0.38505250  0.41091700  1
  H  115  1  0.09499650  0.46265150  0.39219300  1
  H  116  1  0.14144300  0.64900500  0.26894200  1
  H  117  1  0.06854200  0.45702300  0.26893500  1
  H  118  1  0.25364200  0.47677800  0.25961600  1
  H  119  1  0.29406000  0.56169800  0.30900700  1
  H  120  1  0.11500600  0.64335200  0.39220900  1
  H  121  1  0.31612600  0.64866000  0.36042900  1
  H  122  1  0.31490150  0.72100750  0.41087500  1
  H  125  1  0.04235350  0.38399750  0.44645600  1
  H  128  1  0.09265750  0.68181750  0.20050400  1
  H  129  1  0.12453200  0.73862400  0.24001700  1
  H  131  1  0.11735350  0.42426450  0.20045800  1
  H  132  1  0.08545050  0.36745050  0.23996500  1
  H  134  1  0.23784250  0.72602650  0.46561300  1
  H  135  1  0.16765700  0.72199400  0.44647400  1
  H  160  1  0.82979150  0.20161550  0.59289100  1
  H  161  1  0.78534650  0.24205150  0.64231200  1
  H  162  1  0.72050850  0.26413250  0.69377400  1
  H  163  1  0.64695500  0.26293800  0.74422300  1
  H  164  1  0.52466050  0.06304850  0.72556100  1
  H  165  1  0.66442950  0.01653050  0.60225000  1
  H  166  1  0.54544700  0.08946500  0.60227400  1
  H  167  1  0.38005100  0.90439000  0.59299500  1
  H  168  1  0.42454150  0.86397050  0.64239400  1
  H  169  1  0.68529800  0.04299200  0.72555300  1
  H  170  1  0.48943250  0.84189550  0.69381600  1
  H  171  1  0.56300750  0.84311150  0.74425800  1
  H  174  1  0.49871550  0.11572150  0.77983600  1
  H  175  1  0.56487750  0.18591150  0.79896300  1
  H  177  1  0.74596250  0.06536650  0.53374200  1
  H  178  1  0.77085400  0.03339700  0.57321900  1
  H  180  1  0.46387600  0.04066900  0.53381800  1
  H  181  1  0.43894800  0.07257000  0.57331600  1
  H  183  1  0.64512400  0.92016100  0.79897300  1
  H  184  1  0.71127300  0.99034100  0.77982600  1
  H  190  1  0.58159500  0.31247700  0.79683400  1
  H  191  1  0.55127000  0.36359000  0.84910900  1
  H  194  1  0.52378150  0.23142750  0.73572900  1
  H  196  1  0.41389350  0.28273950  0.90679900  1
  H  197  1  0.88780000  0.57640200  0.13018400  1
  H  199  1  0.86459100  0.63424900  0.06907100  1
  H  201  1  0.02584950  0.74411250  0.24011400  1
  H  205  1  0.84553750  0.27016150  0.46339500  1
  H  206  1  0.79432000  0.18868500  0.51564100  1
  H  208  1  0.87506100  0.13203800  0.57335900  1
  H  214  1  0.62834900  0.79357400  0.79682500  1
  H  215  1  0.65866450  0.74240950  0.84907100  1
  H  218  1  0.68619600  0.87464100  0.73571600  1
  H  220  1  0.79606800  0.82320600  0.90674500  1
  H  226  1  0.32214750  0.52957950  0.13009600  1
  H  227  1  0.24069300  0.49930300  0.18235700  1
  H  230  1  0.34538900  0.47170300  0.06902200  1
  H  232  1  0.18412400  0.36194700  0.24008400  1
  H  238  1  0.36440550  0.83582450  0.46348600  1
  H  239  1  0.41556250  0.91729150  0.51574400  1
  H  242  1  0.28335550  0.81263750  0.40237000  1
  H  244  1  0.33476400  0.97389600  0.57341700  1
  N  6  1  0.97853850  0.74713250  0.16686000  1
  N  23  1  0.93492800  0.73096900  0.13830700  1
  N  24  1  0.95295700  0.22301800  0.47159200  1
  N  25  1  0.95878800  0.30298800  0.42566900  1
  N  37  1  0.92547450  0.17940550  0.50014100  1
  N  189  1  0.42704350  0.20499350  0.80497300  1
  N  192  1  0.41087650  0.23241950  0.83353800  1
  N  193  1  0.50123500  0.19927000  0.75904500  1
  N  195  1  0.42822850  0.31268850  0.88189600  1
  N  198  1  0.85498100  0.65678700  0.09239200  1
  N  200  1  0.04145000  0.72976600  0.21521000  1
  N  207  1  0.84512700  0.11647100  0.54844900  1
  N  213  1  0.78291900  0.90100300  0.80494800  1
  N  216  1  0.79908250  0.87354950  0.83349700  1
  N  217  1  0.70873850  0.90678450  0.75904000  1
  N  219  1  0.78171050  0.79325950  0.88184100  1
  N  225  1  0.27505450  0.37502850  0.13829200  1
  N  228  1  0.23145400  0.35888900  0.16684800  1
  N  229  1  0.35499150  0.44917950  0.09235800  1
  N  231  1  0.16853000  0.37628500  0.21517400  1
  N  237  1  0.25698550  0.88297850  0.47160700  1
  N  240  1  0.28443500  0.92658900  0.50015900  1
  N  241  1  0.25120900  0.80302700  0.42569100  1
  N  243  1  0.36471400  0.98949000  0.54851300  1
