# generated using pymatgen
data_TbH2C6SNO7
_symmetry_space_group_name_H-M   'P 1'
_cell_length_a   9.86190000
_cell_length_b   11.18670000
_cell_length_c   15.74560000
_cell_angle_alpha   90.04804000
_cell_angle_beta   94.23068000
_cell_angle_gamma   89.60939000
_symmetry_Int_Tables_number   1
_chemical_formula_structural   TbH2C6SNO7
_chemical_formula_sum   'Tb4 H8 C24 S4 N4 O28'
_cell_volume   1732.31420537
_cell_formula_units_Z   4
loop_
 _symmetry_equiv_pos_site_id
 _symmetry_equiv_pos_as_xyz
  1  'x, y, z'
loop_
 _atom_site_type_symbol
 _atom_site_label
 _atom_site_symmetry_multiplicity
 _atom_site_fract_x
 _atom_site_fract_y
 _atom_site_fract_z
 _atom_site_occupancy
  Tb  Tb0  1  0.75230000  0.01255000  0.98112000  1
  Tb  Tb1  1  0.74858000  0.51540000  0.52270000  1
  Tb  Tb2  1  0.24962000  0.98748000  0.01984000  1
  Tb  Tb3  1  0.24953000  0.48659000  0.47845000  1
  H  H4  1  0.22133000  0.20635000  0.80683000  1
  H  H5  1  0.24401000  0.36214000  0.68193000  1
  H  H6  1  0.27946000  0.70687000  0.69113000  1
  H  H7  1  0.25699000  0.86217000  0.81638000  1
  H  H8  1  0.78036000  0.79248000  0.19385000  1
  H  H9  1  0.75667000  0.63658000  0.31865000  1
  H  H10  1  0.72102000  0.29352000  0.30885000  1
  H  H11  1  0.74472000  0.13771000  0.18386000  1
  C  C12  1  0.46494000  0.08462000  0.87121000  1
  C  C13  1  0.43877000  0.17095000  0.80192000  1
  C  C14  1  0.31489000  0.22641000  0.77749000  1
  C  C15  1  0.32677000  0.30859000  0.71126000  1
  C  C16  1  0.45916000  0.31562000  0.68632000  1
  C  C17  1  0.50632000  0.39491000  0.62077000  1
  C  C18  1  0.03788000  0.58352000  0.62906000  1
  C  C19  1  0.06346000  0.67001000  0.69802000  1
  C  C20  1  0.18634000  0.72623000  0.72136000  1
  C  C21  1  0.17439000  0.80856000  0.78764000  1
  C  C22  1  0.04219000  0.81466000  0.81334000  1
  C  C23  1  0.99345000  0.89300000  0.87917000  1
  C  C24  1  0.53921000  0.91487000  0.12908000  1
  C  C25  1  0.56336000  0.82841000  0.19831000  1
  C  C26  1  0.68675000  0.77258000  0.22306000  1
  C  C27  1  0.67422000  0.69041000  0.28915000  1
  C  C28  1  0.54145000  0.68395000  0.31361000  1
  C  C29  1  0.49361000  0.60508000  0.37917000  1
  C  C30  1  0.96181000  0.41778000  0.37140000  1
  C  C31  1  0.93710000  0.33061000  0.30231000  1
  C  C32  1  0.81437000  0.27417000  0.27876000  1
  C  C33  1  0.82688000  0.19162000  0.21261000  1
  C  C34  1  0.95892000  0.18506000  0.18682000  1
  C  C35  1  0.00775000  0.10529000  0.12155000  1
  S  S36  1  0.56904000  0.21950000  0.74342000  1
  S  S37  1  0.93342000  0.71807000  0.75740000  1
  S  S38  1  0.43234000  0.78056000  0.25638000  1
  S  S39  1  0.06730000  0.28243000  0.24276000  1
  N  N40  1  0.75312000  0.26103000  0.95900000  1
  N  N41  1  0.74704000  0.76457000  0.54110000  1
  N  N42  1  0.24755000  0.73914000  0.04082000  1
  N  N43  1  0.25270000  0.23707000  0.45897000  1
  O  O44  1  0.57831000  0.02827000  0.87835000  1
  O  O45  1  0.41971000  0.46409000  0.58060000  1
  O  O46  1  0.67917000  0.20650000  0.01257000  1
  O  O47  1  0.83269000  0.19064000  0.91881000  1
  O  O48  1  0.74705000  0.36865000  0.94761000  1
  O  O49  1  0.37110000  0.07191000  0.92248000  1
  O  O50  1  0.63271000  0.39317000  0.60675000  1
  O  O51  1  0.92581000  0.52662000  0.62339000  1
  O  O52  1  0.07988000  0.96286000  0.91803000  1
  O  O53  1  0.82119000  0.70942000  0.48798000  1
  O  O54  1  0.67288000  0.69405000  0.58445000  1
  O  O55  1  0.74706000  0.87278000  0.54976000  1
  O  O56  1  0.13007000  0.57031000  0.57657000  1
  O  O57  1  0.86767000  0.89001000  0.89452000  1
  O  O58  1  0.42662000  0.97209000  0.12118000  1
  O  O59  1  0.58062000  0.53626000  0.41933000  1
  O  O60  1  0.32268000  0.79319000  0.98775000  1
  O  O61  1  0.16761000  0.80995000  0.08056000  1
  O  O62  1  0.25255000  0.63138000  0.05213000  1
  O  O63  1  0.63426000  0.92730000  0.07856000  1
  O  O64  1  0.36724000  0.60684000  0.39324000  1
  O  O65  1  0.07318000  0.47619000  0.37671000  1
  O  O66  1  0.92308000  0.03329000  0.08325000  1
  O  O67  1  0.17856000  0.29152000  0.51255000  1
  O  O68  1  0.32624000  0.30821000  0.41575000  1
  O  O69  1  0.25304000  0.12883000  0.45010000  1
  O  O70  1  0.86944000  0.43001000  0.42394000  1
  O  O71  1  0.13332000  0.10966000  0.10582000  1
