# generated using pymatgen
data_H6C10N3
_symmetry_space_group_name_H-M   'P 1'
_cell_length_a   23.68760000
_cell_length_b   23.68760000
_cell_length_c   24.77580000
_cell_angle_alpha   90.00000000
_cell_angle_beta   90.00000000
_cell_angle_gamma   90.00000000
_symmetry_Int_Tables_number   1
_chemical_formula_structural   H6C10N3
_chemical_formula_sum   'H96 C160 N48'
_cell_volume   13901.76068732
_cell_formula_units_Z   16
loop_
 _symmetry_equiv_pos_site_id
 _symmetry_equiv_pos_as_xyz
  1  'x, y, z'
loop_
 _atom_site_type_symbol
 _atom_site_label
 _atom_site_symmetry_multiplicity
 _atom_site_fract_x
 _atom_site_fract_y
 _atom_site_fract_z
 _atom_site_occupancy
  C  1  1  0.09747300  0.14420200  0.15656200  1
  C  2  1  0.07305500  0.12253300  0.10888900  1
  C  3  1  0.06236300  0.06419800  0.10283200  1
  C  4  1  0.07581300  0.02765200  0.14611100  1
  C  5  1  0.10052000  0.04828100  0.19402900  1
  C  6  1  0.11119400  0.10669300  0.19885700  1
  C  10  1  0.10252200  0.20329200  0.16375500  1
  C  11  1  0.13326800  0.23693000  0.12697300  1
  C  12  1  0.13368500  0.29640800  0.13145500  1
  C  13  1  0.10044100  0.32186400  0.17205300  1
  C  14  1  0.06664300  0.28937000  0.20737300  1
  C  15  1  0.06965200  0.22995200  0.20386600  1
  C  19  1  0.50610400  0.22700000  0.57917500  1
  C  20  1  0.52267400  0.25606600  0.53198400  1
  C  21  1  0.51285000  0.31457400  0.52647800  1
  C  22  1  0.48506400  0.34375700  0.56842400  1
  C  23  1  0.46708800  0.31544300  0.61562200  1
  C  24  1  0.47850800  0.25709300  0.62062800  1
  C  28  1  0.52159800  0.16973800  0.58669000  1
  C  29  1  0.50383400  0.12850200  0.54933500  1
  C  30  1  0.52086400  0.07177500  0.55490100  1
  C  31  1  0.55650200  0.05645600  0.59801400  1
  C  32  1  0.57625000  0.09717700  0.63533200  1
  C  33  1  0.55729200  0.15353200  0.62978100  1
  C  37  1  0.01064200  0.63431000  0.65771500  1
  C  38  1  0.02885500  0.60992600  0.70680000  1
  C  39  1  0.02762700  0.55085800  0.71481100  1
  C  40  1  0.00784000  0.51585200  0.67265900  1
  C  41  1  0.98855000  0.53960800  0.62380900  1
  C  42  1  0.99019800  0.59868400  0.61658800  1
  C  46  1  0.01776000  0.69297400  0.64844400  1
  C  47  1  0.99537400  0.73217200  0.68552900  1
  C  48  1  0.00796700  0.79013400  0.68124600  1
  C  49  1  0.04256700  0.80909000  0.63865600  1
  C  50  1  0.06590800  0.77078400  0.60091800  1
  C  51  1  0.05220400  0.71284200  0.60579600  1
  C  55  1  0.59055000  0.72862600  0.07680600  1
  C  56  1  0.56256800  0.74830200  0.12356000  1
  C  57  1  0.54776800  0.80567800  0.12963900  1
  C  58  1  0.55966800  0.84340400  0.08693700  1
  C  59  1  0.58751000  0.82494600  0.03980500  1
  C  60  1  0.60284200  0.76752800  0.03518800  1
  C  64  1  0.60428600  0.67044800  0.07138500  1
  C  65  1  0.63025400  0.64029200  0.11393500  1
  C  66  1  0.63689800  0.58099200  0.11195700  1
  C  67  1  0.61641200  0.55189600  0.06610300  1
  C  68  1  0.59098400  0.58099600  0.02274000  1
  C  69  1  0.58528600  0.64021600  0.02578800  1
  C  73  1  0.76376600  0.43250400  0.36997900  1
  C  74  1  0.71829600  0.41505200  0.40275300  1
  C  75  1  0.66165000  0.42263000  0.38602700  1
  C  76  1  0.65102800  0.44946800  0.33607100  1
  C  77  1  0.69585800  0.46791200  0.30289800  1
  C  78  1  0.75186600  0.45993600  0.32062000  1
  C  82  1  0.82022200  0.41808000  0.38357200  1
  C  83  1  0.84489400  0.43519800  0.43293500  1
  C  84  1  0.90287800  0.42563200  0.44377600  1
  C  85  1  0.93511800  0.39612300  0.40484700  1
  C  86  1  0.91168800  0.37957400  0.35506900  1
  C  87  1  0.85396200  0.38937900  0.34542200  1
  C  91  1  0.84652800  0.99734000  0.87086700  1
  C  92  1  0.87986600  0.01298600  0.91588300  1
  C  93  1  0.93766400  0.99787300  0.91937000  1
  C  94  1  0.96106400  0.96710600  0.87587600  1
  C  95  1  0.92805600  0.94702200  0.83257200  1
  C  96  1  0.87104200  0.96382400  0.82983100  1
  C  100  1  0.78740400  0.00738700  0.86938200  1
  C  101  1  0.75202600  0.98009600  0.90721300  1
  C  102  1  0.69292000  0.97707200  0.89938300  1
  C  103  1  0.66933800  0.00414100  0.85382200  1
  C  104  1  0.70368800  0.03185700  0.81554500  1
  C  105  1  0.76261800  0.03351900  0.82388600  1
  C  109  1  0.27760000  0.45797000  0.89192800  1
  C  110  1  0.23344300  0.47756200  0.85842600  1
  C  111  1  0.17618100  0.47380400  0.87413200  1
  C  112  1  0.16359100  0.44958600  0.92483900  1
  C  113  1  0.20696000  0.43004400  0.95927200  1
  C  114  1  0.26376100  0.43460800  0.94266300  1
  C  118  1  0.33413200  0.45723600  0.87266100  1
  C  119  1  0.34624300  0.43365800  0.82159300  1
  C  120  1  0.40177200  0.43257600  0.80132700  1
  C  121  1  0.44598800  0.45465200  0.83306400  1
  C  122  1  0.43538000  0.47876200  0.88424300  1
  C  123  1  0.37916900  0.47900600  0.90378000  1
  C  127  1  0.34772500  0.86748400  0.37559900  1
  C  128  1  0.37797400  0.85088400  0.32889500  1
  C  129  1  0.43647800  0.86173800  0.32358000  1
  C  130  1  0.46425200  0.88820400  0.36727100  1
  C  131  1  0.43469200  0.90958200  0.41225800  1
  C  132  1  0.37654300  0.89739800  0.41666500  1
  C  136  1  0.28780500  0.86412400  0.37762800  1
  C  137  1  0.25526500  0.89319400  0.33869100  1
  C  138  1  0.19618700  0.89957600  0.34443100  1
  C  139  1  0.16955800  0.87404000  0.38927600  1
  C  140  1  0.20097000  0.84469600  0.42873800  1
  C  141  1  0.26009300  0.84020400  0.42270200  1
  C  145  1  0.97128800  0.01106900  0.96562500  1
  C  146  1  0.01835700  0.97846200  0.98217300  1
  C  147  1  0.05248300  0.99507800  0.02614400  1
  C  148  1  0.03546200  0.04373500  0.05551000  1
  C  155  1  0.61734400  0.39935600  0.41737400  1
  C  156  1  0.57397600  0.36549000  0.39530700  1
  C  157  1  0.53553000  0.33700700  0.42955900  1
  C  158  1  0.54168400  0.34514600  0.48605600  1
  C  165  1  0.13303900  0.49123200  0.83792000  1
  C  166  1  0.08415100  0.52107800  0.85381200  1
  C  167  1  0.04516200  0.54057400  0.81465900  1
  C  168  1  0.05648900  0.52769400  0.75964200  1
  C  175  1  0.46611800  0.85093000  0.27445500  1
  C  176  1  0.51160200  0.88482200  0.25640900  1
  C  177  1  0.54204400  0.87121600  0.20918900  1
  C  178  1  0.52260200  0.82446000  0.17838400  1
  C  185  1  0.10409200  0.78965400  0.56045500  1
  C  186  1  0.14584500  0.83107200  0.57007900  1
  C  187  1  0.18091400  0.85058800  0.52782200  1
  C  188  1  0.17329700  0.82589200  0.47602600  1
  C  195  1  0.65672000  0.55090800  0.15784900  1
  C  196  1  0.68975000  0.50138800  0.15460900  1
  C  197  1  0.70428000  0.47101800  0.20178400  1
  C  198  1  0.68485200  0.49268800  0.25203800  1
  C  205  1  0.44522400  0.34618500  0.65999200  1
  C  206  1  0.40747500  0.39202800  0.65487000  1
  C  207  1  0.39087100  0.42334400  0.70081800  1
  C  208  1  0.41362100  0.40654300  0.75143400  1
  C  215  1  0.92946600  0.45030400  0.48966200  1
  C  216  1  0.98477200  0.47283400  0.48777100  1
  C  217  1  0.00822400  0.50074800  0.53278700  1
  C  218  1  0.97402000  0.50523400  0.57962100  1
  C  225  1  0.65977200  0.94099000  0.93246800  1
  C  226  1  0.62017200  0.90222800  0.91120100  1
  C  227  1  0.59268600  0.86292000  0.94521400  1
  C  228  1  0.60612800  0.86455400  0.00106200  1
  C  235  1  0.16600600  0.93558200  0.30868600  1
  C  236  1  0.12471100  0.97453600  0.32635600  1
  C  237  1  0.09958000  0.01286400  0.28974300  1
  C  238  1  0.11748700  0.01043300  0.23505000  1
  C  245  1  0.15912900  0.33049900  0.09122700  1
  C  246  1  0.18851600  0.38108700  0.10242000  1
  C  247  1  0.20653000  0.41669400  0.05989800  1
  C  248  1  0.19324500  0.39961300  0.00642000  1
  C  255  1  0.61382800  0.08172900  0.67759800  1
  C  256  1  0.65732200  0.04149000  0.67104100  1
  C  257  1  0.69020000  0.02368800  0.71552200  1
  C  258  1  0.67916200  0.04953900  0.76628100  1
  C  265  1  0.46092000  0.94952200  0.44700800  1
  C  266  1  0.49746800  0.99184800  0.42688500  1
  C  267  1  0.52027200  0.03340100  0.46134000  1
  C  268  1  0.50419600  0.03121800  0.51647800  1
  C  275  1  0.95054400  0.90660600  0.79607600  1
  C  276  1  0.98653400  0.86267000  0.81363400  1
  C  277  1  0.00822000  0.82276400  0.77684000  1
  C  278  1  0.99089800  0.82781800  0.72215300  1
  C  285  1  0.02671700  0.31511500  0.24231400  1
  C  286  1  0.99526800  0.36339700  0.22759500  1
  C  287  1  0.95571200  0.38735500  0.26355600  1
  C  288  1  0.94753400  0.35949200  0.31381700  1
  C  295  1  0.47984200  0.50249400  0.91533200  1
  C  296  1  0.52473000  0.53405200  0.89281200  1
  C  297  1  0.56568400  0.55960600  0.92642100  1
  C  298  1  0.56027200  0.55132200  0.98296400  1
  H  7  1  0.06195200  0.14979600  0.07855400  1
  H  8  1  0.12940100  0.12210200  0.23338200  1
  H  9  1  0.06654700  0.98550800  0.14321400  1
  H  16  1  0.15537500  0.21784000  0.09646200  1
  H  17  1  0.09826200  0.36498500  0.17386900  1
  H  18  1  0.04391400  0.20578700  0.22782100  1
  H  25  1  0.54635000  0.23544400  0.50348600  1
  H  26  1  0.46724400  0.23624100  0.65524500  1
  H  27  1  0.48145000  0.38679900  0.56600900  1
  H  34  1  0.47808200  0.13982800  0.51787500  1
  H  35  1  0.56850800  0.01509700  0.60177800  1
  H  36  1  0.57181000  0.18377600  0.65589500  1
  H  43  1  0.04714900  0.63518800  0.73550500  1
  H  44  1  0.97798800  0.61583600  0.58041400  1
  H  45  1  0.00970600  0.47283400  0.67670600  1
  H  52  1  0.97120000  0.71813200  0.71714400  1
  H  53  1  0.05206200  0.85120400  0.63614800  1
  H  54  1  0.07064400  0.68426000  0.58023600  1
  H  61  1  0.55337000  0.72049600  0.15401000  1
  H  62  1  0.62480800  0.75421800  0.00188900  1
  H  63  1  0.54872600  0.88509600  0.09051300  1
  H  70  1  0.64346000  0.66187000  0.14748100  1
  H  71  1  0.61680800  0.50865000  0.06547700  1
  H  72  1  0.56260600  0.66092400  0.99660300  1
  H  79  1  0.72671800  0.39309100  0.43748400  1
  H  80  1  0.78451200  0.47315800  0.29657300  1
  H  81  1  0.61026000  0.45456600  0.32313400  1
  H  88  1  0.82129800  0.45863200  0.45936000  1
  H  89  1  0.97722800  0.38911400  0.41138000  1
  H  90  1  0.83695200  0.37739600  0.30913000  1
  H  97  1  0.86129000  0.03454500  0.94699800  1
  H  98  1  0.84606200  0.94815800  0.79954900  1
  H  99  1  0.00323500  0.95798200  0.87580900  1
  H  106  1  0.77013200  0.95709600  0.93769200  1
  H  107  1  0.62683400  0.00080300  0.84674000  1
  H  108  1  0.78804200  0.05084100  0.79478600  1
  H  115  1  0.24335100  0.49490800  0.82172600  1
  H  116  1  0.29498600  0.41756500  0.96622600  1
  H  117  1  0.12230400  0.44415600  0.93604000  1
  H  124  1  0.31444700  0.41575800  0.79933600  1
  H  125  1  0.48650000  0.45264600  0.81869700  1
  H  126  1  0.37043400  0.49715000  0.94037400  1
  H  133  1  0.35645500  0.83292600  0.29741600  1
  H  134  1  0.35390500  0.91469800  0.44780600  1
  H  135  1  0.50690200  0.89468400  0.36538300  1
  H  142  1  0.27560000  0.91398800  0.30805200  1
  H  143  1  0.12689300  0.87870800  0.39445900  1
  H  144  1  0.28335900  0.82084800  0.45226200  1
  H  152  1  0.11170500  0.93374200  0.01396200  1
  H  153  1  0.12846400  0.97912400  0.06200100  1
  H  154  1  0.02869100  0.94233200  0.96192200  1
  H  162  1  0.49110000  0.29919100  0.36898300  1
  H  163  1  0.46677200  0.28494600  0.43030200  1
  H  164  1  0.57216400  0.35907000  0.35449300  1
  H  172  1  0.99163200  0.57761400  0.86860900  1
  H  173  1  0.97016200  0.58193800  0.80500800  1
  H  174  1  0.07809500  0.53073000  0.89365900  1
  H  182  1  0.60189800  0.93219200  0.22066100  1
  H  183  1  0.61497200  0.89029200  0.16892100  1
  H  184  1  0.52361200  0.91952000  0.27810300  1
  H  192  1  0.22140600  0.90960600  0.57383500  1
  H  193  1  0.24120100  0.90948000  0.50977600  1
  H  194  1  0.15048400  0.84763000  0.60798700  1
  H  202  1  0.74520000  0.40777000  0.16168800  1
  H  203  1  0.74138400  0.39796400  0.22773600  1
  H  204  1  0.70287000  0.48703600  0.11770800  1
  H  212  1  0.34238500  0.47969000  0.65911600  1
  H  213  1  0.34634500  0.49294600  0.72466400  1
  H  214  1  0.39232300  0.40288100  0.61759200  1
  H  222  1  0.08390900  0.51803000  0.49682000  1
  H  223  1  0.07957000  0.54008400  0.56016400  1
  H  224  1  0.00751000  0.47145000  0.45270000  1
  H  232  1  0.54578000  0.82657600  0.88548200  1
  H  233  1  0.53343000  0.80022000  0.94635200  1
  H  234  1  0.61297400  0.90087200  0.87049200  1
  H  242  1  0.04722300  0.04910600  0.34524700  1
  H  243  1  0.03911800  0.07404200  0.28323300  1
  H  244  1  0.11416600  0.97646800  0.36636600  1
  H  252  1  0.24118500  0.47688600  0.10865200  1
  H  253  1  0.24473100  0.49212600  0.04339900  1
  H  254  1  0.19615300  0.39237300  0.14163200  1
  H  262  1  0.73365400  0.96395600  0.67286900  1
  H  263  1  0.74932000  0.96520600  0.73785800  1
  H  264  1  0.66425400  0.02386400  0.63389800  1
  H  272  1  0.56732600  0.07193200  0.40289400  1
  H  273  1  0.57523000  0.09996900  0.46365900  1
  H  274  1  0.50659000  0.99357400  0.38654000  1
  H  282  1  0.05695900  0.78196600  0.83260000  1
  H  283  1  0.06411500  0.75726200  0.77052700  1
  H  284  1  0.99696100  0.85931000  0.85360600  1
  H  292  1  0.93776400  0.45473200  0.21498100  1
  H  293  1  0.90563800  0.45682600  0.27414400  1
  H  294  1  0.00109800  0.38148200  0.19049500  1
  H  302  1  0.61120200  0.59479200  0.86508300  1
  H  303  1  0.63806400  0.60655000  0.92588800  1
  H  304  1  0.52639800  0.54056600  0.85201600  1
  N  149  1  0.98893000  0.07209200  0.03807500  1
  N  150  1  0.95918600  0.05717400  0.99604600  1
  N  151  1  0.10049100  0.96541600  0.03657600  1
  N  159  1  0.58409000  0.37889000  0.50393000  1
  N  160  1  0.61958600  0.40417800  0.47188200  1
  N  161  1  0.49488400  0.30348300  0.40786200  1
  N  169  1  0.10406800  0.49826400  0.74780100  1
  N  170  1  0.13970200  0.48113800  0.78435100  1
  N  171  1  0.99891100  0.57014200  0.83062000  1
  N  179  1  0.47765400  0.79473200  0.19749300  1
  N  180  1  0.45130400  0.80690400  0.24235100  1
  N  181  1  0.58922800  0.90162000  0.19734300  1
  N  189  1  0.13247100  0.78604800  0.46998600  1
  N  190  1  0.10030900  0.76879400  0.50953000  1
  N  191  1  0.21830100  0.89286000  0.53804000  1
  N  199  1  0.65355200  0.54071000  0.25188500  1
  N  200  1  0.64034000  0.56782800  0.20783700  1
  N  201  1  0.73391200  0.42209100  0.19692800  1
  N  209  1  0.44939600  0.36183500  0.75304600  1
  N  210  1  0.46426800  0.33366400  0.71023400  1
  N  211  1  0.35610500  0.46855800  0.69459800  1
  N  219  1  0.92115200  0.48310000  0.57867400  1
  N  220  1  0.90041600  0.45718800  0.53652400  1
  N  221  1  0.06139900  0.52221000  0.52947700  1
  N  229  1  0.64442600  0.90320600  0.01842900  1
  N  230  1  0.66967600  0.93888000  0.98638300  1
  N  231  1  0.55486800  0.82602800  0.92377800  1
  N  239  1  0.15713900  0.97165200  0.22112000  1
  N  240  1  0.17993800  0.93676800  0.25554100  1
  N  241  1  0.05944500  0.04932900  0.30774600  1
  N  249  1  0.16522500  0.35020900  0.99900800  1
  N  250  1  0.14907800  0.31790100  0.03869200  1
  N  251  1  0.23355200  0.46583000  0.07152600  1
  N  259  1  0.63709200  0.08845900  0.76922100  1
  N  260  1  0.60668400  0.10373000  0.72774300  1
  N  261  1  0.72836400  0.98144600  0.70812300  1
  N  269  1  0.46863000  0.98964000  0.53302500  1
  N  270  1  0.44812800  0.95141000  0.50041000  1
  N  271  1  0.55643800  0.07250700  0.44077400  1
  N  279  1  0.95563600  0.87068400  0.70822800  1
  N  280  1  0.93655400  0.90761400  0.74292800  1
  N  281  1  0.04510800  0.78298400  0.79496800  1
  N  289  1  0.97895200  0.31295200  0.32494800  1
  N  290  1  0.01581400  0.29199700  0.29136600  1
  N  291  1  0.92951200  0.43626200  0.24923300  1
  N  299  1  0.51612200  0.52027600  0.00144700  1
  N  300  1  0.47864200  0.49727200  0.96986300  1
  N  301  1  0.60810200  0.59034600  0.90401600  1
