# generated using pymatgen
data_ZnH22C27(NO3)2
_symmetry_space_group_name_H-M   'P 1'
_cell_length_a   7.78716000
_cell_length_b   8.53058000
_cell_length_c   27.59253000
_cell_angle_alpha   89.90740000
_cell_angle_beta   86.80317000
_cell_angle_gamma   85.84031000
_symmetry_Int_Tables_number   1
_chemical_formula_structural   ZnH22C27(NO3)2
_chemical_formula_sum   'Zn2 H44 C54 N4 O12'
_cell_volume   1825.26526667
_cell_formula_units_Z   2
loop_
 _symmetry_equiv_pos_site_id
 _symmetry_equiv_pos_as_xyz
  1  'x, y, z'
loop_
 _atom_site_type_symbol
 _atom_site_label
 _atom_site_symmetry_multiplicity
 _atom_site_fract_x
 _atom_site_fract_y
 _atom_site_fract_z
 _atom_site_occupancy
  Zn  Zn0  1  0.69306000  0.51799000  0.49438000  1
  Zn  Zn1  1  0.30694000  0.48201000  0.50562000  1
  H  H2  1  0.70366000  0.61941000  0.33798000  1
  H  H3  1  0.76547000  0.39123000  0.64508000  1
  H  H4  1  0.98707000  0.38383000  0.53642000  1
  H  H5  1  0.01293000  0.61623000  0.46360000  1
  H  H6  1  0.26504000  0.63831000  0.65770000  1
  H  H7  1  0.26859000  0.33957000  0.35902000  1
  H  H8  1  0.28077000  0.65091000  0.74566000  1
  H  H9  1  0.25212000  0.31367000  0.27122000  1
  H  H10  1  0.32431000  0.85895000  0.97868000  1
  H  H11  1  0.64447000  0.09618000  0.02648000  1
  H  H12  1  0.18679000  0.78755000  0.03949000  1
  H  H13  1  0.74976000  0.15268000  0.95937000  1
  H  H14  1  0.29832000  0.01091000  0.50582000  1
  H  H15  1  0.70168000  0.98909000  0.49417000  1
  H  H16  1  0.76708000  0.82246000  0.28219000  1
  H  H17  1  0.93309000  0.66023000  0.28064000  1
  H  H18  1  0.91270000  0.79171000  0.22992000  1
  H  H19  1  0.79250000  0.53504000  0.21353000  1
  H  H20  1  0.63581000  0.69978000  0.21183000  1
  H  H21  1  0.02250000  0.42830000  0.67500000  1
  H  H22  1  0.99396000  0.59840000  0.71486000  1
  H  H23  1  0.11907000  0.42154000  0.73230000  1
  H  H24  1  0.85020000  0.43714000  0.77741000  1
  H  H25  1  0.85823000  0.27342000  0.73595000  1
  H  H26  1  0.27153000  0.02416000  0.08376000  1
  H  H27  1  0.04590000  0.98784000  0.08096000  1
  H  H28  1  0.11608000  0.09803000  0.13034000  1
  H  H29  1  0.05893000  0.81775000  0.15307000  1
  H  H30  1  0.27206000  0.87960000  0.16298000  1
  H  H31  1  0.73496000  0.94046000  0.89587000  1
  H  H32  1  0.70786000  0.97069000  0.83129000  1
  H  H33  1  0.91610000  0.91625000  0.85246000  1
  H  H34  1  0.85983000  0.20712000  0.82974000  1
  H  H35  1  0.94465000  0.16762000  0.88629000  1
  H  H36  1  0.36101000  0.09619000  0.94632000  1
  H  H37  1  0.14195000  0.04164000  0.94021000  1
  H  H38  1  0.23503000  0.18416000  0.90004000  1
  H  H39  1  0.43889000  0.99106000  0.86384000  1
  H  H40  1  0.22658000  0.92522000  0.85925000  1
  H  H41  1  0.55457000  0.86976000  0.06805000  1
  H  H42  1  0.78478000  0.88823000  0.06295000  1
  H  H43  1  0.69232000  0.77427000  0.11109000  1
  H  H44  1  0.77129000  0.03928000  0.13875000  1
  H  H45  1  0.54842000  0.99878000  0.15053000  1
  C  C46  1  0.45394000  0.79466000  0.50130000  1
  C  C47  1  0.54606000  0.20534000  0.49870000  1
  C  C48  1  0.43841000  0.44729000  0.10324000  1
  C  C49  1  0.51334000  0.51013000  0.89946000  1
  C  C50  1  0.34811000  0.57066000  0.13128000  1
  C  C51  1  0.58685000  0.38260000  0.87113000  1
  C  C52  1  0.26580000  0.70195000  0.10756000  1
  C  C53  1  0.68123000  0.25728000  0.89327000  1
  C  C54  1  0.51999000  0.31502000  0.12647000  1
  C  C55  1  0.45952000  0.65386000  0.87671000  1
  C  C56  1  0.48799000  0.48255000  0.35384000  1
  C  C57  1  0.51355000  0.51105000  0.64606000  1
  C  C58  1  0.40875000  0.61444000  0.97857000  1
  C  C59  1  0.54052000  0.33648000  0.02395000  1
  C  C60  1  0.56459000  0.35456000  0.97283000  1
  C  C61  1  0.37631000  0.59225000  0.02902000  1
  C  C62  1  0.49478000  0.49278000  0.95038000  1
  C  C63  1  0.45151000  0.45841000  0.05200000  1
  C  C64  1  0.36723000  0.75980000  0.95631000  1
  C  C65  1  0.59644000  0.19697000  0.04752000  1
  C  C66  1  0.38858000  0.78311000  0.90608000  1
  C  C67  1  0.58827000  0.18285000  0.09820000  1
  C  C68  1  0.49657000  0.49700000  0.40621000  1
  C  C69  1  0.50370000  0.50159000  0.59373000  1
  C  C70  1  0.26920000  0.70107000  0.05700000  1
  C  C71  1  0.66847000  0.24484000  0.94372000  1
  C  C72  1  0.43005000  0.95873000  0.50201000  1
  C  C73  1  0.56994000  0.04127000  0.49798000  1
  C  C74  1  0.34514000  0.55698000  0.18216000  1
  C  C75  1  0.56598000  0.38717000  0.82136000  1
  C  C76  1  0.53177000  0.32264000  0.17723000  1
  C  C77  1  0.48432000  0.66130000  0.82542000  1
  C  C78  1  0.35136000  0.38027000  0.28549000  1
  C  C79  1  0.38972000  0.59718000  0.72413000  1
  C  C80  1  0.36039000  0.39616000  0.33517000  1
  C  C81  1  0.37895000  0.58732000  0.67425000  1
  C  C82  1  0.60665000  0.55351000  0.32247000  1
  C  C83  1  0.66251000  0.45080000  0.66756000  1
  C  C84  1  0.59606000  0.54241000  0.27194000  1
  C  C85  1  0.67910000  0.46582000  0.71756000  1
  C  C86  1  0.46746000  0.45277000  0.25400000  1
  C  C87  1  0.53607000  0.53319000  0.74663000  1
  C  C88  1  0.71553000  0.62502000  0.23628000  1
  C  C89  1  0.83955000  0.73097000  0.25902000  1
  C  C90  1  0.84623000  0.40374000  0.73875000  1
  C  C91  1  0.00436000  0.46793000  0.71332000  1
  C  C92  1  0.18358000  0.84692000  0.13511000  1
  C  C93  1  0.15275000  0.99761000  0.10538000  1
  C  C94  1  0.82687000  0.15935000  0.86615000  1
  C  C95  1  0.79287000  0.98634000  0.86149000  1
  C  C96  1  0.32965000  0.94277000  0.88451000  1
  C  C97  1  0.26236000  0.07332000  0.92026000  1
  C  C98  1  0.64710000  0.02651000  0.12178000  1
  C  C99  1  0.67097000  0.88149000  0.08868000  1
  N  N100  1  0.44692000  0.44289000  0.20308000  1
  N  N101  1  0.53126000  0.52771000  0.79892000  1
  N  N102  1  0.04968000  0.45796000  0.51312000  1
  N  N103  1  0.95032000  0.54204000  0.48688000  1
  O  O104  1  0.61075000  0.73857000  0.49678000  1
  O  O105  1  0.38925000  0.26143000  0.50322000  1
  O  O106  1  0.32161000  0.71163000  0.50519000  1
  O  O107  1  0.67839000  0.28837000  0.49481000  1
  O  O108  1  0.64456000  0.51344000  0.42455000  1
  O  O109  1  0.35544000  0.48656000  0.57545000  1
  O  O110  1  0.35541000  0.48650000  0.43296000  1
  O  O111  1  0.64459000  0.51350000  0.56704000  1
  O  O112  1  0.24309000  0.65558000  0.21121000  1
  O  O113  1  0.57679000  0.25207000  0.79563000  1
  O  O114  1  0.46156000  0.79885000  0.80181000  1
  O  O115  1  0.63063000  0.21496000  0.20096000  1
