# generated using pymatgen
data_H5(C5N)2
_symmetry_space_group_name_H-M   'P 1'
_cell_length_a   9.86180000
_cell_length_b   23.22855000
_cell_length_c   23.22855000
_cell_angle_alpha   120.00000000
_cell_angle_beta   90.00000000
_cell_angle_gamma   90.00000000
_symmetry_Int_Tables_number   1
_chemical_formula_structural   H5(C5N)2
_chemical_formula_sum   'H30 C60 N12'
_cell_volume   4608.19685903
_cell_formula_units_Z   6
loop_
 _symmetry_equiv_pos_site_id
 _symmetry_equiv_pos_as_xyz
  1  'x, y, z'
loop_
 _atom_site_type_symbol
 _atom_site_label
 _atom_site_symmetry_multiplicity
 _atom_site_fract_x
 _atom_site_fract_y
 _atom_site_fract_z
 _atom_site_occupancy
  C  1  1  0.97899500  0.94295550  0.47496450  1
  C  2  1  0.98071600  0.90437600  0.50762100  1
  C  3  1  0.98017400  0.83408150  0.47322650  1
  C  4  1  0.97876500  0.79978900  0.40337200  1
  C  5  1  0.97759800  0.83407650  0.36780150  1
  C  6  1  0.97722900  0.90437650  0.40371650  1
  C  10  1  0.10162200  0.70657100  0.20882400  1
  C  12  1  0.97714200  0.79587300  0.29776300  1
  C  13  1  0.85589800  0.76338100  0.26534600  1
  C  15  1  0.98042500  0.67415400  0.17609900  1
  C  18  1  0.10161100  0.76333250  0.50492150  1
  C  20  1  0.97740700  0.67413550  0.50509850  1
  C  21  1  0.85614100  0.70652700  0.50489200  1
  C  23  1  0.98034300  0.79589300  0.50504600  1
  C  151  1  0.97896300  0.46091800  0.95688200  1
  C  152  1  0.97714200  0.49359300  0.91832800  1
  C  153  1  0.97747700  0.45921100  0.84804500  1
  C  155  1  0.97896300  0.49699400  0.02896600  1
  C  156  1  0.98069200  0.56824300  0.06755800  1
  C  157  1  0.98022500  0.60414300  0.13785800  1
  C  158  1  0.97876600  0.56855550  0.17212250  1
  C  159  1  0.97751600  0.49869900  0.13780000  1
  C  160  1  0.97717800  0.46431400  0.06751900  1
  C  163  1  0.97875600  0.46092800  0.51104000  1
  C  164  1  0.98035700  0.45919550  0.61815450  1
  C  165  1  0.98062700  0.49359550  0.58227150  1
  C  167  1  0.97875400  0.49698850  0.47501950  1
  C  168  1  0.98057000  0.46431250  0.40378750  1
  C  169  1  0.98029300  0.49870400  0.36789600  1
  C  170  1  0.97913000  0.56855800  0.40343800  1
  C  171  1  0.97763000  0.60412750  0.47329250  1
  C  172  1  0.97701100  0.56823100  0.50768600  1
  C  175  1  0.10167200  0.46703250  0.26528550  1
  C  177  1  0.97704100  0.46685600  0.17593400  1
  C  178  1  0.85611900  0.46704750  0.20874050  1
  C  180  1  0.98074600  0.46686800  0.29792000  1
  C  183  1  0.10174800  0.49086750  0.72077750  1
  C  185  1  0.97704600  0.49111250  0.80992350  1
  C  186  1  0.85591700  0.49091700  0.77731700  1
  C  188  1  0.98078300  0.49101450  0.68813050  1
  C  391  1  0.97877000  0.38935350  0.81372050  1
  C  392  1  0.98020500  0.35376700  0.84799100  1
  C  393  1  0.98075200  0.38967150  0.91829050  1
  C  397  1  0.97695000  0.38968750  0.47836950  1
  C  398  1  0.97767000  0.35377850  0.51275050  1
  C  399  1  0.97916000  0.38934000  0.58260400  1
  C  463  1  0.97898800  0.01504800  0.51103300  1
  C  464  1  0.97726500  0.05362550  0.58227950  1
  C  465  1  0.97756300  0.12392650  0.61819650  1
  C  466  1  0.97872500  0.15821450  0.58263050  1
  C  467  1  0.98015000  0.12392250  0.51277450  1
  C  468  1  0.98065400  0.05363100  0.47837600  1
  C  472  1  0.10183700  0.25129300  0.77719800  1
  C  474  1  0.97706600  0.16213500  0.68823400  1
  C  475  1  0.85586700  0.19476800  0.72060900  1
  C  477  1  0.98063400  0.28373150  0.80977050  1
  C  480  1  0.10162200  0.19481750  0.48127750  1
  C  482  1  0.97720300  0.28375050  0.48089650  1
  C  483  1  0.85591850  0.25134100  0.48092800  1
  C  485  1  0.98038700  0.16211900  0.48096500  1
  H  7  1  0.98262100  0.92646350  0.55798850  1
  H  8  1  0.97865300  0.74870450  0.37782750  1
  H  9  1  0.97535700  0.92647250  0.37544650  1
  H  16  1  0.19354200  0.68349600  0.19319500  1
  H  17  1  0.76390600  0.77897700  0.28834400  1
  H  24  1  0.19353100  0.77903050  0.49755850  1
  H  25  1  0.76418000  0.68348100  0.49742300  1
  H  154  1  0.97519600  0.54396100  0.94042700  1
  H  161  1  0.98263800  0.59652700  0.04547900  1
  H  162  1  0.97866900  0.59407550  0.22320850  1
  H  166  1  0.98254000  0.54396250  0.61055050  1
  H  173  1  0.97927200  0.59409200  0.37788700  1
  H  174  1  0.97501200  0.59651150  0.55805350  1
  H  181  1  0.19370400  0.47445300  0.28825600  1
  H  182  1  0.76403700  0.47455900  0.19330600  1
  H  189  1  0.19376000  0.48347850  0.69779850  1
  H  190  1  0.76388400  0.48339800  0.79278800  1
  H  394  1  0.98279000  0.36139050  0.94037150  1
  H  395  1  0.97871900  0.36383300  0.76263800  1
  H  396  1  0.97524800  0.41394600  0.04542100  1
  H  400  1  0.97483100  0.36141050  0.42800550  1
  H  401  1  0.97926200  0.36379600  0.60814600  1
  H  402  1  0.98248600  0.41394800  0.37551000  1
  H  469  1  0.97542900  0.03153050  0.61055150  1
  H  470  1  0.98256400  0.03154350  0.42800850  1
  H  471  1  0.97861200  0.20930050  0.60817150  1
  H  478  1  0.19378500  0.27432900  0.79286200  1
  H  479  1  0.76388600  0.17923450  0.69757850  1
  H  486  1  0.19352100  0.17918800  0.48874900  1
  H  487  1  0.76394100  0.27434950  0.48831550  1
  N  11  1  0.09441300  0.76333100  0.26876000  1
  N  14  1  0.86325400  0.70339600  0.20864100  1
  N  19  1  0.09446300  0.70338450  0.50170750  1
  N  22  1  0.86329900  0.76323100  0.50161300  1
  N  176  1  0.09415700  0.47025750  0.20857450  1
  N  179  1  0.86364300  0.47030050  0.26869350  1
  N  184  1  0.09442800  0.48769800  0.77753200  1
  N  187  1  0.86359200  0.48760950  0.71734050  1
  N  473  1  0.09446400  0.19454250  0.71725550  1
  N  476  1  0.86325800  0.25474000  0.77732500  1
  N  481  1  0.09445400  0.25475250  0.48446250  1
  N  484  1  0.86322800  0.19465100  0.48422800  1
