# generated using pymatgen
data_TbCuH8C16N5O8
_symmetry_space_group_name_H-M   'P 1'
_cell_length_a   10.76954952
_cell_length_b   10.81417000
_cell_length_c   12.01647000
_cell_angle_alpha   69.94472000
_cell_angle_beta   83.23081473
_cell_angle_gamma   60.45836739
_symmetry_Int_Tables_number   1
_chemical_formula_structural   TbCuH8C16N5O8
_chemical_formula_sum   'Tb2 Cu2 H16 C32 N10 O16'
_cell_volume   1141.46978365
_cell_formula_units_Z   2
loop_
 _symmetry_equiv_pos_site_id
 _symmetry_equiv_pos_as_xyz
  1  'x, y, z'
loop_
 _atom_site_type_symbol
 _atom_site_label
 _atom_site_symmetry_multiplicity
 _atom_site_fract_x
 _atom_site_fract_y
 _atom_site_fract_z
 _atom_site_occupancy
  Tb  Tb1  1  0.54226000  0.47080000  0.83730000  1.0
  Tb  Tb2  1  0.45719000  0.53304000  0.16229000  1.0
  Cu  Cu1  1  0.00063000  0.99958000  0.00032000  1.0
  Cu  Cu2  1  0.00067000  0.99892000  0.50042000  1.0
  H  H1  1  0.02869000  0.71332000  0.47992000  1.0
  H  H2  1  0.91663000  0.54533000  0.57319000  1.0
  H  H3  1  0.66941000  0.83963000  0.77460000  1.0
  H  H4  1  0.78034000  0.00411000  0.66589000  1.0
  H  H5  1  0.97997000  0.28637000  0.81694000  1.0
  H  H6  1  0.12896000  0.41844000  0.76945000  1.0
  H  H7  1  0.41687000  0.06733000  0.06772000  1.0
  H  H8  1  0.25302000  0.95483000  0.10894000  1.0
  H  H9  1  0.96994000  0.28543000  0.52085000  1.0
  H  H10  1  0.08140000  0.45405000  0.42824000  1.0
  H  H11  1  0.32982000  0.16099000  0.22611000  1.0
  H  H12  1  0.21954000  0.99546000  0.33406000  1.0
  H  H13  1  0.02088000  0.71475000  0.18217000  1.0
  H  H14  1  0.87261000  0.58183000  0.23133000  1.0
  H  H15  1  0.58275000  0.93126000  0.93376000  1.0
  H  H16  1  0.74635000  0.04422000  0.89053000  1.0
  C  C1  1  0.17949000  0.84614000  0.71965000  1.0
  C  C2  1  0.17621000  0.83957000  0.83847000  1.0
  C  C3  1  0.28103000  0.75930000  0.64328000  1.0
  C  C4  1  0.26563000  0.73353000  0.94867000  1.0
  C  C5  1  0.94766000  0.73701000  0.54464000  1.0
  C  C6  1  0.88725000  0.64435000  0.59727000  1.0
  C  C7  1  0.78752000  0.68006000  0.68280000  1.0
  C  C8  1  0.74769000  0.81074000  0.70899000  1.0
  C  C9  1  0.80916000  0.89999000  0.65050000  1.0
  C  C10  1  0.72125000  0.58277000  0.74860000  1.0
  C  C11  1  0.07645000  0.24365000  0.87064000  1.0
  C  C12  1  0.15872000  0.31519000  0.84443000  1.0
  C  C13  1  0.28436000  0.25092000  0.91496000  1.0
  C  C14  1  0.31945000  0.11994000  0.01235000  1.0
  C  C15  1  0.23022000  0.05691000  0.03491000  1.0
  C  C16  1  0.38094000  0.31902000  0.88487000  1.0
  C  C17  1  0.82235000  0.15110000  0.28214000  1.0
  C  C18  1  0.82570000  0.15847000  0.16316000  1.0
  C  C19  1  0.71965000  0.23811000  0.35815000  1.0
  C  C20  1  0.73691000  0.26534000  0.05433000  1.0
  C  C21  1  0.05141000  0.26170000  0.45638000  1.0
  C  C22  1  0.11127000  0.35513000  0.40397000  1.0
  C  C23  1  0.21129000  0.32008000  0.31847000  1.0
  C  C24  1  0.25145000  0.18959000  0.29180000  1.0
  C  C25  1  0.19062000  0.09945000  0.35003000  1.0
  C  C26  1  0.27834000  0.41618000  0.25355000  1.0
  C  C27  1  0.92406000  0.75701000  0.12912000  1.0
  C  C28  1  0.84221000  0.68490000  0.15616000  1.0
  C  C29  1  0.71578000  0.74920000  0.08706000  1.0
  C  C30  1  0.68035000  0.87896000  0.98878000  1.0
  C  C31  1  0.76943000  0.94267000  0.96523000  1.0
  C  C32  1  0.62021000  0.67949000  0.12030000  1.0
  N  N1  1  0.05515000  0.96976000  0.66542000  1.0
  N  N2  1  0.97753000  0.03941000  0.74211000  1.0
  N  N3  1  0.05082000  0.96056000  0.84678000  1.0
  N  N4  1  0.90926000  0.86214000  0.57159000  1.0
  N  N5  1  0.11220000  0.11625000  0.96446000  1.0
  N  N6  1  0.94640000  0.02736000  0.33586000  1.0
  N  N7  1  0.02396000  0.95833000  0.25860000  1.0
  N  N8  1  0.95095000  0.03788000  0.15417000  1.0
  N  N9  1  0.09039000  0.13663000  0.42909000  1.0
  N  N10  1  0.88746000  0.88424000  0.03513000  1.0
  O  O1  1  0.23313000  0.78712000  0.54334000  1.0
  O  O2  1  0.41322000  0.66614000  0.68548000  1.0
  O  O3  1  0.38203000  0.61324000  0.94891000  1.0
  O  O4  1  0.22512000  0.76148000  0.04498000  1.0
  O  O5  1  0.73261000  0.48088000  0.71145000  1.0
  O  O6  1  0.65373000  0.61008000  0.83958000  1.0
  O  O7  1  0.50555000  0.24565000  0.93627000  1.0
  O  O8  1  0.33731000  0.44893000  0.80546000  1.0
  O  O9  1  0.76786000  0.21096000  0.45861000  1.0
  O  O10  1  0.58946000  0.32838000  0.31686000  1.0
  O  O11  1  0.61972000  0.38505000  0.05448000  1.0
  O  O12  1  0.77473000  0.24246000  0.95553000  1.0
  O  O13  1  0.26686000  0.51955000  0.28955000  1.0
  O  O14  1  0.34917000  0.38683000  0.16441000  1.0
  O  O15  1  0.49435000  0.75146000  0.07069000  1.0
  O  O16  1  0.66549000  0.55067000  0.20019000  1.0
