# generated using pymatgen
data_EuAgH8C14(NO4)2
_symmetry_space_group_name_H-M   'P 1'
_cell_length_a   9.70068000
_cell_length_b   12.10133736
_cell_length_c   17.16317000
_cell_angle_alpha   82.61338066
_cell_angle_beta   89.87066000
_cell_angle_gamma   66.43849341
_symmetry_Int_Tables_number   1
_chemical_formula_structural   EuAgH8C14(NO4)2
_chemical_formula_sum   'Eu4 Ag4 H32 C56 N8 O32'
_cell_volume   1828.83000199
_cell_formula_units_Z   4
loop_
 _symmetry_equiv_pos_site_id
 _symmetry_equiv_pos_as_xyz
  1  'x, y, z'
loop_
 _atom_site_type_symbol
 _atom_site_label
 _atom_site_symmetry_multiplicity
 _atom_site_fract_x
 _atom_site_fract_y
 _atom_site_fract_z
 _atom_site_occupancy
  Eu  Eu0  1  0.68925000  0.01030000  0.56512000  1
  Eu  Eu1  1  0.31308000  0.98893000  0.43501000  1
  Eu  Eu2  1  0.30050000  0.00983000  0.06536000  1
  Eu  Eu3  1  0.69958000  0.98882000  0.93477000  1
  Ag  Ag4  1  0.96427000  0.31075000  0.91924000  1
  Ag  Ag5  1  0.03718000  0.68705000  0.08084000  1
  Ag  Ag6  1  0.27490000  0.68841000  0.58101000  1
  Ag  Ag7  1  0.72534000  0.31115000  0.41896000  1
  H  H8  1  0.87107000  0.62923000  0.62075000  1
  H  H9  1  0.96487000  0.59717000  0.36913000  1
  H  H10  1  0.12932000  0.37017000  0.37951000  1
  H  H11  1  0.24826000  0.28963000  0.83197000  1
  H  H12  1  0.75210000  0.70950000  0.16786000  1
  H  H13  1  0.56184000  0.40138000  0.13125000  1
  H  H14  1  0.46253000  0.28972000  0.33272000  1
  H  H15  1  0.49944000  0.62846000  0.12099000  1
  H  H16  1  0.75792000  0.27781000  0.04652000  1
  H  H17  1  0.02163000  0.09653000  0.66724000  1
  H  H18  1  0.03671000  0.72120000  0.45368000  1
  H  H19  1  0.58203000  0.81154000  0.77623000  1
  H  H20  1  0.88097000  0.09699000  0.16678000  1
  H  H21  1  0.53825000  0.70932000  0.66741000  1
  H  H22  1  0.41844000  0.18769000  0.22383000  1
  H  H23  1  0.60676000  0.81233000  0.27700000  1
  H  H24  1  0.89347000  0.19522000  0.78230000  1
  H  H25  1  0.03562000  0.40223000  0.63085000  1
  H  H26  1  0.57798000  0.57854000  0.45513000  1
  H  H27  1  0.50180000  0.36855000  0.87935000  1
  H  H28  1  0.24292000  0.71976000  0.95311000  1
  H  H29  1  0.84437000  0.57820000  0.95540000  1
  H  H30  1  0.97963000  0.90199000  0.33254000  1
  H  H31  1  0.96391000  0.27861000  0.54593000  1
  H  H32  1  0.10725000  0.80369000  0.21707000  1
  H  H33  1  0.42227000  0.42130000  0.54500000  1
  H  H34  1  0.11953000  0.90191000  0.83324000  1
  H  H35  1  0.91124000  0.19507000  0.28177000  1
  H  H36  1  0.43965000  0.59579000  0.86882000  1
  H  H37  1  0.08929000  0.80423000  0.71797000  1
  H  H38  1  0.39389000  0.18701000  0.72295000  1
  H  H39  1  0.15703000  0.41937000  0.04498000  1
  C  C40  1  0.29186000  0.92902000  0.25606000  1
  C  C41  1  0.21930000  0.13273000  0.68680000  1
  C  C42  1  0.89483000  0.37499000  0.54552000  1
  C  C43  1  0.28227000  0.18916000  0.73354000  1
  C  C44  1  0.96571000  0.06987000  0.48594000  1
  C  C45  1  0.62294000  0.06821000  0.12177000  1
  C  C46  1  0.52806000  0.18966000  0.23406000  1
  C  C47  1  0.22149000  0.45624000  0.00587000  1
  C  C48  1  0.99795000  0.80520000  0.23330000  1
  C  C49  1  0.10564000  0.62472000  0.45431000  1
  C  C50  1  0.96640000  0.06890000  0.98581000  1
  C  C51  1  0.79857000  0.75355000  0.20516000  1
  C  C52  1  0.71848000  0.80993000  0.26635000  1
  C  C53  1  0.66934000  0.61798000  0.03815000  1
  C  C54  1  0.03350000  0.92941000  0.01538000  1
  C  C55  1  0.70882000  0.07058000  0.74413000  1
  C  C56  1  0.33139000  0.37984000  0.96199000  1
  C  C57  1  0.93407000  0.44521000  0.59222000  1
  C  C58  1  0.92572000  0.86089000  0.29678000  1
  C  C59  1  0.78606000  0.13807000  0.20271000  1
  C  C60  1  0.47245000  0.80946000  0.76604000  1
  C  C61  1  0.07551000  0.13775000  0.70291000  1
  C  C62  1  0.44807000  0.75334000  0.70497000  1
  C  C63  1  0.38066000  0.55286000  0.90748000  1
  C  C64  1  0.55262000  0.24568000  0.29513000  1
  C  C65  1  0.69398000  0.93130000  0.37853000  1
  C  C66  1  0.80331000  0.19359000  0.26608000  1
  C  C67  1  0.03705000  0.93038000  0.51545000  1
  C  C68  1  0.39134000  0.24791000  0.47006000  1
  C  C69  1  0.37681000  0.93112000  0.87828000  1
  C  C70  1  0.77954000  0.92980000  0.75555000  1
  C  C71  1  0.63892000  0.75144000  0.03030000  1
  C  C72  1  0.77959000  0.54151000  0.99439000  1
  C  C73  1  0.20192000  0.24554000  0.79463000  1
  C  C74  1  0.28804000  0.38118000  0.46224000  1
  C  C75  1  0.78209000  0.86583000  0.31314000  1
  C  C76  1  0.67913000  0.54193000  0.49404000  1
  C  C77  1  0.64699000  0.13344000  0.18692000  1
  C  C78  1  0.19726000  0.80546000  0.73386000  1
  C  C79  1  0.62072000  0.44445000  0.09263000  1
  C  C80  1  0.15694000  0.43028000  0.41276000  1
  C  C81  1  0.36079000  0.24678000  0.96974000  1
  C  C82  1  0.32127000  0.45783000  0.50599000  1
  C  C83  1  0.73056000  0.37429000  0.04601000  1
  C  C84  1  0.41398000  0.42882000  0.91253000  1
  C  C85  1  0.06642000  0.55431000  0.40776000  1
  C  C86  1  0.84357000  0.56921000  0.58737000  1
  C  C87  1  0.27064000  0.62319000  0.95396000  1
  C  C88  1  0.22070000  0.06984000  0.24458000  1
  C  C89  1  0.30868000  0.06687000  0.62181000  1
  C  C90  1  0.21442000  0.86089000  0.79729000  1
  C  C91  1  0.58722000  0.56852000  0.08767000  1
  C  C92  1  0.35338000  0.86564000  0.81313000  1
  C  C93  1  0.60925000  0.75168000  0.53020000  1
  C  C94  1  0.71250000  0.61844000  0.53789000  1
  C  C95  1  0.00290000  0.19363000  0.76628000  1
  N  N96  1  0.06523000  0.24683000  0.81192000  1
  N  N97  1  0.19290000  0.57541000  0.00301000  1
  N  N98  1  0.68814000  0.24675000  0.31206000  1
  N  N99  1  0.93532000  0.75204000  0.18777000  1
  N  N100  1  0.31257000  0.75229000  0.68796000  1
  N  N101  1  0.76958000  0.42281000  0.49668000  1
  N  N102  1  0.80835000  0.42228000  0.99716000  1
  N  N103  1  0.23080000  0.57697000  0.50322000  1
  O  O104  1  0.21114333  0.12219000  0.30487000  1
  O  O105  1  0.03006000  0.12858000  0.01543000  1
  O  O106  1  0.24130000  0.03011000  0.57466000  1
  O  O107  1  0.85773000  0.11197000  0.93560000  1
  O  O108  1  0.50001000  0.94438000  0.87911000  1
  O  O109  1  0.52605000  0.21762000  0.49607000  1
  O  O110  1  0.66910000  0.12253000  0.80483000  1
  O  O111  1  0.03273000  0.11251000  0.43601000  1
  O  O112  1  0.44449000  0.05496000  0.62059000  1
  O  O113  1  0.30529000  0.87539000  0.32591000  1
  O  O114  1  0.15845000  0.86983000  0.48452000  1
  O  O115  1  0.97257000  0.86866000  0.98471000  1
  O  O116  1  0.48692000  0.17684000  0.94878000  1
  O  O117  1  0.69611000  0.12387000  0.67428000  1
  O  O118  1  0.25587000  0.21690000  0.99601000  1
  O  O119  1  0.17665000  0.12278000  0.17497000  1
  O  O120  1  0.49953000  0.05542000  0.12092000  1
  O  O121  1  0.84223000  0.12977000  0.51537000  1
  O  O122  1  0.27306000  0.96643000  0.92588000  1
  O  O123  1  0.66504000  0.82185000  0.55119000  1
  O  O124  1  0.47466000  0.78190000  0.50392000  1
  O  O125  1  0.33508000  0.17793000  0.44918000  1
  O  O126  1  0.97185000  0.88845000  0.56681000  1
  O  O127  1  0.14023000  0.88766000  0.06665000  1
  O  O128  1  0.51250000  0.82123000  0.05105000  1
  O  O129  1  0.78883000  0.87763000  0.69524000  1
  O  O130  1  0.33130000  0.87727000  0.19530000  1
  O  O131  1  0.72641000  0.03276000  0.07405000  1
  O  O132  1  0.55742000  0.94512000  0.37967000  1
  O  O133  1  0.74343000  0.78202000  0.00407000  1
  O  O134  1  0.82356000  0.87675000  0.82516000  1
  O  O135  1  0.76304000  0.96616000  0.42595000  1
