# generated using pymatgen
data_CdPHCO6
_symmetry_space_group_name_H-M   'P 1'
_cell_length_a   5.75040000
_cell_length_b   8.47711000
_cell_length_c   15.73849000
_cell_angle_alpha   90.17824000
_cell_angle_beta   90.01202000
_cell_angle_gamma   94.75120000
_symmetry_Int_Tables_number   1
_chemical_formula_structural   CdPHCO6
_chemical_formula_sum   'Cd4 P4 H4 C4 O24'
_cell_volume   764.56054184
_cell_formula_units_Z   4
loop_
 _symmetry_equiv_pos_site_id
 _symmetry_equiv_pos_as_xyz
  1  'x, y, z'
loop_
 _atom_site_type_symbol
 _atom_site_label
 _atom_site_symmetry_multiplicity
 _atom_site_fract_x
 _atom_site_fract_y
 _atom_site_fract_z
 _atom_site_occupancy
  Cd  Cd0  1  0.35465000  0.02607000  0.31909000  1
  Cd  Cd1  1  0.14659000  0.47371000  0.81921000  1
  Cd  Cd2  1  0.64536000  0.97394000  0.68091000  1
  Cd  Cd3  1  0.85342000  0.52629000  0.18079000  1
  P  P4  1  0.33229000  0.34226000  0.19167000  1
  P  P5  1  0.16815000  0.15927000  0.69071000  1
  P  P6  1  0.66772000  0.65775000  0.80833000  1
  P  P7  1  0.83186000  0.84073000  0.30929000  1
  H  H8  1  0.45385000  0.31343000  0.06332000  1
  H  H9  1  0.04723000  0.18955000  0.56263000  1
  H  H10  1  0.54616000  0.68657000  0.93668000  1
  H  H11  1  0.95277000  0.81045000  0.43737000  1
  C  C12  1  0.59578000  0.06841000  0.49344000  1
  C  C13  1  0.90281000  0.43299000  0.99321000  1
  C  C14  1  0.40422000  0.93159000  0.50656000  1
  C  C15  1  0.09720000  0.56701000  0.00678000  1
  O  O16  1  0.46665000  0.20872000  0.22962000  1
  O  O17  1  0.47672000  0.50370000  0.20347000  1
  O  O18  1  0.08966000  0.35109000  0.22918000  1
  O  O19  1  0.29991000  0.30433000  0.09184000  1
  O  O20  1  0.60108000  0.14405000  0.42504000  1
  O  O21  1  0.74192000  0.09644000  0.55385000  1
  O  O22  1  0.03177000  0.28967000  0.73115000  1
  O  O23  1  0.02364000  0.99770000  0.69987000  1
  O  O24  1  0.41037000  0.15156000  0.72881000  1
  O  O25  1  0.20078000  0.20025000  0.59143000  1
  O  O26  1  0.89621000  0.35746000  0.92469000  1
  O  O27  1  0.75653000  0.40660000  0.05368000  1
  O  O28  1  0.53336000  0.79128000  0.77038000  1
  O  O29  1  0.52328000  0.49630000  0.79653000  1
  O  O30  1  0.91034000  0.64891000  0.77082000  1
  O  O31  1  0.70009000  0.69568000  0.90816000  1
  O  O32  1  0.39893000  0.85595000  0.57496000  1
  O  O33  1  0.25809000  0.90356000  0.44615000  1
  O  O34  1  0.96823000  0.71033000  0.26884000  1
  O  O35  1  0.97637000  0.00231000  0.30013000  1
  O  O36  1  0.58964000  0.84844000  0.27119000  1
  O  O37  1  0.79923000  0.79975000  0.40857000  1
  O  O38  1  0.10380000  0.64255000  0.07531000  1
  O  O39  1  0.24348000  0.59340000  0.94632000  1
