# generated using pymatgen
data_H9C11N5
_symmetry_space_group_name_H-M   'P 1'
_cell_length_a   10.02073333
_cell_length_b   44.89215000
_cell_length_c   44.89220000
_cell_angle_alpha   120.00011053
_cell_angle_beta   90.00000000
_cell_angle_gamma   90.00000000
_symmetry_Int_Tables_number   1
_chemical_formula_structural   H9C11N5
_chemical_formula_sum   'H81 C99 N45'
_cell_volume   17489.24040306
_cell_formula_units_Z   9
loop_
 _symmetry_equiv_pos_site_id
 _symmetry_equiv_pos_as_xyz
  1  'x, y, z'
loop_
 _atom_site_type_symbol
 _atom_site_label
 _atom_site_symmetry_multiplicity
 _atom_site_fract_x
 _atom_site_fract_y
 _atom_site_fract_z
 _atom_site_occupancy
  C  1  1  0.90390400  0.86994400  0.42659800  1
  C  2  1  0.89992300  0.84659100  0.43900300  1
  C  3  1  0.95756200  0.81367900  0.41992700  1
  C  4  1  0.01975300  0.80421400  0.38814600  1
  C  5  1  0.02215200  0.82704900  0.37520000  1
  C  6  1  0.96280300  0.85977600  0.39441200  1
  C  16  1  0.90421400  0.55923600  0.13210800  1
  C  17  1  0.90006700  0.59498900  0.15547800  1
  C  18  1  0.95767700  0.60882100  0.18839300  1
  C  19  1  0.01985200  0.58650200  0.19785800  1
  C  20  1  0.02234800  0.55072300  0.17500900  1
  C  21  1  0.96325100  0.53722000  0.14225600  1
  C  31  1  0.90401900  0.57545700  0.44282600  1
  C  32  1  0.89988300  0.56304000  0.40706600  1
  C  33  1  0.95744400  0.58210100  0.39320300  1
  C  34  1  0.01959800  0.61389400  0.41549800  1
  C  35  1  0.02213200  0.62685400  0.45128000  1
  C  36  1  0.96300200  0.60763800  0.46481800  1
  C  46  1  0.02017600  0.12467400  0.56182000  1
  C  47  1  0.99003600  0.14776100  0.55003700  1
  C  48  1  0.99490600  0.18363100  0.57265200  1
  C  49  1  0.02978200  0.19607700  0.60743500  1
  C  50  1  0.05756000  0.17329100  0.61964600  1
  C  51  1  0.05266000  0.13756200  0.59666900  1
  C  61  1  0.02021600  0.43972500  0.87738300  1
  C  62  1  0.98999000  0.40486500  0.85427800  1
  C  63  1  0.99481700  0.39163900  0.81841200  1
  C  64  1  0.02968700  0.41399900  0.80599100  1
  C  65  1  0.05755000  0.44898500  0.82879800  1
  C  66  1  0.05269800  0.46170900  0.86452000  1
  C  76  1  0.02000900  0.44023900  0.56237000  1
  C  77  1  0.98975700  0.45201200  0.59723300  1
  C  78  1  0.99463700  0.42938800  0.61047700  1
  C  79  1  0.02945200  0.39460400  0.58813100  1
  C  80  1  0.05722500  0.38240100  0.55313600  1
  C  81  1  0.05245900  0.40538900  0.54039800  1
  C  91  1  0.94332200  0.96338500  0.48886700  1
  C  93  1  0.82126000  0.00921000  0.48859100  1
  C  94  1  0.91473200  0.03340400  0.51120300  1
  C  96  1  0.03513100  0.98785600  0.51244600  1
  C  98  1  0.13897000  0.98024900  0.52473400  1
  C  100  1  0.90235300  0.07059700  0.52341300  1
  C  101  1  0.95858700  0.92586200  0.47504900  1
  C  106  1  0.94340300  0.52807300  0.03866500  1
  C  108  1  0.82137100  0.48194900  0.99285200  1
  C  109  1  0.91478600  0.48037000  0.96865100  1
  C  111  1  0.03515500  0.52718300  0.01418300  1
  C  113  1  0.13895500  0.54708800  0.02177500  1
  C  115  1  0.90238300  0.45538200  0.93145800  1
  C  116  1  0.95870100  0.55178900  0.07618600  1
  C  121  1  0.94353200  0.51324200  0.47406200  1
  C  123  1  0.82142600  0.51352700  0.52016500  1
  C  124  1  0.91485600  0.49091000  0.52175000  1
  C  126  1  0.03537100  0.48968300  0.47498000  1
  C  128  1  0.13925000  0.47739800  0.45509900  1
  C  130  1  0.90236800  0.47868100  0.54671600  1
  C  131  1  0.95879100  0.52703900  0.45033900  1
  C  136  1  0.02163900  0.76989800  0.28648000  1
  C  138  1  0.13971000  0.71736700  0.26981000  1
  C  139  1  0.06474500  0.70028000  0.23922500  1
  C  141  1  0.94750900  0.75277000  0.25544000  1
  C  143  1  0.85396800  0.76731200  0.24707700  1
  C  145  1  0.07946000  0.66308400  0.21450600  1
  C  146  1  0.00131300  0.80657900  0.31298100  1
  C  151  1  0.02162000  0.51911600  0.23213400  1
  C  153  1  0.13963900  0.55494900  0.28468100  1
  C  154  1  0.06460500  0.54144300  0.30175000  1
  C  156  1  0.94741400  0.50519400  0.24924300  1
  C  158  1  0.85389600  0.48228800  0.23467800  1
  C  160  1  0.07924400  0.55390900  0.33894500  1
  C  161  1  0.00135300  0.50895900  0.19545800  1
  C  166  1  0.02165900  0.71563300  0.48292400  1
  C  168  1  0.13994800  0.73238100  0.44715400  1
  C  169  1  0.06482400  0.76293800  0.46063100  1
  C  171  1  0.94743900  0.74665900  0.49683700  1
  C  173  1  0.85378300  0.75498300  0.51970700  1
  C  175  1  0.07944000  0.78765900  0.44815400  1
  C  176  1  0.00114200  0.68907400  0.49301800  1
  C  181  1  0.01562600  0.23125400  0.71095200  1
  C  183  1  0.15236900  0.28190400  0.73621200  1
  C  184  1  0.06591200  0.29798500  0.76470400  1
  C  186  1  0.92949100  0.24733200  0.73985700  1
  C  188  1  0.82177400  0.23313800  0.74322100  1
  C  190  1  0.08575100  0.33388400  0.79268300  1
  C  191  1  0.99102900  0.19667800  0.68063300  1
  C  196  1  0.01561500  0.48235600  0.77086200  1
  C  198  1  0.15236200  0.45697100  0.72021100  1
  C  199  1  0.06587100  0.46937300  0.70413000  1
  C  201  1  0.92947200  0.49518300  0.75478600  1
  C  203  1  0.82175400  0.51274000  0.76898200  1
  C  205  1  0.08565200  0.46143700  0.66822200  1
  C  206  1  0.99101400  0.48660800  0.80543500  1
  C  211  1  0.01562500  0.29105700  0.51971400  1
  C  213  1  0.15250700  0.26576400  0.54504700  1
  C  214  1  0.06604600  0.23727400  0.53263800  1
  C  216  1  0.92955100  0.26213800  0.50686000  1
  C  218  1  0.82172000  0.25880000  0.48935000  1
  C  220  1  0.08584000  0.20930200  0.54057100  1
  C  221  1  0.99089600  0.32140200  0.51551000  1
  H  7  1  0.06254400  0.78043200  0.37425100  1
  H  8  1  0.96877000  0.87687600  0.38568300  1
  H  9  1  0.85862800  0.85404200  0.46254800  1
  H  11  1  0.76915200  0.90585300  0.45622600  1
  H  13  1  0.15782300  0.83478400  0.34653300  1
  H  15  1  0.91718800  0.76768300  0.41463500  1
  H  22  1  0.06252900  0.59638400  0.22165300  1
  H  23  1  0.96900500  0.51138300  0.12517200  1
  H  24  1  0.85878700  0.61108800  0.14802900  1
  H  26  1  0.76933400  0.55294900  0.09621800  1
  H  28  1  0.15801600  0.51432700  0.16730300  1
  H  30  1  0.91702200  0.64950200  0.23438600  1
  H  37  1  0.06226000  0.62778700  0.40559300  1
  H  38  1  0.96889400  0.61639600  0.49065500  1
  H  39  1  0.85865300  0.53948000  0.39098900  1
  H  41  1  0.76932300  0.54584000  0.44914400  1
  H  43  1  0.15789100  0.65557000  0.48763800  1
  H  45  1  0.91677800  0.58736200  0.35249500  1
  H  52  1  0.03650300  0.22201300  0.62398300  1
  H  53  1  0.07674400  0.12092900  0.60518400  1
  H  54  1  0.96860000  0.13837000  0.52460000  1
  H  56  1  0.09940700  0.08370700  0.52103600  1
  H  58  1  0.17440700  0.17387700  0.65726600  1
  H  60  1  0.94422100  0.23018700  0.57953500  1
  H  67  1  0.03640800  0.40462700  0.78005700  1
  H  68  1  0.07681900  0.48685200  0.88116900  1
  H  69  1  0.96854200  0.38880300  0.86364700  1
  H  71  1  0.09940700  0.43986500  0.91833300  1
  H  73  1  0.17436600  0.48604800  0.82825300  1
  H  75  1  0.94405100  0.35199500  0.77184600  1
  H  82  1  0.03620300  0.37805100  0.59751400  1
  H  83  1  0.07662100  0.39688600  0.51525700  1
  H  84  1  0.96846000  0.47745100  0.61329200  1
  H  86  1  0.09938100  0.48102600  0.56221800  1
  H  88  1  0.17423700  0.34480600  0.51612600  1
  H  90  1  0.94394200  0.42249400  0.65014300  1
  H  97  1  0.74191600  0.01647900  0.47939800  1
  H  102  1  0.87760800  0.07441900  0.50181900  1
  H  103  1  0.82020800  0.08060500  0.54193500  1
  H  104  1  0.94698400  0.92044300  0.49611800  1
  H  105  1  0.06080800  0.91919200  0.46526700  1
  H  112  1  0.74205500  0.46547600  0.98559300  1
  H  117  1  0.87760900  0.42996700  0.92763900  1
  H  118  1  0.82025300  0.46389800  0.92144900  1
  H  119  1  0.94700000  0.57827100  0.08159900  1
  H  120  1  0.06096100  0.54869700  0.08284700  1
  H  127  1  0.74193000  0.52267200  0.53657800  1
  H  132  1  0.87761900  0.50027100  0.57213600  1
  H  133  1  0.82018800  0.46017000  0.53818900  1
  H  134  1  0.94722400  0.50595900  0.42385800  1
  H  135  1  0.06100200  0.53683100  0.45345400  1
  H  142  1  0.21026300  0.70487400  0.27591700  1
  H  147  1  0.10784600  0.66003200  0.18960900  1
  H  148  1  0.15913900  0.65206600  0.22267900  1
  H  149  1  0.89549100  0.81035400  0.32001000  1
  H  150  1  0.02471300  0.82246200  0.30150100  1
  H  157  1  0.21019300  0.57354700  0.29718800  1
  H  162  1  0.10756000  0.53205700  0.34199400  1
  H  163  1  0.15894400  0.57309000  0.34997200  1
  H  164  1  0.89554200  0.51223000  0.19168200  1
  H  165  1  0.02471700  0.48159600  0.17955900  1
  H  172  1  0.21051000  0.72628800  0.42855700  1
  H  177  1  0.10760000  0.81257500  0.47000600  1
  H  178  1  0.15922800  0.77952300  0.42899600  1
  H  179  1  0.89532000  0.68203900  0.48969000  1
  H  180  1  0.02430700  0.70049600  0.52038800  1
  H  187  1  0.23428300  0.29417700  0.73395500  1
  H  192  1  0.09756100  0.33357200  0.81673200  1
  H  193  1  0.17773000  0.34435300  0.78833900  1
  H  194  1  0.89314700  0.19731400  0.67013400  1
  H  195  1  0.98711600  0.17751000  0.68885000  1
  H  202  1  0.23421900  0.44242400  0.70793000  1
  H  207  1  0.09744600  0.48579500  0.66852400  1
  H  208  1  0.17762500  0.44662300  0.65775000  1
  H  209  1  0.89313200  0.47547300  0.80480000  1
  H  210  1  0.98710300  0.51399600  0.82460500  1
  H  217  1  0.23438100  0.26802900  0.55959100  1
  H  222  1  0.09755200  0.18524300  0.51621100  1
  H  223  1  0.17785100  0.21363300  0.55536500  1
  H  224  1  0.89299600  0.33187300  0.52665600  1
  H  225  1  0.98696200  0.31322300  0.48813300  1
  N  10  1  0.86368900  0.90457900  0.44680600  1
  N  12  1  0.08741700  0.81691200  0.34369000  1
  N  14  1  0.95177100  0.79123400  0.43342000  1
  N  25  1  0.86391300  0.54481500  0.09748000  1
  N  27  1  0.08752600  0.52934500  0.18515300  1
  N  29  1  0.95177600  0.64475600  0.21085500  1
  N  40  1  0.86385800  0.55526900  0.45727900  1
  N  42  1  0.08730600  0.65838200  0.47262800  1
  N  44  1  0.95154600  0.56859300  0.35726400  1
  N  55  1  0.02848000  0.08890000  0.53956100  1
  N  57  1  0.09703700  0.18714000  0.65421900  1
  N  59  1  0.97035100  0.20624200  0.55973100  1
  N  70  1  0.02851800  0.45321500  0.91315300  1
  N  72  1  0.09702300  0.46973500  0.81497600  1
  N  74  1  0.97023800  0.35611300  0.79577800  1
  N  85  1  0.02843000  0.46251200  0.54887300  1
  N  87  1  0.09682300  0.34783400  0.53241800  1
  N  89  1  0.97011700  0.44229800  0.64600900  1
  N  92  1  0.84021600  0.97546800  0.47811200  1
  N  95  1  0.01694800  0.02141400  0.52222100  1
  N  99  1  0.23096500  0.97355800  0.53549800  1
  N  107  1  0.84034100  0.50522100  0.02659300  1
  N  110  1  0.01695900  0.50339200  0.98062800  1
  N  114  1  0.23092000  0.56455100  0.02845600  1
  N  122  1  0.84036800  0.52398700  0.49688400  1
  N  125  1  0.01713300  0.47990000  0.49875800  1
  N  129  1  0.23128000  0.46664000  0.43765600  1
  N  137  1  0.11478100  0.75103900  0.29193900  1
  N  140  1  0.97168900  0.71888100  0.23346200  1
  N  144  1  0.77089400  0.78015300  0.23982900  1
  N  152  1  0.11476100  0.54342400  0.25101000  1
  N  155  1  0.97154500  0.51708700  0.28313000  1
  N  159  1  0.77084600  0.46219600  0.22181700  1
  N  167  1  0.11493000  0.71021600  0.45864800  1
  N  170  1  0.97164400  0.76866200  0.48495700  1
  N  174  1  0.77061200  0.76219500  0.53976400  1
  N  182  1  0.12325200  0.24968800  0.71076600  1
  N  185  1  0.95799700  0.27985900  0.76519700  1
  N  189  1  0.72642700  0.22064300  0.74615300  1
  N  197  1  0.12323200  0.46373600  0.75242800  1
  N  200  1  0.95795800  0.48799200  0.72225600  1
  N  204  1  0.72640700  0.52816800  0.78147900  1
  N  212  1  0.12328800  0.29123500  0.53831700  1
  N  215  1  0.95808200  0.23679300  0.51403800  1
  N  219  1  0.72627700  0.25588600  0.47396000  1
