# generated using pymatgen
data_H4C5N
_symmetry_space_group_name_H-M   'P 1'
_cell_length_a   10.03720000
_cell_length_b   43.49470000
_cell_length_c   43.79070000
_cell_angle_alpha   119.77200000
_cell_angle_beta   90.00000000
_cell_angle_gamma   90.00000000
_symmetry_Int_Tables_number   1
_chemical_formula_structural   H4C5N
_chemical_formula_sum   'H72 C90 N18'
_cell_volume   16594.13586567
_cell_formula_units_Z   18
loop_
 _symmetry_equiv_pos_site_id
 _symmetry_equiv_pos_as_xyz
  1  'x, y, z'
loop_
 _atom_site_type_symbol
 _atom_site_label
 _atom_site_symmetry_multiplicity
 _atom_site_fract_x
 _atom_site_fract_y
 _atom_site_fract_z
 _atom_site_occupancy
  C  1  1  0.94070100  0.34644400  0.64515500  1
  C  3  1  0.94086100  0.35226700  0.70228100  1
  C  5  1  0.94003800  0.29484900  0.65119600  1
  C  7  1  0.95685600  0.37377700  0.73931000  1
  C  8  1  0.98623700  0.41036900  0.75486700  1
  C  9  1  0.01609800  0.43074600  0.79088800  1
  C  10  1  0.01782200  0.41531100  0.81265600  1
  C  11  1  0.98306000  0.37915000  0.79754900  1
  C  12  1  0.95342800  0.35877000  0.76153600  1
  C  13  1  0.95678700  0.36211200  0.62356900  1
  C  14  1  0.95483900  0.39937500  0.63827000  1
  C  15  1  0.98462300  0.41510300  0.61776800  1
  C  16  1  0.01811500  0.39411400  0.58179700  1
  C  17  1  0.01503000  0.35690100  0.56669100  1
  C  18  1  0.98496700  0.34116500  0.58718000  1
  C  19  1  0.95587900  0.25755400  0.63558400  1
  C  20  1  0.95076900  0.23534600  0.59859700  1
  C  21  1  0.98093800  0.19910300  0.58279400  1
  C  22  1  0.01806500  0.18374700  0.60342000  1
  C  23  1  0.01761700  0.20546700  0.64039900  1
  C  24  1  0.98710900  0.24172100  0.65622100  1
  C  37  1  0.05488800  0.40929100  0.55911600  1
  C  40  1  0.05599100  0.14587600  0.58803700  1
  C  43  1  0.05456500  0.43783600  0.85030600  1
  C  46  1  0.02905000  0.64797400  0.35111400  1
  C  48  1  0.02913400  0.64220400  0.29404400  1
  C  50  1  0.02991700  0.69955600  0.34512400  1
  C  52  1  0.01560000  0.62072200  0.25697500  1
  C  53  1  0.97826800  0.58462900  0.24140400  1
  C  54  1  0.95292100  0.56435300  0.20511900  1
  C  55  1  0.96448800  0.57934800  0.18308200  1
  C  56  1  0.00657300  0.61500400  0.19833400  1
  C  57  1  0.03102700  0.63533900  0.23462600  1
  C  58  1  0.01518000  0.63219900  0.37263200  1
  C  59  1  0.02934600  0.59517400  0.35830200  1
  C  60  1  0.00474100  0.57910700  0.37875100  1
  C  61  1  0.96379600  0.59946300  0.41423600  1
  C  62  1  0.95333000  0.63653800  0.42891900  1
  C  63  1  0.97885500  0.65265100  0.40853200  1
  C  64  1  0.01662000  0.73689600  0.36082000  1
  C  65  1  0.03260000  0.75918400  0.39754600  1
  C  66  1  0.00772900  0.79571700  0.41365700  1
  C  67  1  0.96473800  0.81128600  0.39365500  1
  C  68  1  0.95293000  0.78932800  0.35684700  1
  C  69  1  0.97863700  0.75279200  0.34068000  1
  C  82  1  0.93356300  0.58381300  0.43689600  1
  C  85  1  0.93367800  0.84963400  0.40947200  1
  C  88  1  0.93415000  0.55684400  0.14499300  1
  C  91  1  0.95576100  0.53017800  0.44114200  1
  C  92  1  0.08111000  0.51753700  0.44503300  1
  C  94  1  0.98979500  0.50440100  0.48786800  1
  C  95  1  0.86171600  0.51623100  0.48452700  1
  C  96  1  0.84639700  0.52927700  0.46101000  1
  C  98  1  0.01005900  0.49153200  0.51134000  1
  C  99  1  0.05396700  0.46418800  0.55646200  1
  C  101  1  0.15945500  0.46686400  0.53631000  1
  C  102  1  0.92625000  0.47643600  0.55417800  1
  C  103  1  0.90208100  0.49006200  0.53146900  1
  C  104  1  0.77466300  0.50170700  0.52795900  1
  C  105  1  0.75468400  0.51480200  0.50470000  1
  C  109  1  0.20405400  0.51725500  0.42626200  1
  C  113  1  0.29835700  0.45627100  0.53764900  1
  C  121  1  0.95644900  0.55331200  0.08779600  1
  C  122  1  0.08169800  0.54963600  0.07140400  1
  C  124  1  0.98990500  0.50728200  0.01555300  1
  C  125  1  0.86193500  0.51041200  0.03060300  1
  C  126  1  0.84691400  0.53357100  0.06703500  1
  C  128  1  0.00985100  0.48418400  0.97933500  1
  C  129  1  0.05321400  0.43977200  0.90716100  1
  C  131  1  0.15889100  0.45975500  0.92995900  1
  C  132  1  0.92557200  0.44186000  0.92155100  1
  C  133  1  0.90168000  0.46422000  0.95774600  1
  C  134  1  0.77436700  0.46751700  0.97278200  1
  C  135  1  0.75469800  0.49040600  0.00900700  1
  C  139  1  0.20478500  0.56831500  0.08989000  1
  C  143  1  0.29774000  0.45855800  0.91813600  1
  C  151  1  0.95555300  0.90683500  0.46329900  1
  C  152  1  0.08083200  0.92317600  0.47622400  1
  C  154  1  0.98971400  0.97972600  0.49052800  1
  C  155  1  0.86172900  0.96473300  0.47840000  1
  C  156  1  0.84635300  0.92796700  0.46460600  1
  C  158  1  0.01003000  0.01627300  0.50417700  1
  C  159  1  0.05410700  0.08905900  0.53296300  1
  C  161  1  0.15945000  0.06588300  0.52981400  1
  C  162  1  0.92645900  0.07475500  0.52047500  1
  C  163  1  0.90219500  0.03825000  0.50612900  1
  C  164  1  0.77485400  0.02327000  0.49418700  1
  C  165  1  0.75482300  0.98671900  0.48032500  1
  C  169  1  0.20356800  0.90432400  0.47619000  1
  C  173  1  0.29827100  0.07762300  0.54061600  1
  H  25  1  0.98350800  0.44212200  0.62972300  1
  H  26  1  0.93456500  0.41571100  0.66438700  1
  H  27  1  0.03790100  0.34088400  0.54066400  1
  H  28  1  0.98846800  0.31413200  0.57526500  1
  H  29  1  0.92783400  0.24540200  0.58250200  1
  H  30  1  0.97751900  0.18431500  0.55597300  1
  H  31  1  0.99317100  0.25660000  0.68303700  1
  H  32  1  0.04317600  0.19517600  0.65614700  1
  H  33  1  0.93210900  0.33250800  0.75167300  1
  H  34  1  0.98077800  0.36696900  0.81237400  1
  H  35  1  0.03988400  0.45691800  0.80099600  1
  H  36  1  0.99079100  0.42250300  0.73998700  1
  H  38  1  0.97895900  0.40053400  0.53850400  1
  H  39  1  0.15024200  0.39795700  0.54646700  1
  H  41  1  0.98105000  0.13352500  0.59666900  1
  H  42  1  0.15194700  0.14444200  0.59906800  1
  H  44  1  0.97886900  0.45863100  0.86223600  1
  H  45  1  0.15013400  0.45054300  0.85176300  1
  H  70  1  0.01568800  0.55226300  0.36711300  1
  H  71  1  0.05637600  0.57926500  0.33257800  1
  H  72  1  0.92461700  0.65211500  0.45457200  1
  H  73  1  0.96599300  0.67946500  0.42007900  1
  H  74  1  0.06096000  0.74904400  0.41322300  1
  H  75  1  0.01985400  0.81059300  0.44028900  1
  H  76  1  0.96453600  0.73781400  0.31409100  1
  H  77  1  0.92288100  0.79974000  0.34152200  1
  H  78  1  0.05886300  0.66120800  0.24453500  1
  H  79  1  0.01839800  0.62686800  0.18338800  1
  H  80  1  0.92338600  0.53856200  0.19494300  1
  H  81  1  0.96447800  0.57288200  0.25642800  1
  H  83  1  0.83321800  0.59188700  0.44777900  1
  H  84  1  0.00449100  0.59530700  0.45878700  1
  H  86  1  0.83327600  0.85255000  0.40147100  1
  H  87  1  0.00440100  0.86055300  0.39830100  1
  H  89  1  0.83369500  0.54592100  0.14209900  1
  H  90  1  0.00487900  0.53475700  0.13446300  1
  H  97  1  0.75552700  0.53837300  0.45833400  1
  H  106  1  0.69568400  0.50073600  0.54224500  1
  H  107  1  0.66161400  0.52315800  0.50255100  1
  H  108  1  0.84939700  0.47443300  0.56849300  1
  H  110  1  0.18834200  0.52714500  0.40802500  1
  H  111  1  0.24185700  0.49021800  0.41130800  1
  H  112  1  0.27948200  0.53377700  0.44533800  1
  H  114  1  0.36364400  0.46175700  0.52096400  1
  H  115  1  0.30344000  0.42799400  0.52850900  1
  H  116  1  0.33591700  0.47097200  0.56454400  1
  H  118  1  0.14824500  0.45742300  0.59362800  1
  H  120  1  0.86371400  0.53301100  0.40180000  1
  H  127  1  0.75608400  0.53612500  0.07870000  1
  H  136  1  0.69525000  0.45334700  0.95753300  1
  H  137  1  0.66169600  0.49241200  0.01942700  1
  H  138  1  0.84861500  0.42764600  0.90526600  1
  H  140  1  0.18931800  0.58627400  0.11792100  1
  H  141  1  0.24243500  0.58377200  0.07830600  1
  H  142  1  0.28022500  0.54895100  0.08693100  1
  H  144  1  0.36320400  0.47504500  0.94023800  1
  H  145  1  0.30279600  0.46823200  0.89950000  1
  H  146  1  0.33511500  0.43143900  0.90559500  1
  H  148  1  0.14711000  0.40260400  0.86331500  1
  H  150  1  0.86473800  0.59265400  0.12996000  1
  H  157  1  0.75550600  0.91633200  0.45535100  1
  H  166  1  0.69597800  0.03879800  0.49549700  1
  H  167  1  0.66181500  0.97634300  0.47176700  1
  H  168  1  0.84975000  0.09132300  0.52279500  1
  H  170  1  0.18783700  0.87603600  0.46571900  1
  H  171  1  0.24076000  0.91555300  0.50305100  1
  H  172  1  0.27947300  0.90761900  0.46019400  1
  H  174  1  0.36349000  0.05523100  0.53468900  1
  H  175  1  0.30303900  0.09597900  0.56882900  1
  H  176  1  0.33613500  0.09067200  0.52658600  1
  H  178  1  0.14832000  0.13341900  0.54025600  1
  H  180  1  0.86315000  0.86411300  0.45972600  1
  N  2  1  0.94233200  0.36647900  0.68080100  1
  N  4  1  0.94179800  0.31636200  0.68665700  1
  N  6  1  0.94159300  0.31072900  0.63119600  1
  N  47  1  0.02766900  0.62792100  0.31546400  1
  N  49  1  0.02844000  0.67810900  0.30965500  1
  N  51  1  0.02838700  0.68369100  0.36513700  1
  N  93  1  0.09214300  0.50550500  0.46818100  1
  N  100  1  0.13233400  0.48030100  0.51485300  1
  N  117  1  0.06519400  0.44856200  0.57790900  1
  N  119  1  0.94260100  0.54456000  0.41867400  1
  N  123  1  0.09244300  0.52682100  0.03634100  1
  N  130  1  0.13203100  0.48086900  0.96471000  1
  N  147  1  0.06437300  0.41855100  0.87030000  1
  N  149  1  0.94340600  0.57555600  0.12445300  1
  N  153  1  0.09192500  0.95856900  0.48897300  1
  N  160  1  0.13224600  0.03084100  0.51568400  1
  N  177  1  0.06567800  0.12619800  0.54902200  1
  N  179  1  0.94212500  0.86988200  0.44847900  1
