# generated using pymatgen
data_CuH8C12(NO2)2
_symmetry_space_group_name_H-M   'P 1'
_cell_length_a   15.59508279
_cell_length_b   15.67031000
_cell_length_c   17.10315000
_cell_angle_alpha   89.99151000
_cell_angle_beta   89.97989342
_cell_angle_gamma   60.15897308
_symmetry_Int_Tables_number   1
_chemical_formula_structural   CuH8C12(NO2)2
_chemical_formula_sum   'Cu9 H72 C108 N18 O36'
_cell_volume   3625.47955023
_cell_formula_units_Z   9
loop_
 _symmetry_equiv_pos_site_id
 _symmetry_equiv_pos_as_xyz
  1  'x, y, z'
loop_
 _atom_site_type_symbol
 _atom_site_label
 _atom_site_symmetry_multiplicity
 _atom_site_fract_x
 _atom_site_fract_y
 _atom_site_fract_z
 _atom_site_occupancy
  Cu  Cu0  1  0.35129000  0.81105000  0.21579000  1
  Cu  Cu1  1  0.15632000  0.68550000  0.55004000  1
  Cu  Cu2  1  0.01772000  0.50349000  0.21188000  1
  Cu  Cu3  1  0.83785000  0.35100000  0.54914000  1
  Cu  Cu4  1  0.15782000  0.15618000  0.88337000  1
  Cu  Cu5  1  0.47897000  0.01746000  0.54521000  1
  Cu  Cu6  1  0.81097000  0.83764000  0.88249000  1
  Cu  Cu7  1  0.68589000  0.15794000  0.21667000  1
  Cu  Cu8  1  0.50345000  0.47884000  0.87858000  1
  H  H9  1  0.46372000  0.90451000  0.26273000  1
  H  H10  1  0.48519000  0.04641000  0.22007000  1
  H  H11  1  0.38499000  0.14871000  0.10638000  1
  H  H12  1  0.25683000  0.96029000  0.08919000  1
  H  H13  1  0.45861000  0.60471000  0.16263000  1
  H  H14  1  0.47593000  0.44246000  0.20359000  1
  H  H15  1  0.38338000  0.43890000  0.32281000  1
  H  H16  1  0.26608000  0.75135000  0.34513000  1
  H  H17  1  0.09574000  0.59845000  0.42314000  1
  H  H18  1  0.77729000  0.74525000  0.43035000  1
  H  H19  1  0.78258000  0.84409000  0.54384000  1
  H  H20  1  0.94881000  0.81200000  0.59162000  1
  H  H21  1  0.92738000  0.64966000  0.08307000  1
  H  H22  1  0.03946000  0.85021000  0.10917000  1
  H  H23  1  0.13573000  0.75192000  0.22584000  1
  H  H24  1  0.12152000  0.60445000  0.26434000  1
  H  H25  1  0.79453000  0.51195000  0.97978000  1
  H  H26  1  0.79579000  0.41177000  0.86472000  1
  H  H27  1  0.95504000  0.25923000  0.83051000  1
  H  H28  1  0.10434000  0.30309000  0.01233000  1
  H  H29  1  0.13877000  0.29728000  0.16717000  1
  H  H30  1  0.16694000  0.13288000  0.21326000  1
  H  H31  1  0.06646000  0.12891000  0.32723000  1
  H  H32  1  0.92592000  0.44516000  0.33707000  1
  H  H33  1  0.63240000  0.46341000  0.59600000  1
  H  H34  1  0.46831000  0.48485000  0.55292000  1
  H  H35  1  0.46576000  0.38477000  0.43929000  1
  H  H36  1  0.78273000  0.25722000  0.42303000  1
  H  H37  1  0.93702000  0.45810000  0.49649000  1
  H  H38  1  0.08267000  0.47596000  0.53738000  1
  H  H39  1  0.17854000  0.38373000  0.65617000  1
  H  H40  1  0.98190000  0.26583000  0.67815000  1
  H  H41  1  0.30639000  0.09493000  0.75605000  1
  H  H42  1  0.47669000  0.77849000  0.76377000  1
  H  H43  1  0.37231000  0.78357000  0.87775000  1
  H  H44  1  0.23881000  0.94854000  0.92545000  1
  H  H45  1  0.42293000  0.92768000  0.41687000  1
  H  H46  1  0.10967000  0.03928000  0.44208000  1
  H  H47  1  0.11212000  0.13545000  0.55867000  1
  H  H48  1  0.27463000  0.12123000  0.59754000  1
  H  H49  1  0.69299000  0.79501000  0.31355000  1
  H  H50  1  0.79219000  0.79660000  0.19813000  1
  H  H51  1  0.78597000  0.95551000  0.16346000  1
  H  H52  1  0.59305000  0.10346000  0.34543000  1
  H  H53  1  0.56433000  0.13812000  0.50101000  1
  H  H54  1  0.70120000  0.16693000  0.54716000  1
  H  H55  1  0.80541000  0.06691000  0.66062000  1
  H  H56  1  0.62829000  0.92572000  0.67001000  1
  H  H57  1  0.90381000  0.63217000  0.92985000  1
  H  H58  1  0.04579000  0.46936000  0.88676000  1
  H  H59  1  0.14865000  0.46698000  0.77262000  1
  H  H60  1  0.96072000  0.78185000  0.75602000  1
  H  H61  1  0.60427000  0.93732000  0.82968000  1
  H  H62  1  0.44154000  0.08221000  0.87022000  1
  H  H63  1  0.43834000  0.17778000  0.98908000  1
  H  H64  1  0.75231000  0.98213000  0.01194000  1
  H  H65  1  0.59800000  0.30598000  0.08935000  1
  H  H66  1  0.74548000  0.47682000  0.09750000  1
  H  H67  1  0.84453000  0.37297000  0.21099000  1
  H  H68  1  0.81235000  0.23950000  0.25833000  1
  H  H69  1  0.65010000  0.42199000  0.74992000  1
  H  H70  1  0.85020000  0.11085000  0.77542000  1
  H  H71  1  0.75132000  0.11323000  0.89245000  1
  H  H72  1  0.60376000  0.27448000  0.93141000  1
  H  H73  1  0.51285000  0.69330000  0.64682000  1
  H  H74  1  0.41233000  0.79216000  0.53187000  1
  H  H75  1  0.25891000  0.78543000  0.49734000  1
  H  H76  1  0.30273000  0.59288000  0.67853000  1
  H  H77  1  0.29688000  0.56463000  0.83428000  1
  H  H78  1  0.13183000  0.70081000  0.88000000  1
  H  H79  1  0.12816000  0.80472000  0.99349000  1
  H  H80  1  0.44621000  0.62849000  0.00381000  1
  C  C81  1  0.42314000  0.95079000  0.21349000  1
  C  C82  1  0.43404000  0.02968000  0.18962000  1
  C  C83  1  0.37828000  0.08644000  0.12644000  1
  C  C84  1  0.31356000  0.06207000  0.08868000  1
  C  C85  1  0.30665000  0.98167000  0.11592000  1
  C  C86  1  0.42051000  0.59832000  0.21349000  1
  C  C87  1  0.42914000  0.50936000  0.23651000  1
  C  C88  1  0.37743000  0.50725000  0.30250000  1
  C  C89  1  0.31820000  0.59500000  0.34320000  1
  C  C90  1  0.31229000  0.68167000  0.31591000  1
  C  C91  1  0.26497000  0.59579000  0.41695000  1
  C  C92  1  0.02503000  0.65182000  0.44790000  1
  C  C93  1  0.93640000  0.66489000  0.41713000  1
  C  C94  1  0.84744000  0.73428000  0.45221000  1
  C  C95  1  0.85017000  0.78903000  0.51553000  1
  C  C96  1  0.94133000  0.77251000  0.54245000  1
  C  C97  1  0.93656000  0.60886000  0.34538000  1
  C  C98  1  0.97287000  0.67431000  0.11256000  1
  C  C99  1  0.97607000  0.75736000  0.08717000  1
  C  C100  1  0.03509000  0.78639000  0.12823000  1
  C  C101  1  0.08906000  0.73149000  0.19273000  1
  C  C102  1  0.08232000  0.64950000  0.21432000  1
  C  C103  1  0.94919000  0.47090000  0.07684000  1
  C  C104  1  0.94914000  0.41488000  0.00536000  1
  C  C105  1  0.86188000  0.44570000  0.96269000  1
  C  C106  1  0.86231000  0.39010000  0.89894000  1
  C  C107  1  0.94989000  0.30538000  0.87957000  1
  C  C108  1  0.03445000  0.32924000  0.98201000  1
  C  C109  1  0.09841000  0.29061000  0.21628000  1
  C  C110  1  0.11303000  0.20024000  0.24234000  1
  C  C111  1  0.05756000  0.19805000  0.30544000  1
  C  C112  1  0.98940000  0.28666000  0.34126000  1
  C  C113  1  0.97863000  0.37457000  0.31184000  1
  C  C114  1  0.93298000  0.28624000  0.41238000  1
  C  C115  1  0.92023000  0.81253000  0.01532000  1
  C  C116  1  0.25646000  0.11907000  0.01791000  1
  C  C117  1  0.62618000  0.42300000  0.54680000  1
  C  C118  1  0.53616000  0.43384000  0.52267000  1
  C  C119  1  0.53491000  0.37816000  0.45951000  1
  C  C120  1  0.62391000  0.31360000  0.42189000  1
  C  C121  1  0.71141000  0.30676000  0.44938000  1
  C  C122  1  0.98167000  0.42025000  0.54717000  1
  C  C123  1  0.06226000  0.42912000  0.57020000  1
  C  C124  1  0.11594000  0.37746000  0.63604000  1
  C  C125  1  0.08709000  0.31806000  0.67664000  1
  C  C126  1  0.00606000  0.31196000  0.64931000  1
  C  C127  1  0.13956000  0.26502000  0.75031000  1
  C  C128  1  0.32306000  0.02481000  0.78125000  1
  C  C129  1  0.39843000  0.93662000  0.75061000  1
  C  C130  1  0.41768000  0.84808000  0.78582000  1
  C  C131  1  0.36008000  0.85084000  0.84929000  1
  C  C132  1  0.28564000  0.94151000  0.87612000  1
  C  C133  1  0.45425000  0.93701000  0.67878000  1
  C  C134  1  0.35260000  0.97291000  0.44598000  1
  C  C135  1  0.26614000  0.97601000  0.42034000  1
  C  C136  1  0.17809000  0.03495000  0.46126000  1
  C  C137  1  0.17925000  0.08888000  0.52574000  1
  C  C138  1  0.26825000  0.08221000  0.54756000  1
  C  C139  1  0.57986000  0.94902000  0.41027000  1
  C  C140  1  0.63608000  0.94889000  0.33872000  1
  C  C141  1  0.69228000  0.86208000  0.29613000  1
  C  C142  1  0.74748000  0.86280000  0.23225000  1
  C  C143  1  0.74493000  0.95018000  0.21264000  1
  C  C144  1  0.63668000  0.03397000  0.31514000  1
  C  C145  1  0.61152000  0.09807000  0.54996000  1
  C  C146  1  0.68746000  0.11299000  0.57609000  1
  C  C147  1  0.74500000  0.05763000  0.63902000  1
  C  C148  1  0.72423000  0.98938000  0.67473000  1
  C  C149  1  0.64689000  0.97832000  0.64521000  1
  C  C150  1  0.78110000  0.93318000  0.74572000  1
  C  C151  1  0.26662000  0.92028000  0.34841000  1
  C  C152  1  0.62384000  0.25659000  0.35111000  1
  C  C153  1  0.95027000  0.62637000  0.88047000  1
  C  C154  1  0.02925000  0.53687000  0.85638000  1
  C  C155  1  0.08630000  0.53558000  0.79304000  1
  C  C156  1  0.06217000  0.62416000  0.75534000  1
  C  C157  1  0.98174000  0.71115000  0.78277000  1
  C  C158  1  0.59800000  0.98162000  0.88041000  1
  C  C159  1  0.50879000  0.06190000  0.90321000  1
  C  C160  1  0.50699000  0.11542000  0.96905000  1
  C  C161  1  0.59526000  0.08660000  0.00977000  1
  C  C162  1  0.68220000  0.00585000  0.98271000  1
  C  C163  1  0.59601000  0.13901000  0.08332000  1
  C  C164  1  0.65165000  0.32299000  0.11445000  1
  C  C165  1  0.66483000  0.39834000  0.08394000  1
  C  C166  1  0.73442000  0.41785000  0.11918000  1
  C  C167  1  0.78929000  0.36055000  0.18249000  1
  C  C168  1  0.77265000  0.28618000  0.20915000  1
  C  C169  1  0.60864000  0.45399000  0.01223000  1
  C  C170  1  0.67447000  0.35228000  0.77939000  1
  C  C171  1  0.75755000  0.26628000  0.75376000  1
  C  C172  1  0.78631000  0.17874000  0.79478000  1
  C  C173  1  0.73108000  0.17999000  0.85942000  1
  C  C174  1  0.64901000  0.26848000  0.88125000  1
  C  C175  1  0.47142000  0.58000000  0.74361000  1
  C  C176  1  0.41533000  0.63595000  0.67213000  1
  C  C177  1  0.44629000  0.69228000  0.62960000  1
  C  C178  1  0.39052000  0.74740000  0.56590000  1
  C  C179  1  0.30542000  0.74462000  0.54633000  1
  C  C180  1  0.32936000  0.63636000  0.64858000  1
  C  C181  1  0.29027000  0.61150000  0.88324000  1
  C  C182  1  0.19957000  0.68717000  0.90911000  1
  C  C183  1  0.19768000  0.74453000  0.97204000  1
  C  C184  1  0.28685000  0.72381000  0.00789000  1
  C  C185  1  0.37511000  0.64670000  0.97864000  1
  C  C186  1  0.28633000  0.78062000  0.07884000  1
  C  C187  1  0.81285000  0.26695000  0.68178000  1
  C  C188  1  0.11926000  0.62430000  0.68446000  1
  N  N189  1  0.36011000  0.92772000  0.17756000  1
  N  N190  1  0.03443000  0.27586000  0.92025000  1
  N  N191  1  0.02723000  0.70432000  0.50956000  1
  N  N192  1  0.02499000  0.62160000  0.17502000  1
  N  N193  1  0.03202000  0.37619000  0.25045000  1
  N  N194  1  0.36266000  0.68338000  0.25238000  1
  N  N195  1  0.71211000  0.36006000  0.51103000  1
  N  N196  1  0.69010000  0.03427000  0.25331000  1
  N  N197  1  0.26807000  0.02714000  0.84300000  1
  N  N198  1  0.35338000  0.02493000  0.50841000  1
  N  N199  1  0.59220000  0.03151000  0.58389000  1
  N  N200  1  0.95423000  0.36226000  0.58589000  1
  N  N201  1  0.92745000  0.71196000  0.84450000  1
  N  N202  1  0.27592000  0.68965000  0.58686000  1
  N  N203  1  0.70430000  0.26839000  0.17612000  1
  N  N204  1  0.62140000  0.35323000  0.84193000  1
  N  N205  1  0.37637000  0.59209000  0.91731000  1
  N  N206  1  0.68355000  0.95411000  0.91926000  1
  O  O207  1  0.19034000  0.09885000  0.99194000  1
  O  O208  1  0.27524000  0.18066000  0.98755000  1
  O  O209  1  0.94117000  0.87135000  0.98328000  1
  O  O210  1  0.85292000  0.79213000  0.99175000  1
  O  O211  1  0.19980000  0.68365000  0.44062000  1
  O  O212  1  0.28559000  0.51699000  0.45021000  1
  O  O213  1  0.85751000  0.62837000  0.31316000  1
  O  O214  1  0.02450000  0.54281000  0.32144000  1
  O  O215  1  0.03571000  0.44978000  0.10315000  1
  O  O216  1  0.86873000  0.53165000  0.10739000  1
  O  O217  1  0.87026000  0.37235000  0.44012000  1
  O  O218  1  0.95000000  0.20613000  0.44176000  1
  O  O219  1  0.71018000  0.19083000  0.32528000  1
  O  O220  1  0.54338000  0.27508000  0.32072000  1
  O  O221  1  0.18696000  0.94099000  0.31620000  1
  O  O222  1  0.35436000  0.85323000  0.32507000  1
  O  O223  1  0.11662000  0.19964000  0.77391000  1
  O  O224  1  0.19777000  0.28596000  0.78342000  1
  O  O225  1  0.51378000  0.85818000  0.64643000  1
  O  O226  1  0.43269000  0.02445000  0.65474000  1
  O  O227  1  0.51500000  0.03518000  0.43649000  1
  O  O228  1  0.59882000  0.86898000  0.44090000  1
  O  O229  1  0.75743000  0.87038000  0.77346000  1
  O  O230  1  0.84436000  0.95063000  0.77488000  1
  O  O231  1  0.09897000  0.71029000  0.65863000  1
  O  O232  1  0.18104000  0.54438000  0.65391000  1
  O  O233  1  0.87176000  0.18766000  0.64943000  1
  O  O234  1  0.79248000  0.35426000  0.65841000  1
  O  O235  1  0.68422000  0.11638000  0.10726000  1
  O  O236  1  0.51668000  0.19728000  0.11610000  1
  O  O237  1  0.62851000  0.51329000  0.97991000  1
  O  O238  1  0.54221000  0.43254000  0.98816000  1
  O  O239  1  0.44989000  0.51504000  0.76982000  1
  O  O240  1  0.53250000  0.59948000  0.77415000  1
  O  O241  1  0.37274000  0.75732000  0.10681000  1
  O  O242  1  0.20569000  0.84362000  0.10786000  1
