# generated using pymatgen
data_Cu2H51C43N11O8
_symmetry_space_group_name_H-M   'P 1'
_cell_length_a   9.64288000
_cell_length_b   10.79270000
_cell_length_c   15.88652000
_cell_angle_alpha   94.29474000
_cell_angle_beta   90.63212000
_cell_angle_gamma   89.81201000
_symmetry_Int_Tables_number   1
_chemical_formula_structural   Cu2H51C43N11O8
_chemical_formula_sum   'Cu2 H51 C43 N11 O8'
_cell_volume   1648.60527578
_cell_formula_units_Z   1
loop_
 _symmetry_equiv_pos_site_id
 _symmetry_equiv_pos_as_xyz
  1  'x, y, z'
loop_
 _atom_site_type_symbol
 _atom_site_label
 _atom_site_symmetry_multiplicity
 _atom_site_fract_x
 _atom_site_fract_y
 _atom_site_fract_z
 _atom_site_occupancy
  Cu  Cu0  1  0.35934000  0.49999000  0.49999000  1
  Cu  Cu1  1  0.64066000  0.50001000  0.50001000  1
  H  H2  1  0.30983000  0.60140000  0.93262000  1
  H  H3  1  0.70038000  0.58467000  0.93348000  1
  H  H4  1  0.19880000  0.08587000  0.25944000  1
  H  H5  1  0.20139000  0.85715000  0.26014000  1
  H  H6  1  0.34154000  0.75526000  0.36237000  1
  H  H7  1  0.27777000  0.44060000  0.91891000  1
  H  H8  1  0.31753000  0.60133000  0.07377000  1
  H  H9  1  0.65744000  0.12687000  0.58451000  1
  H  H10  1  0.33738000  0.21319000  0.36094000  1
  H  H11  1  0.78182000  0.92063000  0.59918000  1
  H  H12  1  0.70760000  0.86296000  0.73064000  1
  H  H13  1  0.53063000  0.85282000  0.69214000  1
  H  H14  1  0.61646000  0.00231000  0.70976000  1
  H  H15  1  0.86961000  0.26535000  0.38144000  1
  H  H16  1  0.80061000  0.33931000  0.24724000  1
  H  H17  1  0.98125000  0.37081000  0.26934000  1
  H  H18  1  0.85302000  0.49339000  0.28577000  1
  H  H19  1  0.24521000  0.33380000  0.04249000  1
  H  H20  1  0.03478000  0.39654000  0.10558000  1
  H  H21  1  0.06338000  0.49748000  0.02182000  1
  H  H22  1  0.10218000  0.55014000  0.13085000  1
  H  H23  1  0.75110000  0.66382000  0.62448000  1
  H  H24  1  0.86176000  0.70018000  0.76082000  1
  H  H25  1  0.11262000  0.69424000  0.76956000  1
  H  H26  1  0.31604000  0.71852000  0.68377000  1
  H  H27  1  0.30158000  0.89889000  0.60965000  1
  H  H28  1  0.13845000  0.88110000  0.66010000  1
  H  H29  1  0.15653000  0.83443000  0.54861000  1
  H  H30  1  0.12945000  0.37940000  0.39131000  1
  H  H31  1  0.65717000  0.33931000  0.06547000  1
  H  H32  1  0.50184000  0.15971000  0.02977000  1
  H  H33  1  0.45505000  0.11015000  0.15891000  1
  H  H34  1  0.39255000  0.26182000  0.18889000  1
  H  H35  1  0.57941000  0.23133000  0.18414000  1
  H  H36  1  0.36566000  0.24874000  0.92354000  1
  H  H37  1  0.38557000  0.26577000  0.77621000  1
  H  H38  1  0.45132000  0.11732000  0.80089000  1
  H  H39  1  0.57070000  0.23956000  0.78217000  1
  H  H40  1  0.72485000  0.37369000  0.85879000  1
  H  H41  1  0.74420000  0.18074000  0.98525000  1
  H  H42  1  0.87676000  0.22483000  0.91532000  1
  H  H43  1  0.72466000  0.14583000  0.87306000  1
  H  H44  1  0.67885000  0.68940000  0.16242000  1
  H  H45  1  0.52281000  0.86072000  0.16179000  1
  H  H46  1  0.42659000  0.72496000  0.18210000  1
  H  H47  1  0.42366000  0.78407000  0.07805000  1
  H  H48  1  0.70835000  0.53538000  0.06475000  1
  H  H49  1  0.61087000  0.78835000  0.97864000  1
  H  H50  1  0.52678000  0.86301000  0.86185000  1
  H  H51  1  0.42709000  0.72712000  0.83538000  1
  H  H52  1  0.61517000  0.72460000  0.82050000  1
  C  C53  1  0.49997000  0.26282000  0.49435000  1
  C  C54  1  0.35006000  0.51003000  0.95011000  1
  C  C55  1  0.49969000  0.48893000  0.91680000  1
  C  C56  1  0.59411000  0.59600000  0.95998000  1
  C  C57  1  0.60364000  0.57760000  0.05693000  1
  C  C58  1  0.49972000  0.49389000  0.82446000  1
  C  C59  1  0.49539000  0.48220000  0.17544000  1
  C  C60  1  0.49713000  0.48965000  0.25105000  1
  C  C61  1  0.33732000  0.11389000  0.36604000  1
  C  C62  1  0.25892000  0.04174000  0.30683000  1
  C  C63  1  0.26036000  0.91298000  0.30727000  1
  C  C64  1  0.49920000  0.49749000  0.34055000  1
  C  C65  1  0.33980000  0.85554000  0.36709000  1
  C  C66  1  0.41813000  0.92671000  0.42909000  1
  C  C67  1  0.41708000  0.05786000  0.42817000  1
  C  C68  1  0.50089000  0.12870000  0.48721000  1
  C  C69  1  0.59065000  0.07150000  0.54112000  1
  C  C70  1  0.59139000  0.94395000  0.54367000  1
  C  C71  1  0.50194000  0.87078000  0.48989000  1
  C  C72  1  0.85519000  0.63240000  0.63030000  1
  C  C73  1  0.92005000  0.66129000  0.70732000  1
  C  C74  1  0.06232000  0.65427000  0.71255000  1
  C  C75  1  0.50020000  0.73707000  0.49700000  1
  C  C76  1  0.13801000  0.63267000  0.63812000  1
  C  C77  1  0.07429000  0.56656000  0.56555000  1
  C  C78  1  0.92527000  0.56606000  0.56414000  1
  C  C79  1  0.92586000  0.43417000  0.43907000  1
  C  C80  1  0.07385000  0.43437000  0.43974000  1
  C  C81  1  0.50057000  0.49984000  0.65954000  1
  C  C82  1  0.34745000  0.50738000  0.04774000  1
  C  C83  1  0.54904000  0.34937000  0.04160000  1
  C  C84  1  0.55312000  0.35479000  0.94092000  1
  C  C85  1  0.50092000  0.49724000  0.74901000  1
  C  C86  1  0.49556000  0.47799000  0.08306000  1
  C  C87  1  0.63050000  0.90286000  0.68815000  1
  C  C88  1  0.87384000  0.39274000  0.29031000  1
  C  C89  1  0.10374000  0.46925000  0.08332000  1
  C  C90  1  0.20923000  0.83831000  0.61132000  1
  C  C91  1  0.47662000  0.21053000  0.15424000  1
  C  C92  1  0.46951000  0.21887000  0.81023000  1
  C  C93  1  0.76295000  0.21566000  0.92258000  1
  C  C94  1  0.48889000  0.76820000  0.13396000  1
  C  C95  1  0.52883000  0.75994000  0.86121000  1
  N  N96  1  0.85209000  0.50121000  0.50080000  1
  N  N97  1  0.14796000  0.50129000  0.50082000  1
  N  N98  1  0.68076000  0.89037000  0.60263000  1
  N  N99  1  0.85387000  0.35895000  0.37589000  1
  N  N100  1  0.24330000  0.42065000  0.07397000  1
  N  N101  1  0.25111000  0.71450000  0.63155000  1
  N  N102  1  0.47491000  0.23889000  0.06642000  1
  N  N103  1  0.46404000  0.25611000  0.89986000  1
  N  N104  1  0.69768000  0.33576000  0.91391000  1
  N  N105  1  0.61058000  0.69342000  0.11217000  1
  N  N106  1  0.54858000  0.72312000  0.94617000  1
  O  O107  1  0.38119000  0.31964000  0.49999000  1
  O  O108  1  0.61876000  0.31966000  0.50000000  1
  O  O109  1  0.38116000  0.49999000  0.37943000  1
  O  O110  1  0.61874000  0.50002000  0.37944000  1
  O  O111  1  0.38124000  0.68034000  0.50000000  1
  O  O112  1  0.61881000  0.68036000  0.50001000  1
  O  O113  1  0.38126000  0.49998000  0.62056000  1
  O  O114  1  0.61884000  0.50001000  0.62057000  1
