# generated using pymatgen
data_H10C13N5O
_symmetry_space_group_name_H-M   'P 1'
_cell_length_a   29.00570000
_cell_length_b   29.00570000
_cell_length_c   32.82810000
_cell_angle_alpha   89.84030000
_cell_angle_beta   90.15900000
_cell_angle_gamma   90.00000000
_symmetry_Int_Tables_number   1
_chemical_formula_structural   H10C13N5O
_chemical_formula_sum   'H160 C208 N80 O16'
_cell_volume   27619.07250067
_cell_formula_units_Z   16
loop_
 _symmetry_equiv_pos_site_id
 _symmetry_equiv_pos_as_xyz
  1  'x, y, z'
loop_
 _atom_site_type_symbol
 _atom_site_label
 _atom_site_symmetry_multiplicity
 _atom_site_fract_x
 _atom_site_fract_y
 _atom_site_fract_z
 _atom_site_occupancy
  H  7  1  0.74282600  0.83477800  0.89606100  1
  H  16  1  0.73895100  0.98865800  0.88541700  1
  H  17  1  0.86405300  0.98091100  0.00578500  1
  H  18  1  0.86257700  0.02208800  0.97200400  1
  H  19  1  0.58513600  0.84879200  0.80976300  1
  H  20  1  0.61391100  0.79991500  0.81365300  1
  H  21  1  0.66666667  0.95761400  0.88475600  1
  H  22  1  0.75856200  0.87230400  0.95920600  1
  H  33  1  0.24893600  0.15348000  0.89529500  1
  H  42  1  0.25458200  0.00078700  0.88837600  1
  H  43  1  0.12477900  0.00745800  0.00427700  1
  H  44  1  0.12814300  0.96603200  0.97100300  1
  H  45  1  0.41972800  0.14351500  0.83215600  1
  H  46  1  0.38895900  0.19109500  0.83117300  1
  H  47  1  0.32737100  0.03188200  0.89465500  1
  H  48  1  0.23072400  0.11723000  0.96036300  1
  H  59  1  0.33493000  0.74607500  0.39607300  1
  H  68  1  0.48850400  0.75091400  0.38747600  1
  H  69  1  0.48165400  0.62605300  0.50821600  1
  H  70  1  0.52346000  0.62838400  0.47535000  1
  H  71  1  0.34853100  0.90571300  0.31253400  1
  H  72  1  0.29980500  0.87660600  0.31550400  1
  H  73  1  0.45739500  0.82305900  0.38714700  1
  H  74  1  0.37175800  0.73006500  0.45998500  1
  H  85  1  0.65391000  0.24086000  0.39326400  1
  H  94  1  0.50115100  0.23594000  0.38569400  1
  H  95  1  0.50893500  0.36437000  0.50289400  1
  H  96  1  0.46730400  0.36207500  0.46963900  1
  H  97  1  0.64377900  0.06955200  0.33116400  1
  H  98  1  0.69146700  0.10014800  0.33045800  1
  H  99  1  0.53208900  0.16279000  0.39209100  1
  H  100  1  0.61763700  0.25812000  0.45859900  1
  H  111  1  0.24179400  0.65327400  0.80905800  1
  H  120  1  0.23544800  0.49951800  0.81904500  1
  H  121  1  0.32409600  0.49368900  0.67657600  1
  H  122  1  0.30855100  0.44773200  0.70191200  1
  H  123  1  0.08578800  0.64083600  0.89726500  1
  H  124  1  0.11526700  0.68927600  0.89342300  1
  H  125  1  0.16373100  0.53168700  0.82036500  1
  H  126  1  0.25933300  0.61655700  0.74677300  1
  H  137  1  0.74973100  0.33488100  0.80725100  1
  H  146  1  0.75247000  0.48759000  0.81659800  1
  H  147  1  0.63684400  0.48474300  0.68836800  1
  H  148  1  0.63526300  0.52508300  0.72260800  1
  H  149  1  0.91694200  0.34630300  0.87808000  1
  H  150  1  0.88674200  0.29839100  0.87726200  1
  H  151  1  0.82624300  0.45757400  0.81256000  1
  H  152  1  0.73385500  0.37196900  0.74184700  1
  H  163  1  0.83484900  0.73945300  0.30863500  1
  H  172  1  0.98863700  0.73321200  0.31781300  1
  H  173  1  0.99359500  0.82131000  0.17446500  1
  H  174  1  0.03971900  0.80533100  0.19930100  1
  H  175  1  0.84823000  0.58341800  0.39747700  1
  H  176  1  0.79972000  0.61284100  0.39381000  1
  H  177  1  0.95663100  0.66159500  0.31956500  1
  H  178  1  0.87110100  0.75734600  0.24610800  1
  H  189  1  0.15348000  0.24735900  0.30818100  1
  H  198  1  0.00049900  0.25408200  0.31680500  1
  H  199  1  0.99330600  0.16101500  0.17655500  1
  H  200  1  0.94752700  0.17705000  0.20162200  1
  H  201  1  0.14463800  0.41437100  0.37897100  1
  H  202  1  0.19205400  0.38338300  0.37832000  1
  H  203  1  0.03244500  0.32655000  0.31250000  1
  H  204  1  0.11687100  0.22790700  0.24495100  1
  H  215  1  0.50568200  0.04341000  0.79432000  1
  H  218  1  0.44307200  0.93428700  0.92879400  1
  H  219  1  0.50211600  0.93358200  0.94095400  1
  H  220  1  0.45561100  0.87383700  0.88486000  1
  H  222  1  0.57040500  0.92178200  0.89896000  1
  H  224  1  0.41753800  0.06330900  0.80431700  1
  H  231  1  0.54388200  0.98234200  0.29506400  1
  H  234  1  0.43537100  0.04763900  0.42845100  1
  H  235  1  0.43518500  0.98890200  0.44175700  1
  H  236  1  0.37471800  0.03354200  0.38480200  1
  H  238  1  0.42441900  0.91895900  0.40132400  1
  H  240  1  0.56340800  0.07081900  0.30332800  1
  H  247  1  0.00469100  0.44683200  0.91385200  1
  H  250  1  0.94142400  0.55375400  0.77793700  1
  H  251  1  0.00037100  0.55384400  0.76568500  1
  H  252  1  0.95470900  0.61503800  0.82086200  1
  H  254  1  0.06927800  0.56561400  0.80723000  1
  H  256  1  0.91695800  0.42599500  0.90392700  1
  H  263  1  0.04348500  0.50385800  0.41384400  1
  H  266  1  0.93678400  0.43967300  0.27842900  1
  H  267  1  0.93621300  0.49861500  0.26586600  1
  H  268  1  0.87547900  0.45251500  0.32137400  1
  H  270  1  0.92454100  0.56767900  0.30692600  1
  H  272  1  0.06487200  0.41615300  0.40435500  1
  H  279  1  0.88901900  0.92329200  0.13585400  1
  H  282  1  0.83708900  0.74397200  0.08036500  1
  H  283  1  0.84382000  0.76978500  0.03223800  1
  H  284  1  0.76372400  0.77404200  0.08310900  1
  H  286  1  0.80886900  0.84384200  0.00827300  1
  H  288  1  0.91433300  0.87053700  0.19266000  1
  H  295  1  0.09681600  0.06249300  0.13396600  1
  H  298  1  0.15234800  0.24270500  0.08298800  1
  H  299  1  0.14588300  0.21862500  0.03422400  1
  H  300  1  0.22513000  0.21124500  0.08626500  1
  H  302  1  0.17991100  0.14474300  0.00923600  1
  H  304  1  0.07285900  0.11373000  0.19213000  1
  H  311  1  0.42455600  0.59772100  0.63595200  1
  H  314  1  0.24481700  0.65234700  0.58270100  1
  H  315  1  0.26968100  0.64602200  0.53426100  1
  H  316  1  0.27578300  0.72532100  0.58597900  1
  H  318  1  0.34372100  0.68062000  0.50998800  1
  H  320  1  0.37264300  0.57282400  0.69330300  1
  H  327  1  0.56388800  0.37995900  0.63743800  1
  H  330  1  0.74483300  0.33882700  0.57916200  1
  H  331  1  0.71865700  0.34753800  0.53139400  1
  H  332  1  0.71716000  0.26443600  0.57892700  1
  H  334  1  0.64568000  0.31152200  0.50605000  1
  H  336  1  0.61651400  0.39517800  0.69815800  1
  H  343  1  0.73796400  0.16482300  0.83382000  1
  H  346  1  0.87664200  0.20641500  0.95193100  1
  H  347  1  0.88713700  0.14683900  0.94901200  1
  H  348  1  0.81845900  0.19153900  0.99765100  1
  H  350  1  0.82741500  0.08504000  0.95797300  1
  H  352  1  0.75401400  0.25155900  0.82259300  1
  H  359  1  0.25438500  0.82539400  0.83549600  1
  H  362  1  0.12141800  0.78067900  0.95737300  1
  H  363  1  0.10892700  0.83986000  0.95398000  1
  H  364  1  0.18067300  0.79784400  0.00156600  1
  H  366  1  0.16658200  0.90380000  0.96056300  1
  H  368  1  0.23947600  0.73802900  0.82497800  1
  H  375  1  0.66306200  0.75173200  0.33540500  1
  H  378  1  0.70867900  0.62001000  0.45873600  1
  H  379  1  0.64947000  0.60751100  0.45584500  1
  H  380  1  0.69186100  0.67970600  0.50227900  1
  H  382  1  0.58565100  0.66536500  0.46212700  1
  H  384  1  0.75037000  0.73681600  0.32467600  1
  H  391  1  0.32434200  0.23472400  0.33429900  1
  H  394  1  0.28324100  0.37438000  0.45096500  1
  H  395  1  0.34273900  0.38509200  0.44749600  1
  H  396  1  0.29876600  0.31674800  0.49734700  1
  H  398  1  0.40484900  0.32574300  0.45672900  1
  H  400  1  0.23737600  0.25066200  0.32332400  1
  H  407  1  0.22833500  0.31847000  0.86079100  1
  H  410  1  0.39055300  0.29024100  0.76559700  1
  H  411  1  0.39607900  0.35028200  0.77094600  1
  H  412  1  0.34037800  0.30273500  0.71220400  1
  H  414  1  0.33639200  0.40994500  0.75593700  1
  H  416  1  0.24964700  0.23429500  0.87573600  1
  H  423  1  0.75417000  0.66282200  0.86968600  1
  H  426  1  0.62130200  0.70864300  0.74749100  1
  H  427  1  0.60932200  0.64930700  0.74984800  1
  H  428  1  0.68085400  0.69290800  0.70348000  1
  H  430  1  0.66789800  0.58651100  0.74257000  1
  H  432  1  0.73925500  0.75016500  0.88064000  1
  H  439  1  0.16742300  0.72634100  0.36227200  1
  H  442  1  0.20175700  0.88049900  0.25783300  1
  H  443  1  0.14201900  0.88890600  0.26283200  1
  H  444  1  0.18703300  0.82720100  0.20758000  1
  H  446  1  0.07978700  0.83128000  0.25198200  1
  H  448  1  0.25264000  0.74597100  0.37631800  1
  H  455  1  0.81899600  0.26110000  0.35880600  1
  H  458  1  0.79090600  0.09679600  0.26631100  1
  H  459  1  0.85094800  0.09142400  0.27201900  1
  H  460  1  0.80333200  0.14580900  0.21213400  1
  H  462  1  0.91054700  0.15074100  0.25635300  1
  H  464  1  0.73480200  0.24004300  0.37369900  1
  C  1  1  0.71147900  0.90074200  0.89368800  1
  C  2  1  0.71464100  0.85263000  0.88593200  1
  C  3  1  0.68264000  0.82950100  0.86042700  1
  C  4  1  0.64383300  0.85371300  0.84448200  1
  C  5  1  0.63845900  0.90095100  0.85452800  1
  C  6  1  0.67264400  0.92387900  0.87730800  1
  C  9  1  0.74461500  0.92553300  0.91731500  1
  C  10  1  0.76753700  0.90502400  0.95081500  1
  C  11  1  0.79900300  0.92974200  0.97556900  1
  C  12  1  0.81072100  0.97614700  0.96519700  1
  C  13  1  0.78641000  0.99859200  0.93277600  1
  C  14  1  0.75438100  0.97271500  0.90978000  1
  C  27  1  0.28161000  0.08841600  0.89785800  1
  C  28  1  0.27852600  0.13608800  0.88838800  1
  C  29  1  0.31333500  0.15925700  0.86601000  1
  C  30  1  0.35467600  0.13557800  0.85540500  1
  C  31  1  0.35864200  0.08804500  0.86561000  1
  C  32  1  0.32230600  0.06544100  0.88579000  1
  C  35  1  0.24674000  0.06388300  0.91952300  1
  C  36  1  0.22217800  0.08446300  0.95183900  1
  C  37  1  0.19028400  0.05935800  0.97583300  1
  C  38  1  0.17951900  0.01276900  0.96549400  1
  C  39  1  0.20517700  0.99055700  0.93402200  1
  C  40  1  0.23769700  0.01666800  0.91186600  1
  C  53  1  0.40060000  0.77796500  0.39507100  1
  C  54  1  0.35264500  0.77456900  0.38656000  1
  C  55  1  0.32955700  0.80697800  0.36130700  1
  C  56  1  0.35360800  0.84628800  0.34631000  1
  C  57  1  0.40080100  0.85155300  0.35674300  1
  C  58  1  0.42369800  0.81713600  0.37938600  1
  C  61  1  0.42526000  0.74470800  0.41877600  1
  C  62  1  0.40463000  0.72141800  0.45194000  1
  C  63  1  0.42953800  0.69028100  0.47701600  1
  C  64  1  0.47619900  0.67920100  0.46726300  1
  C  65  1  0.49854800  0.70367100  0.43502800  1
  C  66  1  0.47252100  0.73529300  0.41165100  1
  C  79  1  0.58874100  0.20837000  0.39546400  1
  C  80  1  0.63644700  0.21130900  0.38626700  1
  C  81  1  0.65964000  0.17625800  0.36431900  1
  C  82  1  0.63591800  0.13484300  0.35390700  1
  C  83  1  0.58830600  0.13115100  0.36366400  1
  C  84  1  0.56567300  0.16770600  0.38339500  1
  C  87  1  0.56431700  0.24319800  0.41714300  1
  C  88  1  0.58500200  0.26713500  0.44985300  1
  C  89  1  0.56007600  0.29887400  0.47398500  1
  C  90  1  0.51363100  0.31022200  0.46342100  1
  C  91  1  0.49121800  0.28513400  0.43157000  1
  C  92  1  0.51711900  0.25255600  0.40936600  1
  C  105  1  0.20963600  0.58771700  0.81149500  1
  C  106  1  0.21368100  0.63568600  0.81953000  1
  C  107  1  0.18247200  0.65905200  0.84549300  1
  C  108  1  0.14365900  0.63533200  0.86181600  1
  C  109  1  0.13727600  0.58831900  0.85148900  1
  C  110  1  0.17059200  0.56518300  0.82806500  1
  C  113  1  0.24114900  0.56234500  0.78675700  1
  C  114  1  0.26499200  0.58257000  0.75367800  1
  C  115  1  0.29155200  0.55601600  0.72632600  1
  C  116  1  0.29595600  0.50736900  0.73222800  1
  C  117  1  0.27680400  0.48717100  0.76809000  1
  C  118  1  0.24872300  0.51457900  0.79334600  1
  C  131  1  0.78137900  0.40055100  0.80706500  1
  C  132  1  0.77869000  0.35262000  0.81559100  1
  C  133  1  0.81263000  0.32967700  0.83932300  1
  C  134  1  0.85304100  0.35379400  0.85201400  1
  C  135  1  0.85700300  0.40144300  0.84221900  1
  C  136  1  0.82121400  0.42385800  0.82095100  1
  C  139  1  0.74738800  0.42506300  0.78414700  1
  C  140  1  0.72509800  0.40478400  0.75033900  1
  C  141  1  0.69503600  0.43022500  0.72493000  1
  C  142  1  0.68407400  0.47705900  0.73420700  1
  C  143  1  0.70660000  0.49864100  0.76799000  1
  C  144  1  0.73737000  0.47209800  0.79190000  1
  C  157  1  0.90044500  0.70738400  0.31080400  1
  C  158  1  0.85252100  0.71129400  0.31902800  1
  C  159  1  0.82944800  0.68006500  0.34533200  1
  C  160  1  0.85336400  0.64130200  0.36172100  1
  C  161  1  0.90029200  0.63497400  0.35111400  1
  C  162  1  0.92316300  0.66835400  0.32739600  1
  C  165  1  0.92559800  0.73898400  0.28583400  1
  C  166  1  0.90513300  0.76296300  0.25282200  1
  C  167  1  0.93161300  0.78930000  0.22511100  1
  C  168  1  0.98037100  0.79319300  0.23046600  1
  C  169  1  0.00079900  0.77410900  0.26633500  1
  C  170  1  0.97341100  0.74651100  0.29213300  1
  C  183  1  0.08835600  0.28018500  0.30763000  1
  C  184  1  0.13617500  0.27655100  0.31643300  1
  C  185  1  0.15966800  0.31010100  0.34002600  1
  C  186  1  0.13625400  0.35084600  0.35272200  1
  C  187  1  0.08876000  0.35573200  0.34278600  1
  C  188  1  0.06593400  0.32063800  0.32117000  1
  C  191  1  0.06297100  0.24706800  0.28453900  1
  C  192  1  0.08301400  0.22212000  0.25215500  1
  C  193  1  0.05612500  0.19495800  0.22541900  1
  C  194  1  0.00754400  0.19062500  0.23158100  1
  C  195  1  0.98768100  0.21068900  0.26711800  1
  C  196  1  0.01530600  0.23963300  0.29155200  1
  C  209  1  0.53005600  0.95999400  0.85999400  1
  C  211  1  0.50009800  0.02080200  0.81773500  1
  C  212  1  0.45868300  0.02102500  0.84003300  1
  C  214  1  0.48795400  0.95927700  0.88204200  1
  C  216  1  0.47742300  0.92757500  0.91640300  1
  C  221  1  0.56779500  0.93325000  0.87041300  1
  C  223  1  0.42304600  0.05136100  0.83232100  1
  C  225  1  0.46121000  0.95916800  0.36136700  1
  C  227  1  0.52143600  0.98838200  0.31839800  1
  C  228  1  0.52155500  0.03036000  0.33985800  1
  C  230  1  0.46038400  0.00179000  0.38258100  1
  C  232  1  0.42883200  0.01293800  0.41673800  1
  C  237  1  0.43473700  0.92159900  0.37249200  1
  C  239  1  0.55164300  0.06593500  0.33142300  1
  C  241  1  0.02878700  0.52904400  0.84705500  1
  C  243  1  0.99896600  0.46907200  0.89016400  1
  C  244  1  0.95736300  0.46854900  0.86792100  1
  C  246  1  0.98653800  0.52945900  0.82501900  1
  C  248  1  0.97591600  0.56051100  0.79016800  1
  C  253  1  0.06656200  0.55537400  0.83611400  1
  C  255  1  0.92180000  0.43823300  0.87595700  1
  C  257  1  0.96089900  0.52721900  0.34708700  1
  C  259  1  0.02126300  0.49795400  0.39020900  1
  C  260  1  0.02213900  0.45638000  0.36813900  1
  C  262  1  0.96082600  0.48499300  0.32523300  1
  C  264  1  0.92978300  0.47411800  0.29048900  1
  C  269  1  0.93430300  0.56478100  0.33593800  1
  C  271  1  0.05269000  0.42100600  0.37634900  1
  C  273  1  0.84014200  0.86190700  0.06259600  1
  C  275  1  0.87706100  0.89429600  0.12169600  1
  C  276  1  0.88140400  0.85029400  0.13970800  1
  C  278  1  0.84412800  0.81740000  0.08067200  1
  C  280  1  0.82743600  0.77395200  0.06188700  1
  C  285  1  0.82033700  0.87018600  0.02455800  1
  C  287  1  0.90273300  0.84344700  0.17713600  1
  C  289  1  0.14751300  0.12547800  0.06267900  1
  C  291  1  0.10934400  0.09175400  0.12055600  1
  C  292  1  0.10553500  0.13520300  0.13943400  1
  C  294  1  0.14401800  0.16943400  0.08161700  1
  C  296  1  0.16174900  0.21318400  0.06403100  1
  C  301  1  0.16790400  0.11808800  0.02488100  1
  C  303  1  0.08424300  0.14114200  0.17685900  1
  C  305  1  0.36236900  0.64827300  0.56379700  1
  C  307  1  0.39542500  0.61014800  0.62218300  1
  C  308  1  0.35171900  0.60605000  0.64058200  1
  C  310  1  0.31815600  0.64447800  0.58224100  1
  C  312  1  0.27457000  0.66192800  0.56404900  1
  C  317  1  0.37019300  0.66863800  0.52594100  1
  C  319  1  0.34536200  0.58450800  0.67795600  1
  C  321  1  0.62681700  0.33895100  0.56167600  1
  C  323  1  0.59325300  0.37027000  0.62259100  1
  C  324  1  0.63714900  0.37510500  0.64064600  1
  C  326  1  0.67122000  0.34340300  0.57984400  1
  C  328  1  0.71512700  0.32929500  0.56033600  1
  C  333  1  0.61906600  0.32102900  0.52293500  1
  C  335  1  0.64327300  0.39319000  0.67931800  1
  C  337  1  0.80124400  0.12596700  0.91081000  1
  C  339  1  0.76161600  0.16627800  0.85690900  1
  C  340  1  0.78602100  0.20721200  0.86548200  1
  C  342  1  0.82539300  0.16739200  0.92009800  1
  C  344  1  0.86006900  0.17252100  0.95316300  1
  C  349  1  0.80771000  0.08431400  0.93242600  1
  C  351  1  0.77933300  0.24892900  0.84420400  1
  C  353  1  0.19283600  0.86296900  0.91360000  1
  C  355  1  0.23168800  0.82343300  0.85919100  1
  C  356  1  0.20880600  0.78191400  0.86878700  1
  C  358  1  0.17025500  0.82097800  0.92391500  1
  C  360  1  0.13693700  0.81508900  0.95781800  1
  C  365  1  0.18573100  0.90463600  0.93475400  1
  C  367  1  0.21550700  0.74027500  0.84765900  1
  C  369  1  0.62607900  0.69099200  0.41452100  1
  C  371  1  0.66519800  0.72928400  0.35938400  1
  C  372  1  0.70678800  0.70651600  0.36905900  1
  C  374  1  0.66814700  0.66853200  0.42489900  1
  C  376  1  0.67427900  0.63554700  0.45918400  1
  C  381  1  0.58459300  0.68415200  0.43603600  1
  C  383  1  0.74827700  0.71303400  0.34764100  1
  C  385  1  0.36363100  0.29889900  0.41022500  1
  C  387  1  0.32300000  0.25856100  0.35712700  1
  C  388  1  0.28206900  0.28290800  0.36569000  1
  C  390  1  0.32220300  0.32295800  0.41953800  1
  C  392  1  0.31721400  0.35796200  0.45218100  1
  C  397  1  0.40545500  0.30581700  0.43141800  1
  C  399  1  0.24020800  0.27605500  0.34472300  1
  C  401  1  0.30239700  0.36361300  0.79516100  1
  C  403  1  0.25634700  0.31936400  0.84199100  1
  C  404  1  0.28548500  0.28079900  0.83752100  1
  C  406  1  0.33162400  0.32465400  0.79010200  1
  C  408  1  0.37204300  0.32296900  0.76248700  1
  C  413  1  0.30882900  0.40602400  0.77478400  1
  C  415  1  0.27801600  0.23856800  0.85770400  1
  C  417  1  0.69322700  0.62605500  0.79061600  1
  C  419  1  0.73151600  0.66498700  0.84586400  1
  C  420  1  0.70848300  0.70656100  0.83655400  1
  C  422  1  0.67039200  0.66808700  0.78068100  1
  C  424  1  0.63713100  0.67438800  0.74661600  1
  C  429  1  0.68668800  0.58485000  0.76856300  1
  C  431  1  0.71508800  0.74805500  0.85799300  1
  C  433  1  0.12498400  0.79758000  0.29251400  1
  C  435  1  0.16753500  0.75305300  0.34190800  1
  C  436  1  0.20715200  0.78035200  0.33579800  1
  C  438  1  0.16499300  0.82491700  0.28582500  1
  C  440  1  0.16827800  0.86319800  0.25584100  1
  C  445  1  0.08280700  0.80445200  0.27186700  1
  C  447  1  0.24915400  0.77289600  0.35638100  1
  C  449  1  0.86424100  0.18564400  0.29469800  1
  C  451  1  0.81992400  0.23267000  0.34050700  1
  C  452  1  0.78136400  0.20342300  0.33634000  1
  C  454  1  0.82529600  0.15627200  0.28996500  1
  C  456  1  0.82361800  0.11525500  0.26303300  1
  C  461  1  0.90665500  0.17877800  0.27463000  1
  C  463  1  0.73909700  0.21130800  0.35615200  1
  N  8  1  0.61150400  0.83227900  0.82089000  1
  N  15  1  0.84636900  0.99709300  0.98503800  1
  N  23  1  0.78812400  0.04385700  0.92125900  1
  N  24  1  0.81649600  0.91113400  0.00970800  1
  N  25  1  0.60052300  0.92456900  0.84516500  1
  N  26  1  0.68775000  0.78465200  0.84964500  1
  N  34  1  0.39036700  0.15832400  0.83725700  1
  N  41  1  0.14346400  0.99140000  0.98431800  1
  N  49  1  0.20456600  0.94522500  0.92298300  1
  N  50  1  0.17201100  0.07745500  0.00966300  1
  N  51  1  0.39611900  0.06230000  0.86167500  1
  N  52  1  0.30866600  0.20376700  0.85367800  1
  N  60  1  0.33215300  0.87895000  0.32297300  1
  N  67  1  0.49743300  0.64386700  0.48737000  1
  N  75  1  0.54388800  0.70262800  0.42407000  1
  N  76  1  0.41096200  0.67244800  0.51092700  1
  N  77  1  0.42451800  0.88930600  0.34723600  1
  N  78  1  0.28486400  0.80187000  0.34988300  1
  N  86  1  0.65867500  0.09887500  0.33631900  1
  N  93  1  0.49270900  0.34627500  0.48249700  1
  N  101  1  0.44588400  0.28628700  0.42022600  1
  N  102  1  0.57812900  0.31586900  0.50842600  1
  N  103  1  0.56269000  0.09352800  0.36030100  1
  N  104  1  0.70421000  0.18069500  0.35228100  1
  N  112  1  0.11216800  0.65704200  0.88593800  1
  N  119  1  0.31435900  0.48056200  0.70235100  1
  N  127  1  0.28201900  0.44322100  0.78215200  1
  N  128  1  0.30471900  0.57750200  0.69230700  1
  N  129  1  0.09921800  0.56514700  0.86129100  1
  N  130  1  0.18810100  0.70384900  0.85614400  1
  N  138  1  0.88812100  0.33121000  0.87139000  1
  N  145  1  0.65196800  0.49955500  0.71122400  1
  N  153  1  0.70505600  0.54376700  0.77977200  1
  N  154  1  0.68245100  0.40986600  0.69028100  1
  N  155  1  0.89436000  0.42729300  0.84684600  1
  N  156  1  0.80796700  0.28492800  0.85095500  1
  N  164  1  0.83191200  0.60981400  0.38617600  1
  N  171  1  0.00689300  0.81107300  0.20008300  1
  N  179  1  0.04494700  0.77886000  0.27997000  1
  N  180  1  0.90996500  0.80260400  0.19116100  1
  N  181  1  0.92368000  0.59703700  0.36109000  1
  N  182  1  0.78473500  0.68565800  0.35622200  1
  N  190  1  0.15931100  0.38537800  0.37226100  1
  N  197  1  0.98041700  0.17164600  0.20209700  1
  N  205  1  0.94384300  0.20588600  0.28139600  1
  N  206  1  0.07720000  0.18168200  0.19135900  1
  N  207  1  0.06332400  0.39333000  0.34746500  1
  N  208  1  0.20441600  0.30489700  0.35140600  1
  N  210  1  0.53393400  0.99095800  0.82886800  1
  N  213  1  0.45480200  0.98989600  0.87088100  1
  N  226  1  0.49190300  0.95465800  0.33026000  1
  N  229  1  0.49067900  0.03484100  0.37069200  1
  N  242  1  0.03281600  0.49862000  0.87859500  1
  N  245  1  0.95338300  0.49912100  0.83662300  1
  N  258  1  0.99136400  0.53153200  0.37854500  1
  N  261  1  0.99150100  0.45212800  0.33693400  1
  N  274  1  0.85698400  0.89813700  0.08444400  1
  N  277  1  0.86458500  0.81413500  0.11795800  1
  N  290  1  0.12982300  0.08882300  0.08352700  1
  N  293  1  0.12321100  0.17178200  0.11868900  1
  N  306  1  0.39880100  0.63072000  0.58512300  1
  N  309  1  0.31535600  0.62356100  0.61935000  1
  N  322  1  0.59004800  0.35274600  0.58440100  1
  N  325  1  0.67387100  0.36127900  0.61809500  1
  N  338  1  0.77055600  0.12771800  0.87928700  1
  N  341  1  0.81676300  0.20525500  0.89674300  1
  N  354  1  0.22244600  0.86186400  0.88140300  1
  N  357  1  0.17919500  0.78323700  0.90076900  1
  N  370  1  0.62693200  0.72025600  0.38192600  1
  N  373  1  0.70571300  0.67723400  0.40142500  1
  N  386  1  0.36172700  0.26788900  0.37910600  1
  N  389  1  0.28418700  0.31395300  0.39655400  1
  N  402  1  0.26604100  0.35867700  0.82106200  1
  N  405  1  0.32165200  0.28573500  0.81161500  1
  N  418  1  0.72264900  0.62682500  0.82309800  1
  N  421  1  0.67900400  0.70552800  0.80434000  1
  N  434  1  0.12859500  0.76281000  0.32040500  1
  N  437  1  0.20352400  0.81485500  0.30785200  1
  N  450  1  0.85925400  0.22256800  0.31993600  1
  N  453  1  0.78635200  0.16670000  0.31108400  1
  O  217  1  0.48034400  0.88012800  0.90470000  1
  O  233  1  0.38133200  0.00935800  0.40511400  1
  O  249  1  0.97923400  0.60817700  0.80108900  1
  O  265  1  0.88211400  0.47708300  0.30146100  1
  O  281  1  0.77846700  0.77394600  0.05611400  1
  O  297  1  0.21079300  0.21250300  0.05905100  1
  O  313  1  0.27502600  0.71097100  0.55882500  1
  O  329  1  0.71669800  0.28074700  0.55256800  1
  O  345  1  0.84031200  0.16617700  0.99272600  1
  O  361  1  0.15787000  0.82246000  0.99682900  1
  O  377  1  0.66720500  0.65686600  0.49797400  1
  O  393  1  0.32398900  0.33865000  0.49195500  1
  O  409  1  0.35919400  0.32932400  0.72067500  1
  O  425  1  0.65823700  0.66801800  0.70763900  1
  O  441  1  0.16127500  0.84767400  0.21489400  1
  O  457  1  0.82993700  0.12719900  0.22103800  1
