# generated using pymatgen
data_H9C14N2O7
_symmetry_space_group_name_H-M   'P 1'
_cell_length_a   19.93210000
_cell_length_b   19.93210000
_cell_length_c   31.06570000
_cell_angle_alpha   90.00000000
_cell_angle_beta   90.00000000
_cell_angle_gamma   120.00000000
_symmetry_Int_Tables_number   1
_chemical_formula_structural   H9C14N2O7
_chemical_formula_sum   'H54 C84 N12 O42'
_cell_volume   10688.52778205
_cell_formula_units_Z   6
loop_
 _symmetry_equiv_pos_site_id
 _symmetry_equiv_pos_as_xyz
  1  'x, y, z'
loop_
 _atom_site_type_symbol
 _atom_site_label
 _atom_site_symmetry_multiplicity
 _atom_site_fract_x
 _atom_site_fract_y
 _atom_site_fract_z
 _atom_site_occupancy
  C  1  1  0.40114550  0.44907850  0.02114500  1
  C  2  1  0.38423350  0.49911750  0.04513000  1
  C  3  1  0.38341200  0.49899600  0.09059200  1
  C  4  1  0.39894350  0.44522050  0.11205900  1
  C  5  1  0.41737250  0.39461050  0.08935200  1
  C  6  1  0.41803050  0.39785250  0.04393600  1
  C  9  1  0.40116350  0.45024250  0.97505200  1
  C  10  1  0.34443450  0.45782850  0.95195500  1
  C  11  1  0.34566600  0.46474600  0.90659000  1
  C  12  1  0.40051100  0.45124200  0.88424400  1
  C  13  1  0.45463750  0.43581750  0.90588800  1
  C  14  1  0.45726150  0.44276550  0.95124900  1
  C  29  1  0.90437600  0.45630100  0.35443300  1
  C  30  1  0.97139550  0.47354250  0.37844900  1
  C  31  1  0.97208550  0.47456750  0.42391100  1
  C  32  1  0.90276150  0.45911950  0.44533300  1
  C  33  1  0.83368250  0.44042450  0.42259800  1
  C  34  1  0.83627850  0.43955550  0.37718400  1
  C  37  1  0.90544700  0.45570600  0.30834300  1
  C  38  1  0.96977150  0.51212250  0.28512500  1
  C  39  1  0.97554750  0.51017450  0.23980100  1
  C  40  1  0.90725250  0.45502550  0.21753900  1
  C  41  1  0.83771900  0.40106400  0.23926400  1
  C  42  1  0.84194150  0.39919950  0.28466400  1
  C  57  1  0.40770650  0.95101850  0.68782200  1
  C  58  1  0.35775000  0.88407700  0.71183900  1
  C  59  1  0.35805200  0.88339300  0.75730100  1
  C  60  1  0.41195600  0.95269000  0.77873000  1
  C  61  1  0.46247700  0.02170500  0.75598800  1
  C  62  1  0.45904400  0.01912700  0.71057700  1
  C  65  1  0.40635550  0.94987550  0.64173000  1
  C  66  1  0.39869400  0.88557400  0.61858600  1
  C  67  1  0.39168300  0.87994400  0.57322400  1
  C  68  1  0.40513100  0.94831000  0.55092300  1
  C  69  1  0.42053350  0.01781450  0.57260900  1
  C  70  1  0.41372850  0.01345450  0.61797700  1
  C  85  1  0.54126850  0.21603350  0.80463800  1
  C  86  1  0.51446050  0.19264350  0.84760900  1
  C  87  1  0.51938900  0.24646600  0.87887000  1
  C  88  1  0.54723650  0.32513650  0.86790200  1
  C  89  1  0.57702350  0.34964650  0.82584700  1
  C  90  1  0.57523450  0.29635650  0.79507000  1
  C  99  1  0.53556650  0.37379650  0.89669600  1
  C  100  1  0.52818650  0.16153650  0.77126000  1
  C  103  1  0.53269700  0.31546100  0.13790700  1
  C  104  1  0.53694350  0.34304550  0.18077500  1
  C  105  1  0.58533500  0.33736300  0.21205400  1
  C  106  1  0.63503400  0.30813600  0.20118600  1
  C  107  1  0.62934050  0.27807050  0.15916900  1
  C  108  1  0.57820850  0.28053750  0.12838200  1
  C  117  1  0.69491350  0.31869250  0.23003800  1
  C  118  1  0.49138050  0.32873650  0.10454900  1
  C  121  1  0.63961700  0.32420100  0.47128500  1
  C  122  1  0.66328150  0.32040850  0.51413000  1
  C  123  1  0.60967000  0.27142900  0.54542500  1
  C  124  1  0.53087200  0.22087300  0.53462200  1
  C  125  1  0.50607850  0.22635450  0.49267500  1
  C  126  1  0.55923250  0.27788050  0.46185000  1
  C  135  1  0.48220400  0.16070600  0.56350600  1
  C  136  1  0.69393250  0.36576650  0.43786200  1
  C  139  1  0.26724050  0.68741250  0.80756000  1
  C  140  1  0.29159150  0.70822950  0.85113000  1
  C  141  1  0.28184050  0.65206550  0.88210100  1
  C  142  1  0.25115450  0.57333950  0.87030500  1
  C  143  1  0.22274600  0.55127500  0.82783800  1
  C  144  1  0.22925450  0.60701450  0.79734600  1
  C  153  1  0.26028500  0.52225900  0.89844500  1
  C  154  1  0.28614950  0.74353850  0.77424600  1
  C  157  1  0.27772350  0.58914650  0.14087900  1
  C  158  1  0.27435400  0.56481300  0.18444100  1
  C  159  1  0.22772100  0.57423300  0.21541700  1
  C  160  1  0.17905950  0.60419250  0.20360400  1
  C  161  1  0.18529800  0.63264700  0.16115800  1
  C  162  1  0.23487850  0.62668750  0.13068100  1
  C  171  1  0.11852800  0.59436800  0.23169300  1
  C  172  1  0.31515100  0.57055400  0.10753600  1
  C  175  1  0.16814350  0.57951650  0.47411800  1
  C  176  1  0.14740400  0.58350100  0.51765100  1
  C  177  1  0.20373750  0.62947850  0.54863400  1
  C  178  1  0.28252500  0.67705100  0.53685200  1
  C  179  1  0.30448250  0.67048250  0.49440000  1
  C  180  1  0.24857450  0.62144050  0.46391700  1
  C  189  1  0.33390200  0.73706000  0.56500200  1
  C  190  1  0.11197600  0.54250100  0.44079100  1
  H  7  1  0.37830350  0.54054050  0.02904100  1
  H  16  1  0.50150150  0.44346450  0.96793900  1
  H  17  1  0.34453100  0.40756100  0.16457700  1
  H  18  1  0.43886650  0.50326250  0.83113900  1
  H  19  1  0.42494850  0.35785050  0.02695500  1
  H  20  1  0.30060500  0.45680100  0.96920100  1
  H  22  1  0.49184650  0.41140750  0.85187500  1
  H  24  1  0.30632350  0.48808450  0.85307000  1
  H  26  1  0.39332350  0.56100750  0.14256200  1
  H  28  1  0.41000450  0.33089250  0.14033800  1
  H  35  1  0.01863700  0.47912400  0.36240300  1
  H  44  1  0.79838950  0.35527950  0.30150300  1
  H  45  1  0.91954600  0.51381500  0.49775100  1
  H  46  1  0.92122200  0.41590000  0.16478300  1
  H  47  1  0.78929100  0.43232100  0.36014600  1
  H  48  1  0.01249200  0.55637100  0.30221100  1
  H  50  1  0.77619850  0.36324250  0.18520100  1
  H  52  1  0.03833550  0.54913150  0.18630200  1
  H  54  1  0.02410300  0.46496800  0.47599700  1
  H  56  1  0.77716150  0.44774950  0.47352900  1
  H  63  1  0.31625150  0.83673950  0.69577800  1
  H  72  1  0.41306850  0.05697250  0.63471000  1
  H  73  1  0.44971150  0.93582250  0.83118300  1
  H  74  1  0.35296450  0.93463250  0.49786400  1
  H  75  1  0.49898050  0.06606850  0.69357500  1
  H  76  1  0.39977750  0.84274650  0.63578800  1
  H  78  1  0.44471150  0.07950950  0.51858800  1
  H  80  1  0.36832450  0.81730850  0.51965700  1
  H  82  1  0.29627300  0.83140000  0.80935100  1
  H  84  1  0.52665400  0.07802500  0.80681100  1
  H  92  1  0.51972950  0.21260650  0.93576200  1
  H  96  1  0.58473200  0.43494300  0.79384300  1
  H  97  1  0.49784950  0.10314250  0.87842700  1
  H  98  1  0.57570950  0.33517650  0.73914000  1
  H  110  1  0.55158450  0.33808850  0.26892700  1
  H  114  1  0.70655900  0.26952100  0.12732300  1
  H  115  1  0.46511450  0.36120750  0.21166700  1
  H  116  1  0.61611200  0.27929000  0.07244900  1
  H  128  1  0.64406900  0.30541700  0.60228200  1
  H  132  1  0.42050150  0.14890550  0.46079100  1
  H  133  1  0.75312650  0.39283650  0.54489700  1
  H  134  1  0.52010200  0.23981000  0.40593600  1
  H  146  1  0.27924300  0.68373400  0.93921200  1
  H  150  1  0.21272900  0.46531800  0.79550800  1
  H  151  1  0.30968500  0.79784700  0.88222800  1
  H  152  1  0.22856300  0.56799000  0.74139800  1
  H  164  1  0.26195400  0.57694200  0.27254500  1
  H  168  1  0.10924650  0.64233250  0.12872400  1
  H  169  1  0.34659700  0.54776900  0.21550400  1
  H  170  1  0.19651150  0.62724550  0.07471900  1
  H  182  1  0.17185700  0.59546500  0.60575800  1
  H  186  1  0.39066500  0.74611200  0.46208800  1
  H  187  1  0.05766100  0.51232100  0.54880400  1
  H  188  1  0.28773900  0.65954500  0.40796100  1
  N  21  1  0.49830150  0.41214150  0.88288000  1
  N  23  1  0.30023100  0.48690900  0.88411200  1
  N  25  1  0.36747850  0.54659550  0.11493000  1
  N  27  1  0.43489250  0.34690450  0.11247100  1
  N  49  1  0.77053800  0.35691600  0.21621600  1
  N  51  1  0.04323900  0.55528000  0.21734200  1
  N  53  1  0.03560900  0.49056400  0.44828800  1
  N  55  1  0.76839400  0.42284200  0.44567100  1
  N  77  1  0.44403950  0.08511750  0.54960300  1
  N  79  1  0.36947350  0.81239150  0.55070000  1
  N  81  1  0.31049900  0.81989800  0.78168100  1
  N  83  1  0.51034350  0.08695050  0.77904700  1
  O  8  1  0.39836350  0.44375350  0.15604300  1
  O  15  1  0.39956250  0.45079650  0.84026200  1
  O  36  1  0.90186700  0.45993000  0.48931400  1
  O  43  1  0.90793300  0.45527800  0.17355800  1
  O  64  1  0.41362050  0.95362950  0.82271300  1
  O  71  1  0.40547050  0.94785050  0.50693800  1
  O  91  1  0.48214200  0.21669800  0.91702850  1
  O  93  1  0.46795150  0.11666450  0.85854600  1
  O  94  1  0.61498800  0.42687200  0.81616900  1
  O  95  1  0.61112650  0.32530550  0.75654600  1
  O  101  1  0.51672950  0.18064350  0.73113500  1
  O  102  1  0.53882450  0.36037050  0.93917300  1
  O  109  1  0.59366550  0.37501950  0.25016300  1
  O  111  1  0.50832050  0.39035550  0.19153900  1
  O  112  1  0.66790050  0.23939650  0.14953100  1
  O  113  1  0.57073100  0.24429700  0.08991900  1
  O  119  1  0.52112750  0.33905350  0.06427600  1
  O  120  1  0.67756100  0.31450500  0.27244800  1
  O  127  1  0.63951650  0.26362650  0.58347900  1
  O  129  1  0.73934650  0.34963350  0.52480700  1
  O  130  1  0.42879150  0.18723350  0.48316000  1
  O  131  1  0.53003400  0.28500000  0.42345400  1
  O  137  1  0.67455050  0.33607250  0.39757300  1
  O  138  1  0.49573750  0.17750650  0.60595800  1
  O  145  1  0.31697950  0.67873950  0.92108700  1
  O  147  1  0.33996200  0.78302800  0.86345500  1
  O  148  1  0.18245100  0.47441600  0.81736100  1
  O  149  1  0.19447900  0.58048900  0.75829800  1
  O  155  1  0.29676050  0.72288250  0.73434100  1
  O  156  1  0.25429300  0.53276000  0.94102500  1
  O  163  1  0.21954750  0.53896650  0.25433500  1
  O  165  1  0.30153450  0.51707950  0.19678300  1
  O  166  1  0.14838500  0.67260900  0.15068700  1
  O  167  1  0.24298300  0.66149300  0.09165700  1
  O  173  1  0.28373500  0.55970300  0.06766000  1
  O  174  1  0.13458250  0.59942050  0.27432200  1
  O  181  1  0.17721300  0.63829700  0.58759300  1
  O  183  1  0.07262100  0.55731800  0.52992200  1
  O  184  1  0.38132050  0.70661450  0.48391300  1
  O  185  1  0.27497100  0.61292100  0.42489000  1
  O  191  1  0.13282700  0.57313700  0.40077300  1
  O  192  1  0.32331750  0.72053150  0.60757700  1
