# generated using pymatgen
data_MnH8C13NO5
_symmetry_space_group_name_H-M   'P 1'
_cell_length_a   12.64813000
_cell_length_b   12.64797000
_cell_length_c   13.46630000
_cell_angle_alpha   63.34910000
_cell_angle_beta   63.33502000
_cell_angle_gamma   88.43264000
_symmetry_Int_Tables_number   1
_chemical_formula_structural   MnH8C13NO5
_chemical_formula_sum   'Mn4 H32 C52 N4 O20'
_cell_volume   1679.29940862
_cell_formula_units_Z   4
loop_
 _symmetry_equiv_pos_site_id
 _symmetry_equiv_pos_as_xyz
  1  'x, y, z'
loop_
 _atom_site_type_symbol
 _atom_site_label
 _atom_site_symmetry_multiplicity
 _atom_site_fract_x
 _atom_site_fract_y
 _atom_site_fract_z
 _atom_site_occupancy
  Mn  Mn0  1  0.50000000  0.99964000  0.99947000  1
  Mn  Mn1  1  0.99964000  0.50000000  0.49947000  1
  Mn  Mn2  1  0.30557000  0.69415000  0.25039000  1
  Mn  Mn3  1  0.69416000  0.30558000  0.75038000  1
  H  H4  1  0.74997000  0.85359000  0.76111000  1
  H  H5  1  0.86668000  0.73401000  0.65846000  1
  H  H6  1  0.64518000  0.40322000  0.00023000  1
  H  H7  1  0.53424000  0.52221000  0.10657000  1
  H  H8  1  0.24734000  0.79016000  0.01139000  1
  H  H9  1  0.08643000  0.84755000  0.95132000  1
  H  H10  1  0.04698000  0.10420000  0.09124000  1
  H  H11  1  0.21297000  0.03696000  0.14077000  1
  H  H12  1  0.14620000  0.25030000  0.73859000  1
  H  H13  1  0.26554000  0.13338000  0.84113000  1
  H  H14  1  0.59668000  0.35455000  0.49982000  1
  H  H15  1  0.47807000  0.46594000  0.39336000  1
  H  H16  1  0.20964000  0.75277000  0.48843000  1
  H  H17  1  0.15213000  0.91339000  0.54906000  1
  H  H18  1  0.89559000  0.95331000  0.40892000  1
  H  H19  1  0.96258000  0.78705000  0.35969000  1
  H  H20  1  0.25030000  0.14622000  0.23857000  1
  H  H21  1  0.13336000  0.26555000  0.34115000  1
  H  H22  1  0.35455000  0.59666000  0.99983000  1
  H  H23  1  0.46595000  0.47806000  0.89334000  1
  H  H24  1  0.75277000  0.20965000  0.98843000  1
  H  H25  1  0.91338000  0.15214000  0.04906000  1
  H  H26  1  0.95331000  0.89558000  0.90892000  1
  H  H27  1  0.78706000  0.96257000  0.85969000  1
  H  H28  1  0.85361000  0.74998000  0.26109000  1
  H  H29  1  0.73402000  0.86666000  0.15848000  1
  H  H30  1  0.40319000  0.64517000  0.50024000  1
  H  H31  1  0.52220000  0.53426000  0.60655000  1
  H  H32  1  0.79017000  0.24734000  0.51140000  1
  H  H33  1  0.84756000  0.08642000  0.45132000  1
  H  H34  1  0.10419000  0.04698000  0.59123000  1
  H  H35  1  0.03695000  0.21298000  0.64077000  1
  C  C36  1  0.55996000  0.76317000  0.00267000  1
  C  C37  1  0.63551000  0.69472000  0.94060000  1
  C  C38  1  0.73002000  0.75501000  0.81391000  1
  C  C39  1  0.79423000  0.68878000  0.75643000  1
  C  C40  1  0.76376000  0.56154000  0.82291000  1
  C  C41  1  0.67017000  0.50162000  0.94992000  1
  C  C42  1  0.60784000  0.56748000  0.00873000  1
  C  C43  1  0.82538000  0.49084000  0.75715000  1
  C  C44  1  0.19867000  0.85865000  0.02497000  1
  C  C45  1  0.10814000  0.89206000  0.99467000  1
  C  C46  1  0.04724000  0.98102000  0.01737000  1
  C  C47  1  0.08566000  0.03292000  0.07279000  1
  C  C48  1  0.17622000  0.99771000  0.10271000  1
  C  C49  1  0.23713000  0.44079000  0.49682000  1
  C  C50  1  0.30532000  0.36447000  0.55885000  1
  C  C51  1  0.24475000  0.26997000  0.68551000  1
  C  C52  1  0.31077000  0.20547000  0.74304000  1
  C  C53  1  0.43801000  0.23565000  0.67676000  1
  C  C54  1  0.49828000  0.32936000  0.54990000  1
  C  C55  1  0.43258000  0.39203000  0.49102000  1
  C  C56  1  0.50746000  0.17470000  0.74419000  1
  C  C57  1  0.14088000  0.80130000  0.47526000  1
  C  C58  1  0.10753000  0.89173000  0.50574000  1
  C  C59  1  0.01869000  0.95284000  0.48294000  1
  C  C60  1  0.96667000  0.91443000  0.42765000  1
  C  C61  1  0.00165000  0.82374000  0.39794000  1
  C  C62  1  0.44079000  0.23713000  0.99681000  1
  C  C63  1  0.36448000  0.30532000  0.05884000  1
  C  C64  1  0.26997000  0.24476000  0.18550000  1
  C  C65  1  0.20546000  0.31078000  0.24305000  1
  C  C66  1  0.23564000  0.43800000  0.17678000  1
  C  C67  1  0.32936000  0.49827000  0.04990000  1
  C  C68  1  0.39204000  0.43257000  0.99101000  1
  C  C69  1  0.17469000  0.50747000  0.24420000  1
  C  C70  1  0.80130000  0.14089000  0.97526000  1
  C  C71  1  0.89172000  0.10754000  0.00574000  1
  C  C72  1  0.95284000  0.01869000  0.98294000  1
  C  C73  1  0.91443000  0.96666000  0.92765000  1
  C  C74  1  0.82375000  0.00164000  0.89794000  1
  C  C75  1  0.76317000  0.55997000  0.50267000  1
  C  C76  1  0.69472000  0.63552000  0.44058000  1
  C  C77  1  0.75502000  0.73002000  0.31390000  1
  C  C78  1  0.68879000  0.79422000  0.25644000  1
  C  C79  1  0.56153000  0.76375000  0.32293000  1
  C  C80  1  0.50161000  0.67017000  0.44992000  1
  C  C81  1  0.56747000  0.60785000  0.50872000  1
  C  C82  1  0.49084000  0.82538000  0.25716000  1
  C  C83  1  0.85866000  0.19867000  0.52497000  1
  C  C84  1  0.89207000  0.10814000  0.49467000  1
  C  C85  1  0.98102000  0.04724000  0.51737000  1
  C  C86  1  0.03292000  0.08566000  0.57279000  1
  C  C87  1  0.99771000  0.17623000  0.60271000  1
  N  N88  1  0.23102000  0.91032000  0.08000000  1
  N  N89  1  0.08916000  0.76914000  0.42025000  1
  N  N90  1  0.76914000  0.08916000  0.92025000  1
  N  N91  1  0.91032000  0.23103000  0.58001000  1
  O  O92  1  0.47781000  0.70026000  0.11842000  1
  O  O93  1  0.58274000  0.87869000  0.93528000  1
  O  O94  1  0.77827000  0.37716000  0.81552000  1
  O  O95  1  0.91900000  0.54665000  0.64747000  1
  O  O96  1  0.31705000  0.87589000  0.11133000  1
  O  O97  1  0.30071000  0.52295000  0.38099000  1
  O  O98  1  0.12187000  0.41894000  0.56422000  1
  O  O99  1  0.62109000  0.22109000  0.68659000  1
  O  O100  1  0.44961000  0.08334000  0.85536000  1
  O  O101  1  0.12288000  0.68290000  0.38909000  1
  O  O102  1  0.52297000  0.30070000  0.88097000  1
  O  O103  1  0.41895000  0.12189000  0.06420000  1
  O  O104  1  0.22108000  0.62108000  0.18659000  1
  O  O105  1  0.08332000  0.44961000  0.35539000  1
  O  O106  1  0.68291000  0.12288000  0.88910000  1
  O  O107  1  0.70025000  0.47783000  0.61840000  1
  O  O108  1  0.87871000  0.58275000  0.43527000  1
  O  O109  1  0.37715000  0.77826000  0.31552000  1
  O  O110  1  0.54665000  0.91898000  0.14750000  1
  O  O111  1  0.87589000  0.31706000  0.61134000  1
