# generated using pymatgen
data_ZnH25C20NO8
_symmetry_space_group_name_H-M   'P 1'
_cell_length_a   10.05638000
_cell_length_b   11.01125000
_cell_length_c   12.93964000
_cell_angle_alpha   91.00321000
_cell_angle_beta   92.24453000
_cell_angle_gamma   95.49907000
_symmetry_Int_Tables_number   1
_chemical_formula_structural   ZnH25C20NO8
_chemical_formula_sum   'Zn2 H50 C40 N2 O16'
_cell_volume   1424.83500035
_cell_formula_units_Z   2
loop_
 _symmetry_equiv_pos_site_id
 _symmetry_equiv_pos_as_xyz
  1  'x, y, z'
loop_
 _atom_site_type_symbol
 _atom_site_label
 _atom_site_symmetry_multiplicity
 _atom_site_fract_x
 _atom_site_fract_y
 _atom_site_fract_z
 _atom_site_occupancy
  Zn  Zn0  1  0.64478000  0.47840000  0.51820000  1
  Zn  Zn1  1  0.35522000  0.52160000  0.48180000  1
  H  H2  1  0.21838000  0.44675000  0.98813000  1
  H  H3  1  0.77274000  0.49327000  0.01196000  1
  H  H4  1  0.89774000  0.56633000  0.42869000  1
  H  H5  1  0.10190000  0.43028000  0.56846000  1
  H  H6  1  0.86929000  0.39293000  0.59895000  1
  H  H7  1  0.13115000  0.60435000  0.39880000  1
  H  H8  1  0.21536000  0.30063000  0.27304000  1
  H  H9  1  0.37802000  0.26978000  0.23704000  1
  H  H10  1  0.11700000  0.23764000  0.09997000  1
  H  H11  1  0.27995000  0.21426000  0.05433000  1
  H  H12  1  0.30483000  0.05113000  0.18167000  1
  H  H13  1  0.15348000  0.01850000  0.10244000  1
  H  H14  1  0.14480000  0.07505000  0.23349000  1
  H  H15  1  0.75323000  0.30792000  0.74376000  1
  H  H16  1  0.59332000  0.26937000  0.79600000  1
  H  H17  1  0.86525000  0.30068000  0.91963000  1
  H  H18  1  0.70491000  0.25729000  0.97323000  1
  H  H19  1  0.67455000  0.06933000  0.86643000  1
  H  H20  1  0.83115000  0.07809000  0.94033000  1
  H  H21  1  0.82981000  0.11055000  0.80426000  1
  H  H22  1  0.95823000  0.42056000  0.23960000  1
  H  H23  1  0.86933000  0.36240000  0.12514000  1
  H  H24  1  0.78498000  0.31495000  0.35035000  1
  H  H25  1  0.69395000  0.25242000  0.23571000  1
  H  H26  1  0.89432000  0.14627000  0.18834000  1
  H  H27  1  0.83376000  0.10238000  0.31315000  1
  H  H28  1  0.98144000  0.20786000  0.30608000  1
  H  H29  1  0.19489000  0.67410000  0.76846000  1
  H  H30  1  0.17975000  0.63023000  0.90053000  1
  H  H31  1  0.97871000  0.56967000  0.71854000  1
  H  H32  1  0.96957000  0.48822000  0.83773000  1
  H  H33  1  0.94414000  0.67357000  0.93780000  1
  H  H34  1  0.82703000  0.66786000  0.82814000  1
  H  H35  1  0.97947000  0.76863000  0.82809000  1
  H  H36  1  0.47397000  0.91186000  0.30842000  1
  H  H37  1  0.56531000  0.10480000  0.68956000  1
  H  H38  1  0.86965000  0.97954000  0.51631000  1
  H  H39  1  0.81120000  0.83614000  0.45646000  1
  H  H40  1  0.93692000  0.87898000  0.67726000  1
  H  H41  1  0.86356000  0.73371000  0.62682000  1
  H  H42  1  0.02712000  0.76313000  0.47634000  1
  H  H43  1  0.09846000  0.73477000  0.60304000  1
  H  H44  1  0.11288000  0.88532000  0.55343000  1
  H  H45  1  0.08283000  0.07083000  0.49168000  1
  H  H46  1  0.15126000  0.22077000  0.48527000  1
  H  H47  1  0.21870000  0.04204000  0.66009000  1
  H  H48  1  0.27507000  0.20193000  0.65975000  1
  H  H49  1  0.04245000  0.25673000  0.66523000  1
  H  H50  1  0.08218000  0.16064000  0.77104000  1
  H  H51  1  0.98057000  0.09730000  0.66154000  1
  C  C52  1  0.44278000  0.26781000  0.49785000  1
  C  C53  1  0.55691000  0.73176000  0.50310000  1
  C  C54  1  0.07165000  0.49076000  0.50867000  1
  C  C55  1  0.92792000  0.50570000  0.48860000  1
  C  C56  1  0.47374000  0.49803000  0.69901000  1
  C  C57  1  0.52412000  0.49084000  0.30150000  1
  C  C58  1  0.53757000  0.47135000  0.19204000  1
  C  C59  1  0.45663000  0.48232000  0.80948000  1
  C  C60  1  0.31729000  0.45676000  0.95707000  1
  C  C61  1  0.67465000  0.47934000  0.04403000  1
  C  C62  1  0.32937000  0.48082000  0.85221000  1
  C  C63  1  0.66564000  0.47769000  0.15032000  1
  C  C64  1  0.57000000  0.46494000  0.87402000  1
  C  C65  1  0.42095000  0.44665000  0.12794000  1
  C  C66  1  0.55901000  0.46764000  0.97998000  1
  C  C67  1  0.43161000  0.45595000  0.02182000  1
  C  C68  1  0.40667000  0.13578000  0.49832000  1
  C  C69  1  0.59304000  0.86193000  0.51478000  1
  C  C70  1  0.50367000  0.06388000  0.52499000  1
  C  C71  1  0.50583000  0.93943000  0.47935000  1
  C  C72  1  0.28202000  0.30128000  0.20656000  1
  C  C73  1  0.21763000  0.21127000  0.12342000  1
  C  C74  1  0.20440000  0.08103000  0.16301000  1
  C  C75  1  0.69468000  0.31718000  0.81377000  1
  C  C76  1  0.76374000  0.25374000  0.90273000  1
  C  C77  1  0.77547000  0.11967000  0.87642000  1
  C  C78  1  0.85615000  0.39225000  0.20641000  1
  C  C79  1  0.79491000  0.28492000  0.26898000  1
  C  C80  1  0.88188000  0.17888000  0.26879000  1
  C  C81  1  0.15686000  0.59878000  0.81872000  1
  C  C82  1  0.00511000  0.57614000  0.80262000  1
  C  C83  1  0.93476000  0.67804000  0.85216000  1
  C  C84  1  0.42579000  0.90524000  0.38193000  1
  C  C85  1  0.59953000  0.10615000  0.61137000  1
  C  C86  1  0.82261000  0.88702000  0.53232000  1
  C  C87  1  0.91506000  0.82287000  0.60543000  1
  C  C88  1  0.04602000  0.80029000  0.55623000  1
  C  C89  1  0.17427000  0.13084000  0.51426000  1
  C  C90  1  0.19256000  0.13250000  0.63366000  1
  C  C91  1  0.06638000  0.16371000  0.68572000  1
  N  N92  1  0.16233000  0.55037000  0.45754000  1
  N  N93  1  0.83767000  0.44963000  0.54246000  1
  O  O94  1  0.56793000  0.30768000  0.50855000  1
  O  O95  1  0.43207000  0.69232000  0.49145000  1
  O  O96  1  0.35109000  0.34002000  0.48129000  1
  O  O97  1  0.64891000  0.65998000  0.51871000  1
  O  O98  1  0.59049000  0.48648000  0.66502000  1
  O  O99  1  0.40951000  0.51352000  0.33498000  1
  O  O100  1  0.37366000  0.51882000  0.63776000  1
  O  O101  1  0.62634000  0.48118000  0.36224000  1
  O  O102  1  0.29549000  0.42166000  0.16837000  1
  O  O103  1  0.69247000  0.44391000  0.83483000  1
  O  O104  1  0.78122000  0.49481000  0.21334000  1
  O  O105  1  0.21552000  0.49151000  0.79053000  1
  O  O106  1  0.30812000  0.86618000  0.38388000  1
  O  O107  1  0.71538000  0.14177000  0.59486000  1
  O  O108  1  0.70095000  0.89906000  0.58156000  1
  O  O109  1  0.28121000  0.08491000  0.46138000  1
