# generated using pymatgen
data_CuH6C7O4
_symmetry_space_group_name_H-M   'P 1'
_cell_length_a   8.53250270
_cell_length_b   8.53254180
_cell_length_c   14.51473606
_cell_angle_alpha   90.00000215
_cell_angle_beta   90.00000326
_cell_angle_gamma   89.99621311
_symmetry_Int_Tables_number   1
_chemical_formula_structural   CuH6C7O4
_chemical_formula_sum   'Cu4 H24 C28 O16'
_cell_volume   1056.72991208
_cell_formula_units_Z   4
loop_
 _symmetry_equiv_pos_site_id
 _symmetry_equiv_pos_as_xyz
  1  'x, y, z'
loop_
 _atom_site_type_symbol
 _atom_site_label
 _atom_site_symmetry_multiplicity
 _atom_site_fract_x
 _atom_site_fract_y
 _atom_site_fract_z
 _atom_site_occupancy
  Cu  Cu1  1  0.14505838  0.50001511  0.00000006  1.0
  Cu  Cu2  1  0.85494205  0.49998466  0.99999994  1.0
  Cu  Cu3  1  0.49998509  0.85494354  0.49999993  1.0
  Cu  Cu4  1  0.50001508  0.14505959  0.50000006  1.0
  H  H1  1  0.15007850  0.25275533  0.29336190  1.0
  H  H2  1  0.84992156  0.74724459  0.29336190  1.0
  H  H3  1  0.25276321  0.84990771  0.79335963  1.0
  H  H4  1  0.74723693  0.15009224  0.79335964  1.0
  H  H5  1  0.15009262  0.74723839  0.70664024  1.0
  H  H6  1  0.84990755  0.25276147  0.70664028  1.0
  H  H7  1  0.25275703  0.15007824  0.20663821  1.0
  H  H8  1  0.74724308  0.84992177  0.20663823  1.0
  H  H9  1  0.84992156  0.74724458  0.70663809  1.0
  H  H10  1  0.15007850  0.25275532  0.70663811  1.0
  H  H11  1  0.74723692  0.15009224  0.20664036  1.0
  H  H12  1  0.25276320  0.84990771  0.20664037  1.0
  H  H13  1  0.84990755  0.25276148  0.29335972  1.0
  H  H14  1  0.15009262  0.74723840  0.29335976  1.0
  H  H15  1  0.74724309  0.84992177  0.79336177  1.0
  H  H16  1  0.25275704  0.15007824  0.79336180  1.0
  H  H17  1  0.89530590  0.00003336  0.08322816  1.0
  H  H18  1  0.10469417  0.99996654  0.08322818  1.0
  H  H19  1  0.99996671  0.10469347  0.58322826  1.0
  H  H20  1  0.00003344  0.89530642  0.58322822  1.0
  H  H21  1  0.89530591  0.00003337  0.91677183  1.0
  H  H22  1  0.10469418  0.99996654  0.91677183  1.0
  H  H23  1  0.00003344  0.89530643  0.41677178  1.0
  H  H24  1  0.99996672  0.10469348  0.41677174  1.0
  C  C1  1  0.00002871  0.28702596  0.12184463  1.0
  C  C2  1  0.00000540  0.14731208  0.18919950  1.0
  C  C3  1  0.99997068  0.71297390  0.12184456  1.0
  C  C4  1  0.99999444  0.85268770  0.18919944  1.0
  C  C5  1  0.28702632  0.00002804  0.62184543  1.0
  C  C6  1  0.14731247  0.00000505  0.68919999  1.0
  C  C7  1  0.71297366  0.99997187  0.62184562  1.0
  C  C8  1  0.85268762  0.99999446  0.68920002  1.0
  C  C9  1  0.99997069  0.71297390  0.87815544  1.0
  C  C10  1  0.99999446  0.85268770  0.81080056  1.0
  C  C11  1  0.00002874  0.28702597  0.87815535  1.0
  C  C12  1  0.00000542  0.14731208  0.81080051  1.0
  C  C13  1  0.28702632  0.00002807  0.37815457  1.0
  C  C14  1  0.14731246  0.00000507  0.31080001  1.0
  C  C15  1  0.71297366  0.99997191  0.37815438  1.0
  C  C16  1  0.85268762  0.99999447  0.31079998  1.0
  C  C17  1  0.14739931  0.14739839  0.24999984  1.0
  C  C18  1  0.85260083  0.85260143  0.24999980  1.0
  C  C19  1  0.14740183  0.85259854  0.75000024  1.0
  C  C20  1  0.85259819  0.14740115  0.75000017  1.0
  C  C21  1  0.85260082  0.85260144  0.75000019  1.0
  C  C22  1  0.14739931  0.14739840  0.75000017  1.0
  C  C23  1  0.85259819  0.14740117  0.24999983  1.0
  C  C24  1  0.14740182  0.85259855  0.24999976  1.0
  C  C25  1  0.00000001  0.99999992  0.12739520  1.0
  C  C26  1  0.00000003  0.99999988  0.62739553  1.0
  C  C27  1  0.00000001  0.99999993  0.87260480  1.0
  C  C28  1  0.00000003  0.99999989  0.37260447  1.0
  O  O1  1  0.13367740  0.33584632  0.09557129  1.0
  O  O2  1  0.86632245  0.66415331  0.09557086  1.0
  O  O3  1  0.33586140  0.86636782  0.59557289  1.0
  O  O4  1  0.66413939  0.13363251  0.59557366  1.0
  O  O5  1  0.13363261  0.66413945  0.90442711  1.0
  O  O6  1  0.86636720  0.33586070  0.90442729  1.0
  O  O7  1  0.33584632  0.13367620  0.40442842  1.0
  O  O8  1  0.66415273  0.86632422  0.40442864  1.0
  O  O9  1  0.86632244  0.66415334  0.90442911  1.0
  O  O10  1  0.13367740  0.33584635  0.90442872  1.0
  O  O11  1  0.66413937  0.13363252  0.40442638  1.0
  O  O12  1  0.33586139  0.86636783  0.40442709  1.0
  O  O13  1  0.86636720  0.33586071  0.09557267  1.0
  O  O14  1  0.13363263  0.66413944  0.09557293  1.0
  O  O15  1  0.66415271  0.86632419  0.59557133  1.0
  O  O16  1  0.33584630  0.13367620  0.59557162  1.0
