# generated using pymatgen
data_CuH2(CO)4
_symmetry_space_group_name_H-M   'P 1'
_cell_length_a   4.09249000
_cell_length_b   17.83407074
_cell_length_c   17.83405966
_cell_angle_alpha   89.15425512
_cell_angle_beta   83.68017919
_cell_angle_gamma   83.47377415
_symmetry_Int_Tables_number   1
_chemical_formula_structural   CuH2(CO)4
_chemical_formula_sum   'Cu8 H16 C32 O32'
_cell_volume   1285.33548744
_cell_formula_units_Z   8
loop_
 _symmetry_equiv_pos_site_id
 _symmetry_equiv_pos_as_xyz
  1  'x, y, z'
loop_
 _atom_site_type_symbol
 _atom_site_label
 _atom_site_symmetry_multiplicity
 _atom_site_fract_x
 _atom_site_fract_y
 _atom_site_fract_z
 _atom_site_occupancy
  Cu  Cu1  1  0.07076000  0.97099000  0.25184000  1.0
  Cu  Cu2  1  0.30710000  0.52506000  0.24711000  1.0
  Cu  Cu3  1  0.04727000  0.25173000  0.52891000  1.0
  Cu  Cu4  1  0.83589000  0.24670000  0.97131000  1.0
  Cu  Cu5  1  0.92926000  0.02900000  0.74816000  1.0
  Cu  Cu6  1  0.69291000  0.47494000  0.75289000  1.0
  Cu  Cu7  1  0.95274000  0.74827000  0.47109000  1.0
  Cu  Cu8  1  0.16412000  0.75330000  0.02869000  1.0
  H  H1  1  0.74442000  0.04781000  0.06826000  1.0
  H  H2  1  0.06060000  0.04403000  0.02380000  1.0
  H  H3  1  0.86101000  0.45124000  0.43386000  1.0
  H  H4  1  0.12918000  0.45734000  0.47480000  1.0
  H  H5  1  0.79373000  0.06746000  0.45223000  1.0
  H  H6  1  0.10356000  0.02530000  0.45710000  1.0
  H  H7  1  0.31372000  0.43268000  0.04784000  1.0
  H  H8  1  0.58743000  0.47405000  0.04263000  1.0
  H  H9  1  0.25559000  0.95219000  0.93174000  1.0
  H  H10  1  0.93943000  0.95597000  0.97619000  1.0
  H  H11  1  0.13900000  0.54876000  0.56614000  1.0
  H  H12  1  0.87082000  0.54267000  0.52520000  1.0
  H  H13  1  0.20627000  0.93255000  0.54777000  1.0
  H  H14  1  0.89646000  0.97470000  0.54290000  1.0
  H  H15  1  0.68629000  0.56732000  0.95216000  1.0
  H  H16  1  0.41258000  0.52595000  0.95737000  1.0
  C  C1  1  0.36439000  0.99510000  0.13145000  1.0
  C  C2  1  0.54153000  0.01398000  0.05704000  1.0
  C  C3  1  0.32143000  0.04986000  0.00207000  1.0
  C  C4  1  0.33353000  0.13112000  0.97960000  1.0
  C  C5  1  0.49501000  0.50233000  0.36837000  1.0
  C  C6  1  0.61356000  0.48529000  0.44354000  1.0
  C  C7  1  0.37293000  0.45008000  0.49784000  1.0
  C  C8  1  0.43508000  0.36820000  0.51975000  1.0
  C  C9  1  0.36276000  0.13131000  0.50475000  1.0
  C  C10  1  0.55695000  0.05675000  0.48596000  1.0
  C  C11  1  0.36973000  0.00271000  0.45010000  1.0
  C  C12  1  0.45349000  0.98092000  0.36836000  1.0
  C  C13  1  0.00089000  0.36793000  0.99497000  1.0
  C  C14  1  0.10013000  0.44299000  0.01356000  1.0
  C  C15  1  0.82475000  0.49669000  0.04959000  1.0
  C  C16  1  0.81313000  0.51735000  0.13124000  1.0
  C  C17  1  0.63563000  0.00490000  0.86855000  1.0
  C  C18  1  0.45848000  0.98602000  0.94296000  1.0
  C  C19  1  0.67858000  0.95014000  0.99793000  1.0
  C  C20  1  0.66649000  0.86888000  0.02040000  1.0
  C  C21  1  0.50500000  0.49767000  0.63163000  1.0
  C  C22  1  0.38645000  0.51472000  0.55646000  1.0
  C  C23  1  0.62708000  0.54992000  0.50216000  1.0
  C  C24  1  0.56493000  0.63180000  0.48025000  1.0
  C  C25  1  0.63725000  0.86869000  0.49525000  1.0
  C  C26  1  0.44306000  0.94325000  0.51404000  1.0
  C  C27  1  0.63028000  0.99729000  0.54990000  1.0
  C  C28  1  0.54653000  0.01907000  0.63164000  1.0
  C  C29  1  0.99912000  0.63207000  0.00503000  1.0
  C  C30  1  0.89988000  0.55701000  0.98644000  1.0
  C  C31  1  0.17526000  0.50331000  0.95041000  1.0
  C  C32  1  0.18688000  0.48265000  0.86876000  1.0
  O  O1  1  0.07141000  0.02711000  0.15188000  1.0
  O  O2  1  0.49344000  0.94810000  0.17755000  1.0
  O  O3  1  0.11783000  0.15588000  0.93565000  1.0
  O  O4  1  0.54519000  0.16676000  0.00721000  1.0
  O  O5  1  0.25548000  0.46983000  0.34748000  1.0
  O  O6  1  0.62513000  0.54867000  0.32215000  1.0
  O  O7  1  0.19665000  0.34434000  0.56291000  1.0
  O  O8  1  0.70484000  0.33094000  0.49225000  1.0
  O  O9  1  0.10008000  0.15222000  0.47309000  1.0
  O  O10  1  0.44821000  0.17702000  0.55148000  1.0
  O  O11  1  0.25708000  0.93782000  0.34455000  1.0
  O  O12  1  0.69750000  0.00805000  0.33129000  1.0
  O  O13  1  0.73011000  0.34608000  0.02682000  1.0
  O  O14  1  0.17940000  0.32230000  0.94875000  1.0
  O  O15  1  0.55355000  0.56061000  0.15615000  1.0
  O  O16  1  0.05198000  0.48908000  0.16685000  1.0
  O  O17  1  0.92860000  0.97289000  0.84812000  1.0
  O  O18  1  0.50657000  0.05190000  0.82245000  1.0
  O  O19  1  0.88219000  0.84412000  0.06435000  1.0
  O  O20  1  0.45482000  0.83324000  0.99279000  1.0
  O  O21  1  0.74454000  0.53017000  0.65252000  1.0
  O  O22  1  0.37488000  0.45133000  0.67785000  1.0
  O  O23  1  0.80337000  0.65566000  0.43709000  1.0
  O  O24  1  0.29517000  0.66906000  0.50775000  1.0
  O  O25  1  0.89994000  0.84778000  0.52690000  1.0
  O  O26  1  0.55181000  0.82298000  0.44852000  1.0
  O  O27  1  0.74293000  0.06218000  0.65545000  1.0
  O  O28  1  0.30251000  0.99195000  0.66871000  1.0
  O  O29  1  0.26990000  0.65392000  0.97318000  1.0
  O  O30  1  0.82062000  0.67770000  0.05125000  1.0
  O  O31  1  0.44646000  0.43939000  0.84385000  1.0
  O  O32  1  0.94802000  0.51092000  0.83315000  1.0
