# generated using pymatgen
data_Na2Cd5H48C84(NO6)4
_symmetry_space_group_name_H-M   'P 1'
_cell_length_a   11.94506000
_cell_length_b   25.53470000
_cell_length_c   26.26155000
_cell_angle_alpha   116.65236000
_cell_angle_beta   90.00000000
_cell_angle_gamma   90.00000000
_symmetry_Int_Tables_number   1
_chemical_formula_structural   Na2Cd5H48C84(NO6)4
_chemical_formula_sum   'Na4 Cd10 H96 C168 N8 O48'
_cell_volume   7159.00917226
_cell_formula_units_Z   2
loop_
 _symmetry_equiv_pos_site_id
 _symmetry_equiv_pos_as_xyz
  1  'x, y, z'
loop_
 _atom_site_type_symbol
 _atom_site_label
 _atom_site_symmetry_multiplicity
 _atom_site_fract_x
 _atom_site_fract_y
 _atom_site_fract_z
 _atom_site_occupancy
  Na  Na1  1  0.49980000  0.02372000  0.07312000  1.0
  Na  Na2  1  0.49979000  0.97628000  0.42685000  1.0
  Na  Na3  1  0.50021000  0.97628000  0.92690000  1.0
  Na  Na4  1  0.50022000  0.02372000  0.57311000  1.0
  Cd  Cd1  1  0.83357000  0.52758000  0.90658000  1.0
  Cd  Cd2  1  0.26560000  0.93129000  0.48436000  1.0
  Cd  Cd3  1  0.83357000  0.47242000  0.59343000  1.0
  Cd  Cd4  1  0.26561000  0.06870000  0.01564000  1.0
  Cd  Cd5  1  0.16643000  0.47242000  0.09342000  1.0
  Cd  Cd6  1  0.73441000  0.06870000  0.51565000  1.0
  Cd  Cd7  1  0.16643000  0.52758000  0.40658000  1.0
  Cd  Cd8  1  0.73441000  0.93129000  0.98436000  1.0
  Cd  Cd9  1  0.77146000  0.50000000  0.75000000  1.0
  Cd  Cd10  1  0.22854000  0.50000000  0.25000000  1.0
  H  H1  1  0.06705000  0.61143000  0.07265000  1.0
  H  H2  1  0.19950000  0.68587000  0.13848000  1.0
  H  H3  1  0.20350000  0.77021000  0.02786000  1.0
  H  H4  1  0.07489000  0.69351000  0.96129000  1.0
  H  H5  1  0.45486000  0.81726000  0.19545000  1.0
  H  H6  1  0.44982000  0.86279000  0.30122000  1.0
  H  H7  1  0.09624000  0.83391000  0.29711000  1.0
  H  H8  1  0.09864000  0.78926000  0.19086000  1.0
  H  H9  1  0.44462000  0.93791000  0.11988000  1.0
  H  H10  1  0.30668000  0.89172000  0.15825000  1.0
  H  H11  1  0.43239000  0.72140000  0.04338000  1.0
  H  H12  1  0.57162000  0.76818000  0.00500000  1.0
  H  H13  1  0.50922000  0.54606000  0.77004000  1.0
  H  H14  1  0.35142000  0.60647000  0.76576000  1.0
  H  H15  1  0.36373000  0.70850000  0.94819000  1.0
  H  H16  1  0.52187000  0.64691000  0.95249000  1.0
  H  H17  1  0.14922000  0.60560000  0.85161000  1.0
  H  H18  1  0.00817000  0.54624000  0.78174000  1.0
  H  H19  1  0.02394000  0.66108000  0.70158000  1.0
  H  H20  1  0.16622000  0.72223000  0.77332000  1.0
  H  H21  1  0.08364000  0.77061000  0.88962000  1.0
  H  H22  1  0.09423000  0.87923000  0.93966000  1.0
  H  H23  1  0.45390000  0.86918000  0.93898000  1.0
  H  H24  1  0.44478000  0.76209000  0.88451000  1.0
  H  H25  1  0.06705000  0.38857000  0.42735000  1.0
  H  H26  1  0.19950000  0.31413000  0.36153000  1.0
  H  H27  1  0.20350000  0.22979000  0.47214000  1.0
  H  H28  1  0.07489000  0.30648000  0.53872000  1.0
  H  H29  1  0.45486000  0.18274000  0.30455000  1.0
  H  H30  1  0.44982000  0.13721000  0.19879000  1.0
  H  H31  1  0.09624000  0.16609000  0.20289000  1.0
  H  H32  1  0.09864000  0.21073000  0.30915000  1.0
  H  H33  1  0.44462000  0.06208000  0.38012000  1.0
  H  H34  1  0.30668000  0.10828000  0.34176000  1.0
  H  H35  1  0.43240000  0.27859000  0.45662000  1.0
  H  H36  1  0.57162000  0.23182000  0.49500000  1.0
  H  H37  1  0.50922000  0.45393000  0.72996000  1.0
  H  H38  1  0.35142000  0.39352000  0.73425000  1.0
  H  H39  1  0.36373000  0.29150000  0.55182000  1.0
  H  H40  1  0.52187000  0.35309000  0.54752000  1.0
  H  H41  1  0.14922000  0.39440000  0.64840000  1.0
  H  H42  1  0.00817000  0.45376000  0.71827000  1.0
  H  H43  1  0.02394000  0.33891000  0.79843000  1.0
  H  H44  1  0.16622000  0.27777000  0.72668000  1.0
  H  H45  1  0.08364000  0.22938000  0.61038000  1.0
  H  H46  1  0.09423000  0.12076000  0.56035000  1.0
  H  H47  1  0.45390000  0.13082000  0.56103000  1.0
  H  H48  1  0.44478000  0.23791000  0.61550000  1.0
  H  H49  1  0.93295000  0.38857000  0.92735000  1.0
  H  H50  1  0.80050000  0.31413000  0.86153000  1.0
  H  H51  1  0.79650000  0.22979000  0.97214000  1.0
  H  H52  1  0.92511000  0.30648000  0.03872000  1.0
  H  H53  1  0.54514000  0.18274000  0.80455000  1.0
  H  H54  1  0.55018000  0.13720000  0.69879000  1.0
  H  H55  1  0.90376000  0.16609000  0.70289000  1.0
  H  H56  1  0.90136000  0.21073000  0.80915000  1.0
  H  H57  1  0.55537000  0.06208000  0.88012000  1.0
  H  H58  1  0.69331000  0.10828000  0.84176000  1.0
  H  H59  1  0.56760000  0.27859000  0.95663000  1.0
  H  H60  1  0.42838000  0.23182000  0.99501000  1.0
  H  H61  1  0.49078000  0.45393000  0.22996000  1.0
  H  H62  1  0.64858000  0.39352000  0.23424000  1.0
  H  H63  1  0.63626000  0.29150000  0.05182000  1.0
  H  H64  1  0.47813000  0.35309000  0.04752000  1.0
  H  H65  1  0.85078000  0.39440000  0.14840000  1.0
  H  H66  1  0.99183000  0.45376000  0.21826000  1.0
  H  H67  1  0.97606000  0.33891000  0.29843000  1.0
  H  H68  1  0.83378000  0.27777000  0.22668000  1.0
  H  H69  1  0.91636000  0.22938000  0.11038000  1.0
  H  H70  1  0.90577000  0.12077000  0.06034000  1.0
  H  H71  1  0.54610000  0.13082000  0.06103000  1.0
  H  H72  1  0.55522000  0.23791000  0.11550000  1.0
  H  H73  1  0.93295000  0.61143000  0.57265000  1.0
  H  H74  1  0.80050000  0.68586000  0.63848000  1.0
  H  H75  1  0.79650000  0.77020000  0.52787000  1.0
  H  H76  1  0.92511000  0.69351000  0.46128000  1.0
  H  H77  1  0.54514000  0.81725000  0.69545000  1.0
  H  H78  1  0.55018000  0.86279000  0.80122000  1.0
  H  H79  1  0.90376000  0.83390000  0.79711000  1.0
  H  H80  1  0.90136000  0.78926000  0.69086000  1.0
  H  H81  1  0.55537000  0.93792000  0.61988000  1.0
  H  H82  1  0.69331000  0.89172000  0.65825000  1.0
  H  H83  1  0.56760000  0.72140000  0.54338000  1.0
  H  H84  1  0.42838000  0.76817000  0.50500000  1.0
  H  H85  1  0.49078000  0.54606000  0.27004000  1.0
  H  H86  1  0.64858000  0.60647000  0.26576000  1.0
  H  H87  1  0.63627000  0.70850000  0.44818000  1.0
  H  H88  1  0.47813000  0.64691000  0.45248000  1.0
  H  H89  1  0.85078000  0.60560000  0.35161000  1.0
  H  H90  1  0.99183000  0.54624000  0.28174000  1.0
  H  H91  1  0.97606000  0.66108000  0.20158000  1.0
  H  H92  1  0.83378000  0.72223000  0.27332000  1.0
  H  H93  1  0.91636000  0.77061000  0.38962000  1.0
  H  H94  1  0.90577000  0.87923000  0.43966000  1.0
  H  H95  1  0.54610000  0.86918000  0.43898000  1.0
  H  H96  1  0.55522000  0.76209000  0.38450000  1.0
  C  C1  1  0.98033000  0.60515000  0.97367000  1.0
  C  C2  1  0.06183000  0.64828000  0.01297000  1.0
  C  C3  1  0.09730000  0.64631000  0.06313000  1.0
  C  C4  1  0.17129000  0.68825000  0.10019000  1.0
  C  C5  1  0.20960000  0.73370000  0.08816000  1.0
  C  C6  1  0.17517000  0.73517000  0.03749000  1.0
  C  C7  1  0.10295000  0.69255000  0.00027000  1.0
  C  C8  1  0.27707000  0.80043000  0.18577000  1.0
  C  C9  1  0.37620000  0.82125000  0.21761000  1.0
  C  C10  1  0.37339000  0.84697000  0.27662000  1.0
  C  C11  1  0.27283000  0.85194000  0.30601000  1.0
  C  C12  1  0.17428000  0.82991000  0.27429000  1.0
  C  C13  1  0.17577000  0.80479000  0.21495000  1.0
  C  C14  1  0.27282000  0.88021000  0.36920000  1.0
  C  C15  1  0.59781000  0.88516000  0.03786000  1.0
  C  C16  1  0.51674000  0.85614000  0.06006000  1.0
  C  C17  1  0.44178000  0.89056000  0.10336000  1.0
  C  C18  1  0.36457000  0.86486000  0.12473000  1.0
  C  C19  1  0.36102000  0.80365000  0.10297000  1.0
  C  C20  1  0.43546000  0.76878000  0.05953000  1.0
  C  C21  1  0.51281000  0.79484000  0.03824000  1.0
  C  C22  1  0.62002000  0.55515000  0.86362000  1.0
  C  C23  1  0.52519000  0.59182000  0.86179000  1.0
  C  C24  1  0.47625000  0.58084000  0.80924000  1.0
  C  C25  1  0.38831000  0.61513000  0.80662000  1.0
  C  C26  1  0.34764000  0.66161000  0.85678000  1.0
  C  C27  1  0.39610000  0.67286000  0.90947000  1.0
  C  C28  1  0.48413000  0.63842000  0.91182000  1.0
  C  C29  1  0.16851000  0.66722000  0.81633000  1.0
  C  C30  1  0.12201000  0.61798000  0.81897000  1.0
  C  C31  1  0.04224000  0.58448000  0.77931000  1.0
  C  C32  1  0.00697000  0.59911000  0.73621000  1.0
  C  C33  1  0.05052000  0.64989000  0.73513000  1.0
  C  C34  1  0.13002000  0.68396000  0.77507000  1.0
  C  C35  1  0.26348000  0.75852000  0.88343000  1.0
  C  C36  1  0.16467000  0.79226000  0.89956000  1.0
  C  C37  1  0.17044000  0.85311000  0.92815000  1.0
  C  C38  1  0.27438000  0.88181000  0.94328000  1.0
  C  C39  1  0.37255000  0.84787000  0.92795000  1.0
  C  C40  1  0.36776000  0.78727000  0.89751000  1.0
  C  C41  1  0.28205000  0.94679000  0.97314000  1.0
  C  C42  1  0.93241000  0.55884000  0.69037000  1.0
  C  C43  1  0.98033000  0.39484000  0.52633000  1.0
  C  C44  1  0.06183000  0.35172000  0.48703000  1.0
  C  C45  1  0.09730000  0.35368000  0.43688000  1.0
  C  C46  1  0.17129000  0.31175000  0.39981000  1.0
  C  C47  1  0.20960000  0.26630000  0.41184000  1.0
  C  C48  1  0.17517000  0.26483000  0.46251000  1.0
  C  C49  1  0.10295000  0.30744000  0.49973000  1.0
  C  C50  1  0.27707000  0.19956000  0.31423000  1.0
  C  C51  1  0.37620000  0.17875000  0.28239000  1.0
  C  C52  1  0.37339000  0.15302000  0.22338000  1.0
  C  C53  1  0.27283000  0.14806000  0.19400000  1.0
  C  C54  1  0.17428000  0.17009000  0.22571000  1.0
  C  C55  1  0.17577000  0.19521000  0.28505000  1.0
  C  C56  1  0.27282000  0.11979000  0.13080000  1.0
  C  C57  1  0.59781000  0.11484000  0.46215000  1.0
  C  C58  1  0.51674000  0.14385000  0.43995000  1.0
  C  C59  1  0.44178000  0.10944000  0.39665000  1.0
  C  C60  1  0.36457000  0.13513000  0.37527000  1.0
  C  C61  1  0.36102000  0.19635000  0.39703000  1.0
  C  C62  1  0.43546000  0.23121000  0.44047000  1.0
  C  C63  1  0.51281000  0.20516000  0.46176000  1.0
  C  C64  1  0.62002000  0.44484000  0.63639000  1.0
  C  C65  1  0.52519000  0.40817000  0.63822000  1.0
  C  C66  1  0.47625000  0.41915000  0.69076000  1.0
  C  C67  1  0.38831000  0.38487000  0.69338000  1.0
  C  C68  1  0.34764000  0.33838000  0.64322000  1.0
  C  C69  1  0.39610000  0.32713000  0.59054000  1.0
  C  C70  1  0.48413000  0.36157000  0.58819000  1.0
  C  C71  1  0.16851000  0.33278000  0.68367000  1.0
  C  C72  1  0.12200000  0.38201000  0.68104000  1.0
  C  C73  1  0.04224000  0.41551000  0.72069000  1.0
  C  C74  1  0.00697000  0.40089000  0.76380000  1.0
  C  C75  1  0.05052000  0.35010000  0.76487000  1.0
  C  C76  1  0.13002000  0.31603000  0.72494000  1.0
  C  C77  1  0.26348000  0.24147000  0.61658000  1.0
  C  C78  1  0.16467000  0.20773000  0.60044000  1.0
  C  C79  1  0.17044000  0.14688000  0.57186000  1.0
  C  C80  1  0.27438000  0.11818000  0.55673000  1.0
  C  C81  1  0.37255000  0.15213000  0.57206000  1.0
  C  C82  1  0.36776000  0.21273000  0.60250000  1.0
  C  C83  1  0.28205000  0.05320000  0.52686000  1.0
  C  C84  1  0.93241000  0.44115000  0.80963000  1.0
  C  C85  1  0.01967000  0.39485000  0.02633000  1.0
  C  C86  1  0.93817000  0.35172000  0.98703000  1.0
  C  C87  1  0.90270000  0.35368000  0.93688000  1.0
  C  C88  1  0.82871000  0.31175000  0.89982000  1.0
  C  C89  1  0.79040000  0.26630000  0.91184000  1.0
  C  C90  1  0.82483000  0.26483000  0.96251000  1.0
  C  C91  1  0.89705000  0.30744000  0.99973000  1.0
  C  C92  1  0.72293000  0.19956000  0.81423000  1.0
  C  C93  1  0.62380000  0.17874000  0.78239000  1.0
  C  C94  1  0.62660000  0.15302000  0.72338000  1.0
  C  C95  1  0.72717000  0.14806000  0.69400000  1.0
  C  C96  1  0.82572000  0.17009000  0.72572000  1.0
  C  C97  1  0.82423000  0.19520000  0.78505000  1.0
  C  C98  1  0.72718000  0.11979000  0.63080000  1.0
  C  C99  1  0.40220000  0.11483000  0.96214000  1.0
  C  C100  1  0.48326000  0.14385000  0.93995000  1.0
  C  C101  1  0.55822000  0.10944000  0.89665000  1.0
  C  C102  1  0.63543000  0.13513000  0.87528000  1.0
  C  C103  1  0.63897000  0.19635000  0.89703000  1.0
  C  C104  1  0.56454000  0.23121000  0.94047000  1.0
  C  C105  1  0.48718000  0.20516000  0.96177000  1.0
  C  C106  1  0.37998000  0.44484000  0.13639000  1.0
  C  C107  1  0.47481000  0.40817000  0.13822000  1.0
  C  C108  1  0.52375000  0.41915000  0.19076000  1.0
  C  C109  1  0.61169000  0.38487000  0.19338000  1.0
  C  C110  1  0.65236000  0.33838000  0.14322000  1.0
  C  C111  1  0.60390000  0.32713000  0.09054000  1.0
  C  C112  1  0.51587000  0.36157000  0.08819000  1.0
  C  C113  1  0.83149000  0.33278000  0.18367000  1.0
  C  C114  1  0.87799000  0.38201000  0.18104000  1.0
  C  C115  1  0.95776000  0.41551000  0.22069000  1.0
  C  C116  1  0.99303000  0.40089000  0.26379000  1.0
  C  C117  1  0.94948000  0.35010000  0.26487000  1.0
  C  C118  1  0.86998000  0.31603000  0.22494000  1.0
  C  C119  1  0.73652000  0.24147000  0.11658000  1.0
  C  C120  1  0.83533000  0.20773000  0.10044000  1.0
  C  C121  1  0.82956000  0.14688000  0.07185000  1.0
  C  C122  1  0.72561000  0.11818000  0.05672000  1.0
  C  C123  1  0.62745000  0.15213000  0.07205000  1.0
  C  C124  1  0.63224000  0.21273000  0.10250000  1.0
  C  C125  1  0.71793000  0.05320000  0.02687000  1.0
  C  C126  1  0.06759000  0.44115000  0.30963000  1.0
  C  C127  1  0.01967000  0.60515000  0.47367000  1.0
  C  C128  1  0.93817000  0.64828000  0.51298000  1.0
  C  C129  1  0.90270000  0.64631000  0.56313000  1.0
  C  C130  1  0.82871000  0.68825000  0.60019000  1.0
  C  C131  1  0.79040000  0.73370000  0.58817000  1.0
  C  C132  1  0.82483000  0.73517000  0.53750000  1.0
  C  C133  1  0.89705000  0.69255000  0.50027000  1.0
  C  C134  1  0.72293000  0.80043000  0.68577000  1.0
  C  C135  1  0.62380000  0.82125000  0.71762000  1.0
  C  C136  1  0.62660000  0.84697000  0.77662000  1.0
  C  C137  1  0.72717000  0.85194000  0.80601000  1.0
  C  C138  1  0.82572000  0.82991000  0.77429000  1.0
  C  C139  1  0.82423000  0.80479000  0.71495000  1.0
  C  C140  1  0.72718000  0.88021000  0.86920000  1.0
  C  C141  1  0.40220000  0.88516000  0.53786000  1.0
  C  C142  1  0.48326000  0.85614000  0.56006000  1.0
  C  C143  1  0.55822000  0.89056000  0.60336000  1.0
  C  C144  1  0.63543000  0.86486000  0.62473000  1.0
  C  C145  1  0.63897000  0.80365000  0.60298000  1.0
  C  C146  1  0.56454000  0.76878000  0.55953000  1.0
  C  C147  1  0.48718000  0.79484000  0.53824000  1.0
  C  C148  1  0.37998000  0.55515000  0.36361000  1.0
  C  C149  1  0.47481000  0.59182000  0.36178000  1.0
  C  C150  1  0.52375000  0.58084000  0.30924000  1.0
  C  C151  1  0.61169000  0.61513000  0.30662000  1.0
  C  C152  1  0.65236000  0.66161000  0.35678000  1.0
  C  C153  1  0.60390000  0.67286000  0.40946000  1.0
  C  C154  1  0.51587000  0.63842000  0.41181000  1.0
  C  C155  1  0.83149000  0.66722000  0.31633000  1.0
  C  C156  1  0.87799000  0.61798000  0.31896000  1.0
  C  C157  1  0.95776000  0.58449000  0.27931000  1.0
  C  C158  1  0.99303000  0.59911000  0.23621000  1.0
  C  C159  1  0.94948000  0.64989000  0.23513000  1.0
  C  C160  1  0.86998000  0.68396000  0.27507000  1.0
  C  C161  1  0.73652000  0.75853000  0.38343000  1.0
  C  C162  1  0.83533000  0.79226000  0.39956000  1.0
  C  C163  1  0.82956000  0.85311000  0.42815000  1.0
  C  C164  1  0.72562000  0.88181000  0.44328000  1.0
  C  C165  1  0.62745000  0.84787000  0.42795000  1.0
  C  C166  1  0.63224000  0.78727000  0.39751000  1.0
  C  C167  1  0.71793000  0.94679000  0.47314000  1.0
  C  C168  1  0.06759000  0.55884000  0.19037000  1.0
  N  N1  1  0.28282000  0.77763000  0.12582000  1.0
  N  N2  1  0.25835000  0.69682000  0.85364000  1.0
  N  N3  1  0.28283000  0.22237000  0.37418000  1.0
  N  N4  1  0.25835000  0.30317000  0.64637000  1.0
  N  N5  1  0.71717000  0.22237000  0.87419000  1.0
  N  N6  1  0.74165000  0.30317000  0.14636000  1.0
  N  N7  1  0.71717000  0.77763000  0.62582000  1.0
  N  N8  1  0.74165000  0.69682000  0.35364000  1.0
  O  O1  1  0.89430000  0.51189000  0.69301000  1.0
  O  O2  1  0.91128000  0.56608000  0.64670000  1.0
  O  O3  1  0.93677000  0.56741000  0.98784000  1.0
  O  O4  1  0.95506000  0.60652000  0.92692000  1.0
  O  O5  1  0.66570000  0.56736000  0.91161000  1.0
  O  O6  1  0.65095000  0.51148000  0.81665000  1.0
  O  O7  1  0.19390000  0.97709000  0.97710000  1.0
  O  O8  1  0.37754000  0.97066000  0.99228000  1.0
  O  O9  1  0.66638000  0.85391000  0.99860000  1.0
  O  O10  1  0.59587000  0.94125000  0.05818000  1.0
  O  O11  1  0.18491000  0.87810000  0.39592000  1.0
  O  O12  1  0.36233000  0.90675000  0.39599000  1.0
  O  O13  1  0.89430000  0.48810000  0.80700000  1.0
  O  O14  1  0.91128000  0.43391000  0.85331000  1.0
  O  O15  1  0.93677000  0.43258000  0.51216000  1.0
  O  O16  1  0.95506000  0.39348000  0.57309000  1.0
  O  O17  1  0.66570000  0.43263000  0.58839000  1.0
  O  O18  1  0.65095000  0.48851000  0.68336000  1.0
  O  O19  1  0.19390000  0.02290000  0.52291000  1.0
  O  O20  1  0.37754000  0.02934000  0.50773000  1.0
  O  O21  1  0.66639000  0.14609000  0.50140000  1.0
  O  O22  1  0.59586000  0.05875000  0.44183000  1.0
  O  O23  1  0.18491000  0.12190000  0.10408000  1.0
  O  O24  1  0.36233000  0.09324000  0.10401000  1.0
  O  O25  1  0.10570000  0.48810000  0.30700000  1.0
  O  O26  1  0.08872000  0.43391000  0.35331000  1.0
  O  O27  1  0.06323000  0.43258000  0.01216000  1.0
  O  O28  1  0.04494000  0.39348000  0.07309000  1.0
  O  O29  1  0.33430000  0.43263000  0.08839000  1.0
  O  O30  1  0.34905000  0.48851000  0.18336000  1.0
  O  O31  1  0.80609000  0.02290000  0.02291000  1.0
  O  O32  1  0.62244000  0.02934000  0.00776000  1.0
  O  O33  1  0.33362000  0.14608000  0.00140000  1.0
  O  O34  1  0.40415000  0.05874000  0.94183000  1.0
  O  O35  1  0.81510000  0.12190000  0.60409000  1.0
  O  O36  1  0.63767000  0.09325000  0.60401000  1.0
  O  O37  1  0.10570000  0.51189000  0.19300000  1.0
  O  O38  1  0.08872000  0.56608000  0.14669000  1.0
  O  O39  1  0.06323000  0.56741000  0.48784000  1.0
  O  O40  1  0.04494000  0.60652000  0.42692000  1.0
  O  O41  1  0.33430000  0.56736000  0.41161000  1.0
  O  O42  1  0.34905000  0.51148000  0.31664000  1.0
  O  O43  1  0.80609000  0.97709000  0.47709000  1.0
  O  O44  1  0.62244000  0.97066000  0.49226000  1.0
  O  O45  1  0.33361000  0.85391000  0.49860000  1.0
  O  O46  1  0.40415000  0.94125000  0.55818000  1.0
  O  O47  1  0.81510000  0.87810000  0.89592000  1.0
  O  O48  1  0.63767000  0.90675000  0.89599000  1.0
