# generated using pymatgen
data_H28C41N8
_symmetry_space_group_name_H-M   'P 1'
_cell_length_a   12.04760000
_cell_length_b   25.86980000
_cell_length_c   33.24230000
_cell_angle_alpha   90.00000000
_cell_angle_beta   90.00000000
_cell_angle_gamma   90.00000000
_symmetry_Int_Tables_number   1
_chemical_formula_structural   H28C41N8
_chemical_formula_sum   'H112 C164 N32'
_cell_volume   10360.59448114
_cell_formula_units_Z   4
loop_
 _symmetry_equiv_pos_site_id
 _symmetry_equiv_pos_as_xyz
  1  'x, y, z'
loop_
 _atom_site_type_symbol
 _atom_site_label
 _atom_site_symmetry_multiplicity
 _atom_site_fract_x
 _atom_site_fract_y
 _atom_site_fract_z
 _atom_site_occupancy
  C  1  1  0.99684000  0.96365000  0.94312500  1
  C  2  1  0.07473400  0.92447800  0.93341700  1
  C  3  1  0.13707200  0.91824600  0.00627800  1
  C  4  1  0.05784500  0.95585700  0.01798300  1
  C  5  1  0.05369500  0.97009400  0.05955100  1
  C  6  1  0.12583100  0.94879800  0.08916700  1
  C  7  1  0.20297300  0.91127100  0.07590900  1
  C  8  1  0.20811100  0.89614200  0.03540400  1
  C  9  1  0.08242200  0.90612600  0.89349000  1
  C  10  1  0.01244300  0.92510500  0.86315800  1
  C  11  1  0.93228500  0.96365800  0.87124200  1
  C  12  1  0.92777100  0.98291800  0.91136100  1
  C  13  1  0.86487700  0.96463100  0.99767800  1
  C  14  1  0.78366100  0.00248200  0.00686200  1
  C  15  1  0.92541600  0.07436500  0.99882700  1
  C  16  1  0.00920500  0.03838900  0.98813600  1
  C  17  1  0.95114600  0.12750800  0.00148900  1
  C  18  1  0.05934800  0.14551700  0.99479000  1
  C  19  1  0.14690000  0.11130400  0.98498100  1
  C  20  1  0.11869100  0.05800600  0.98104200  1
  C  21  1  0.83076700  0.91163800  0.99732000  1
  C  22  1  0.71974800  0.89580100  0.00510800  1
  C  23  1  0.64225600  0.93498600  0.01456300  1
  C  24  1  0.67352400  0.98722000  0.01536300  1
  C  37  1  0.98256900  0.98080900  0.98668500  1
  C  38  1  0.80967800  0.05850100  0.00784500  1
  C  41  1  0.14842400  0.90059300  0.96401800  1
  C  44  1  0.25580500  0.13004000  0.97893300  1
  C  45  1  0.86174300  0.98157300  0.84036900  1
  C  46  1  0.68716700  0.84361700  0.00494000  1
  C  50  1  0.12272300  0.96504000  0.12962700  1
  C  52  1  0.95006300  0.50908800  0.94274100  1
  C  53  1  0.87064900  0.54755400  0.93293500  1
  C  54  1  0.80897200  0.55404400  0.00583300  1
  C  55  1  0.88961100  0.51715500  0.01767600  1
  C  56  1  0.89457900  0.50342100  0.05934300  1
  C  57  1  0.82209100  0.52461200  0.08890500  1
  C  58  1  0.74359500  0.56142300  0.07547900  1
  C  59  1  0.73745400  0.57596900  0.03487700  1
  C  60  1  0.86188800  0.56554800  0.89294300  1
  C  61  1  0.93256300  0.54707400  0.86265200  1
  C  62  1  0.01443200  0.50935100  0.87083800  1
  C  63  1  0.01973300  0.49024700  0.91098900  1
  C  64  1  0.08255600  0.50867800  0.99710300  1
  C  65  1  0.16483700  0.47122100  0.00597700  1
  C  66  1  0.02324000  0.39880900  0.99886900  1
  C  67  1  0.93936000  0.43465700  0.98803300  1
  C  68  1  0.99685700  0.34572000  0.00217800  1
  C  69  1  0.88814800  0.32774100  0.99598100  1
  C  70  1  0.80130300  0.36196700  0.98557200  1
  C  71  1  0.82991500  0.41509800  0.98111600  1
  C  72  1  0.11520900  0.56178600  0.99651400  1
  C  73  1  0.22593600  0.57835400  0.00374500  1
  C  74  1  0.30525900  0.53969100  0.01234900  1
  C  75  1  0.27512000  0.48722800  0.01361500  1
  C  88  1  0.96503800  0.49223800  0.98636300  1
  C  89  1  0.13923900  0.41506300  0.00741500  1
  C  92  1  0.79611900  0.57099800  0.96346000  1
  C  95  1  0.69126400  0.34444400  0.98073300  1
  C  96  1  0.08591900  0.49215300  0.84001500  1
  C  97  1  0.25403200  0.63103600  0.00317700  1
  C  101  1  0.82578600  0.50891800  0.12948600  1
  C  103  1  0.49726500  0.51254000  0.53308900  1
  C  104  1  0.57499300  0.55170100  0.54298300  1
  C  105  1  0.63776400  0.55831900  0.47019000  1
  C  106  1  0.55910900  0.52051800  0.45833200  1
  C  107  1  0.55647100  0.50594500  0.41681200  1
  C  108  1  0.62955200  0.52711300  0.38744300  1
  C  109  1  0.70619500  0.56474300  0.40085400  1
  C  110  1  0.70955500  0.58034500  0.44127200  1
  C  111  1  0.58304800  0.56956400  0.58303700  1
  C  112  1  0.51374800  0.55001600  0.61335700  1
  C  113  1  0.43320000  0.51172800  0.60505100  1
  C  114  1  0.42832900  0.49297600  0.56477700  1
  C  115  1  0.36582700  0.51171600  0.47834200  1
  C  116  1  0.28464800  0.47390000  0.46902300  1
  C  117  1  0.42616200  0.40197800  0.47718100  1
  C  118  1  0.50992200  0.43790800  0.48801100  1
  C  119  1  0.45181800  0.34883900  0.47442000  1
  C  120  1  0.55998600  0.33079100  0.48110100  1
  C  121  1  0.64744700  0.36495800  0.49109100  1
  C  122  1  0.61933700  0.41824100  0.49516100  1
  C  123  1  0.33171700  0.56471300  0.47871800  1
  C  124  1  0.22077800  0.58057700  0.47078600  1
  C  125  1  0.14339900  0.54142300  0.46113800  1
  C  126  1  0.17461800  0.48918800  0.46036200  1
  C  139  1  0.48339800  0.49550400  0.48947900  1
  C  140  1  0.31055000  0.41788100  0.46803900  1
  C  143  1  0.64843200  0.57594200  0.51248000  1
  C  146  1  0.75635700  0.34617200  0.49679800  1
  C  147  1  0.36431600  0.49313500  0.63618000  1
  C  148  1  0.18831900  0.63277300  0.47086100  1
  C  152  1  0.63124100  0.50945900  0.34736500  1
  C  154  1  0.45010200  0.96672300  0.53354900  1
  C  155  1  0.37074100  0.92831700  0.54353300  1
  C  156  1  0.30869500  0.92143900  0.47067400  1
  C  157  1  0.38880300  0.95851600  0.45868700  1
  C  158  1  0.39240100  0.97257100  0.41705900  1
  C  159  1  0.31905300  0.95150600  0.38771700  1
  C  160  1  0.24102200  0.91459700  0.40127200  1
  C  161  1  0.23652300  0.89958600  0.44180200  1
  C  162  1  0.36146200  0.91090900  0.58367200  1
  C  163  1  0.43133400  0.93002200  0.61398000  1
  C  164  1  0.51384000  0.96737000  0.60559000  1
  C  165  1  0.51961700  0.98585600  0.56524100  1
  C  166  1  0.58203600  0.96703200  0.47898300  1
  C  167  1  0.66427600  0.00447300  0.47000400  1
  C  168  1  0.52283800  0.07689700  0.47723500  1
  C  169  1  0.43902000  0.04107500  0.48818800  1
  C  170  1  0.49651300  0.12999000  0.47391700  1
  C  171  1  0.38788300  0.14799900  0.48021300  1
  C  172  1  0.30109200  0.11380100  0.49073000  1
  C  173  1  0.32965400  0.06066500  0.49519400  1
  C  174  1  0.61472400  0.91392900  0.47957300  1
  C  175  1  0.72541400  0.89736300  0.47225100  1
  C  176  1  0.80466800  0.93601600  0.46353900  1
  C  177  1  0.77450500  0.98847300  0.46226000  1
  C  190  1  0.46463500  0.98348100  0.48987300  1
  C  191  1  0.63874000  0.06062700  0.46857200  1
  C  194  1  0.29642800  0.90454200  0.51309000  1
  C  197  1  0.19114600  0.13136200  0.49568200  1
  C  198  1  0.58311900  0.98565500  0.63676100  1
  C  199  1  0.75358900  0.84469400  0.47287300  1
  C  203  1  0.31830300  0.96843800  0.34744300  1
  C  205  1  0.37424400  0.20708700  0.98881300  1
  C  206  1  0.36609200  0.25753600  0.00465100  1
  C  207  1  0.45903600  0.29125100  0.00504200  1
  C  208  1  0.56053400  0.27324100  0.98818100  1
  C  212  1  0.44915800  0.34292100  0.02419200  1
  C  218  1  0.87468300  0.26891600  0.48746300  1
  C  219  1  0.86620000  0.21840900  0.47176000  1
  C  220  1  0.95896100  0.18459400  0.47143300  1
  C  221  1  0.06051800  0.20254100  0.48827600  1
  C  225  1  0.94882200  0.13286500  0.45239700  1
  C  231  1  0.52881400  0.78629200  0.99507300  1
  C  232  1  0.42289300  0.78555000  0.97708500  1
  C  233  1  0.35726000  0.74001100  0.97716100  1
  C  234  1  0.40010700  0.69538100  0.99689600  1
  C  238  1  0.24910000  0.74003000  0.95571500  1
  C  244  1  0.02952200  0.68979500  0.48087500  1
  C  245  1  0.92343000  0.69030400  0.49873200  1
  C  246  1  0.85741700  0.73572500  0.49864200  1
  C  247  1  0.90014000  0.78050100  0.47907300  1
  C  251  1  0.74902300  0.73543900  0.51992800  1
  C  257  1  0.25465600  0.94760000  0.27940300  1
  C  258  1  0.24766200  0.99564400  0.25931400  1
  C  259  1  0.21998900  0.99791700  0.21772900  1
  C  260  1  0.19810200  0.95074800  0.19711900  1
  C  264  1  0.21789600  0.04837700  0.19653000  1
  C  270  1  0.69592600  0.52907300  0.27926500  1
  C  271  1  0.69921200  0.48082300  0.25934400  1
  C  272  1  0.72638800  0.47787400  0.21774700  1
  C  273  1  0.75173800  0.52453100  0.19697500  1
  C  277  1  0.72429200  0.42733200  0.19666200  1
  C  283  1  0.66853000  0.95595100  0.70054000  1
  C  284  1  0.69420000  0.90844100  0.71906800  1
  C  285  1  0.75058500  0.90681500  0.75642500  1
  C  286  1  0.77866400  0.95419900  0.77543400  1
  C  290  1  0.77836900  0.85624600  0.77516900  1
  C  296  1  0.27786400  0.52103600  0.70027300  1
  C  297  1  0.24882500  0.56806400  0.71888500  1
  C  298  1  0.19231500  0.56869800  0.75623000  1
  C  299  1  0.16761800  0.52083500  0.77512900  1
  C  303  1  0.16085600  0.61875100  0.77505500  1
  H  25  1  0.56152600  0.92594500  0.02115700  1
  H  26  1  0.61449500  0.01435300  0.02215300  1
  H  27  1  0.89091900  0.15373900  0.00902500  1
  H  28  1  0.07316000  0.18440000  0.99751200  1
  H  29  1  0.18012200  0.03235400  0.97372500  1
  H  30  1  0.88831700  0.88392200  0.99044000  1
  H  31  1  0.99724400  0.99744900  0.06827500  1
  H  32  1  0.25744100  0.89453000  0.09562200  1
  H  33  1  0.26559500  0.86895600  0.02716400  1
  H  34  1  0.86984800  0.01052600  0.91806200  1
  H  35  1  0.13833800  0.87777300  0.88626500  1
  H  36  1  0.02103000  0.91012500  0.83481800  1
  H  39  1  0.75526400  0.07790900  0.98624700  1
  H  40  1  0.78915600  0.07264500  0.03796700  1
  H  42  1  0.23425000  0.90740000  0.95463700  1
  H  43  1  0.13341500  0.85889100  0.96369300  1
  H  47  1  0.74571200  0.81658300  0.00323700  1
  H  48  1  0.31663900  0.10468200  0.97462800  1
  H  49  1  0.82899000  0.01672600  0.84226300  1
  H  51  1  0.07159400  0.99351000  0.13722900  1
  H  76  1  0.38606300  0.54934700  0.01823000  1
  H  77  1  0.33509500  0.46045200  0.02008900  1
  H  78  1  0.05692100  0.31957000  0.01001700  1
  H  79  1  0.87323900  0.28904400  0.99947100  1
  H  80  1  0.76853300  0.44081900  0.97387400  1
  H  81  1  0.05651700  0.58909200  0.98987400  1
  H  82  1  0.95186400  0.47650500  0.06818100  1
  H  83  1  0.68866600  0.57797900  0.09512300  1
  H  84  1  0.67886400  0.60257900  0.02650800  1
  H  85  1  0.07876700  0.46317300  0.91773200  1
  H  86  1  0.80476800  0.59334100  0.88564500  1
  H  87  1  0.92326600  0.56184800  0.83427600  1
  H  90  1  0.19325500  0.39548800  0.98578700  1
  H  91  1  0.16067300  0.40132100  0.03755800  1
  H  93  1  0.71057600  0.56303500  0.95428900  1
  H  94  1  0.80875700  0.61288100  0.96274500  1
  H  98  1  0.19346900  0.65646700  0.00725300  1
  H  99  1  0.63523700  0.36928000  0.97044000  1
  H  100  1  0.12036400  0.45735600  0.84190400  1
  H  102  1  0.87623800  0.48022800  0.13719300  1
  H  127  1  0.06277100  0.55048400  0.45440300  1
  H  128  1  0.11565200  0.46207600  0.45345200  1
  H  129  1  0.39163300  0.32265400  0.46673700  1
  H  130  1  0.57384800  0.29193100  0.47818900  1
  H  131  1  0.68083500  0.44385700  0.50247700  1
  H  132  1  0.38921700  0.59240900  0.48568800  1
  H  133  1  0.50095800  0.47823000  0.40798900  1
  H  134  1  0.76213000  0.58089400  0.38137600  1
  H  135  1  0.76693100  0.60750000  0.44966500  1
  H  136  1  0.37064100  0.46531500  0.55794600  1
  H  137  1  0.63911700  0.59778200  0.59041600  1
  H  138  1  0.52287000  0.56447700  0.64184200  1
  H  141  1  0.25590600  0.39846500  0.48955700  1
  H  142  1  0.29027800  0.40378400  0.43787900  1
  H  144  1  0.73430200  0.56941700  0.52193700  1
  H  145  1  0.63271000  0.61757900  0.51285300  1
  H  149  1  0.24652500  0.65983000  0.47349900  1
  H  150  1  0.81676300  0.37098500  0.50332000  1
  H  151  1  0.31709900  0.46234600  0.63093400  1
  H  153  1  0.57982800  0.48109800  0.33961300  1
  H  178  1  0.88543300  0.92636400  0.45759500  1
  H  179  1  0.83443100  0.01524600  0.45572100  1
  H  180  1  0.55654500  0.15612000  0.46599700  1
  H  181  1  0.37299500  0.18669700  0.47672100  1
  H  182  1  0.26831400  0.03497500  0.50255300  1
  H  183  1  0.55612100  0.88662600  0.48632300  1
  H  184  1  0.44881500  0.99983000  0.40812800  1
  H  185  1  0.18480800  0.89860100  0.38181800  1
  H  186  1  0.17799600  0.87302400  0.45031500  1
  H  187  1  0.57831100  0.01303500  0.55837300  1
  H  188  1  0.30404800  0.88331900  0.59112900  1
  H  189  1  0.42119200  0.91591700  0.64252500  1
  H  192  1  0.69294200  0.08020600  0.49014100  1
  H  193  1  0.65994400  0.07434900  0.43840200  1
  H  195  1  0.21083000  0.91228600  0.52231000  1
  H  196  1  0.30962900  0.86270100  0.51388100  1
  H  200  1  0.69303600  0.81923200  0.46890900  1
  H  201  1  0.13516700  0.10657600  0.50608700  1
  H  202  1  0.63477600  0.01458500  0.63079300  1
  H  204  1  0.36847500  0.99732100  0.33976000  1
  H  210  1  0.29190400  0.26950000  0.01646400  1
  H  213  1  0.36937200  0.34831000  0.03920900  1
  H  214  1  0.45703200  0.37303300  0.00144100  1
  H  215  1  0.51418000  0.34786500  0.04672700  1
  H  223  1  0.79193800  0.20648400  0.45998600  1
  H  226  1  0.86897100  0.12750000  0.43741600  1
  H  227  1  0.95664100  0.10282700  0.47520800  1
  H  228  1  0.01376100  0.12779000  0.42984700  1
  H  236  1  0.39402400  0.81842700  0.96348700  1
  H  239  1  0.23729100  0.77473100  0.93750300  1
  H  240  1  0.24400600  0.70681500  0.93556200  1
  H  241  1  0.18138000  0.73835100  0.97741800  1
  H  249  1  0.89470400  0.65733900  0.51224200  1
  H  252  1  0.73742800  0.70071400  0.53812800  1
  H  253  1  0.74331700  0.76863500  0.54008000  1
  H  254  1  0.68153500  0.73694800  0.49812400  1
  H  262  1  0.26306800  0.02883300  0.27504700  1
  H  265  1  0.24426800  0.08022900  0.21585500  1
  H  266  1  0.13380800  0.05673000  0.18629000  1
  H  267  1  0.27346000  0.04724400  0.17061100  1
  H  275  1  0.68127200  0.44799300  0.27518000  1
  H  278  1  0.69609200  0.39598300  0.21614300  1
  H  279  1  0.80746500  0.41763000  0.18616300  1
  H  280  1  0.66821500  0.42926100  0.17091800  1
  H  288  1  0.67227000  0.87471400  0.70503100  1
  H  291  1  0.75045100  0.82347500  0.75710900  1
  H  292  1  0.86812500  0.85302700  0.77888400  1
  H  293  1  0.73898000  0.85344300  0.80466200  1
  H  301  1  0.26838900  0.60215800  0.70492400  1
  H  304  1  0.18643500  0.65199300  0.75706200  1
  H  305  1  0.07091000  0.62055300  0.77874200  1
  H  306  1  0.19994400  0.62208400  0.80456700  1
  N  209  1  0.56158300  0.22366600  0.97422600  1
  N  211  1  0.47497000  0.19269200  0.97413500  1
  N  216  1  0.28377000  0.17710600  0.98922800  1
  N  217  1  0.65861900  0.29801600  0.98911000  1
  N  222  1  0.06195100  0.25221700  0.50200500  1
  N  224  1  0.97553600  0.28330700  0.50202000  1
  N  229  1  0.78447800  0.29902800  0.48684100  1
  N  230  1  0.15856400  0.17777500  0.48725000  1
  N  235  1  0.50379600  0.69937000  0.01298100  1
  N  237  1  0.56413700  0.74166800  0.01247800  1
  N  242  1  0.58640600  0.83040500  0.99489200  1
  N  243  1  0.35399500  0.64816500  0.99857700  1
  N  248  1  0.00396200  0.77671700  0.46307300  1
  N  250  1  0.06462200  0.73452000  0.46356900  1
  N  255  1  0.08746400  0.64577900  0.48102600  1
  N  256  1  0.85364100  0.82763000  0.47736200  1
  N  261  1  0.20797800  0.90638300  0.21872700  1
  N  263  1  0.23309500  0.90486000  0.25705800  1
  N  268  1  0.27736600  0.94015400  0.31838400  1
  N  269  1  0.18210700  0.94406500  0.15757300  1
  N  274  1  0.74520900  0.56917000  0.21840600  1
  N  276  1  0.72043300  0.57131900  0.25675100  1
  N  281  1  0.67358600  0.53712400  0.31820300  1
  N  282  1  0.76735100  0.53060700  0.15736600  1
  N  287  1  0.75060800  0.99868200  0.75578900  1
  N  289  1  0.69867400  0.99957100  0.72082300  1
  N  294  1  0.61264800  0.95431700  0.66571800  1
  N  295  1  0.83717400  0.95306500  0.80975900  1
  N  300  1  0.19874100  0.47686900  0.75539600  1
  N  302  1  0.25071600  0.47690000  0.72043400  1
  N  307  1  0.33359600  0.52365300  0.66547100  1
  N  308  1  0.10917800  0.52098600  0.80946000  1
