# generated using pymatgen
data_Cd2H24(C11O4)3
_symmetry_space_group_name_H-M   'P 1'
_cell_length_a   15.88929000
_cell_length_b   16.39440000
_cell_length_c   17.75857000
_cell_angle_alpha   113.15313000
_cell_angle_beta   113.39109000
_cell_angle_gamma   95.89048000
_symmetry_Int_Tables_number   1
_chemical_formula_structural   Cd2H24(C11O4)3
_chemical_formula_sum   'Cd6 H72 C99 O36'
_cell_volume   3715.87153013
_cell_formula_units_Z   3
loop_
 _symmetry_equiv_pos_site_id
 _symmetry_equiv_pos_as_xyz
  1  'x, y, z'
loop_
 _atom_site_type_symbol
 _atom_site_label
 _atom_site_symmetry_multiplicity
 _atom_site_fract_x
 _atom_site_fract_y
 _atom_site_fract_z
 _atom_site_occupancy
  Cd  Cd1  1  0.37415000  0.66371000  0.95871000  1.0
  Cd  Cd2  1  0.22152000  0.45142000  0.92356000  1.0
  Cd  Cd3  1  0.58708000  0.81080000  0.98880000  1.0
  Cd  Cd4  1  0.03112000  0.28895000  0.90739000  1.0
  Cd  Cd5  1  0.85259000  0.08058000  0.85343000  1.0
  Cd  Cd6  1  0.74924000  0.91984000  0.92198000  1.0
  H  H1  1  0.49930000  0.36233000  0.25398000  1.0
  H  H2  1  0.47286000  0.38712000  0.34823000  1.0
  H  H3  1  0.94753000  0.96543000  0.66627000  1.0
  H  H4  1  0.56539000  0.23851000  0.39921000  1.0
  H  H5  1  0.57244000  0.35216000  0.47718000  1.0
  H  H6  1  0.50884000  0.43701000  0.13754000  1.0
  H  H7  1  0.58425000  0.58481000  0.60896000  1.0
  H  H8  1  0.93138000  0.60320000  0.45520000  1.0
  H  H9  1  0.93496000  0.71317000  0.53627000  1.0
  H  H10  1  0.04568000  0.85398000  0.45522000  1.0
  H  H11  1  0.12034000  0.82363000  0.53933000  1.0
  H  H12  1  0.68181000  0.47895000  0.25436000  1.0
  H  H13  1  0.65661000  0.47952000  0.37292000  1.0
  H  H14  1  0.73993000  0.45896000  0.46182000  1.0
  H  H15  1  0.87467000  0.33263000  0.59603000  1.0
  H  H16  1  0.27794000  0.62098000  0.76694000  1.0
  H  H17  1  0.73683000  0.74742000  0.26405000  1.0
  H  H18  1  0.88516000  0.73927000  0.32247000  1.0
  H  H19  1  0.85652000  0.77358000  0.41600000  1.0
  H  H20  1  0.23513000  0.69421000  0.66434000  1.0
  H  H21  1  0.62808000  0.18102000  0.64484000  1.0
  H  H22  1  0.57912000  0.24728000  0.53595000  1.0
  H  H23  1  0.92278000  0.26704000  0.70519000  1.0
  H  H24  1  0.56598000  0.70709000  0.15354000  1.0
  H  H25  1  0.65067000  0.75368000  0.72255000  1.0
  H  H26  1  0.59678000  0.21427000  0.26936000  1.0
  H  H27  1  0.71658000  0.28975000  0.35361000  1.0
  H  H28  1  0.22349000  0.15432000  0.67890000  1.0
  H  H29  1  0.31360000  0.16973000  0.60518000  1.0
  H  H30  1  0.28415000  0.19569000  0.51061000  1.0
  H  H31  1  0.33707000  0.47164000  0.76292000  1.0
  H  H32  1  0.76346000  0.08361000  0.12015000  1.0
  H  H33  1  0.45295000  0.11218000  0.46981000  1.0
  H  H34  1  0.33888000  0.11065000  0.39013000  1.0
  H  H35  1  0.16264000  0.98291000  0.57712000  1.0
  H  H36  1  0.19341000  0.01825000  0.47773000  1.0
  H  H37  1  0.22335000  0.93975000  0.39580000  1.0
  H  H38  1  0.35028000  0.81543000  0.26627000  1.0
  H  H39  1  0.46731000  0.08258000  0.60095000  1.0
  H  H40  1  0.39709000  0.96706000  0.50863000  1.0
  H  H41  1  0.76551000  0.62131000  0.49000000  1.0
  H  H42  1  0.83372000  0.79012000  0.60569000  1.0
  H  H43  1  0.50645000  0.05309000  0.21590000  1.0
  H  H44  1  0.30076000  0.30838000  0.65236000  1.0
  H  H45  1  0.88810000  0.82737000  0.22898000  1.0
  H  H46  1  0.70091000  0.16033000  0.22676000  1.0
  H  H47  1  0.51641000  0.97277000  0.63357000  1.0
  H  H48  1  0.06041000  0.89948000  0.34985000  1.0
  H  H49  1  0.41599000  0.76780000  0.15591000  1.0
  H  H50  1  0.09108000  0.09052000  0.24402000  1.0
  H  H51  1  0.35056000  0.36590000  0.21015000  1.0
  H  H52  1  0.72603000  0.28244000  0.01796000  1.0
  H  H53  1  0.93488000  0.59581000  0.58469000  1.0
  H  H54  1  0.44154000  0.10146000  0.32744000  1.0
  H  H55  1  0.58742000  0.90421000  0.73494000  1.0
  H  H56  1  0.91797000  0.01942000  0.12519000  1.0
  H  H57  1  0.62761000  0.53097000  0.80667000  1.0
  H  H58  1  0.28856000  0.98751000  0.70871000  1.0
  H  H59  1  0.36396000  0.91995000  0.81369000  1.0
  H  H60  1  0.96501000  0.59410000  0.32480000  1.0
  H  H61  1  0.08388000  0.64829000  0.42216000  1.0
  H  H62  1  0.97871000  0.52396000  0.68935000  1.0
  H  H63  1  0.18124000  0.31967000  0.09454000  1.0
  H  H64  1  0.04975000  0.52848000  0.27401000  1.0
  H  H65  1  0.59154000  0.36464000  0.69256000  1.0
  H  H66  1  0.66344000  0.36260000  0.12656000  1.0
  H  H67  1  0.08562000  0.44484000  0.14650000  1.0
  H  H68  1  0.10334000  0.77813000  0.24921000  1.0
  H  H69  1  0.00704000  0.13458000  0.76436000  1.0
  H  H70  1  0.31925000  0.08234000  0.16208000  1.0
  H  H71  1  0.14665000  0.03574000  0.04277000  1.0
  H  H72  1  0.14349000  0.69281000  0.12262000  1.0
  C  C1  1  0.60320000  0.34776000  0.36717000  1.0
  C  C2  1  0.97954000  0.72045000  0.43724000  1.0
  C  C3  1  0.49970000  0.34075000  0.30542000  1.0
  C  C4  1  0.52595000  0.56989000  0.13888000  1.0
  C  C5  1  0.00760000  0.00689000  0.66868000  1.0
  C  C6  1  0.72417000  0.29266000  0.55790000  1.0
  C  C7  1  0.60522000  0.31311000  0.43652000  1.0
  C  C8  1  0.55928000  0.50503000  0.16691000  1.0
  C  C9  1  0.63936000  0.63048000  0.60942000  1.0
  C  C10  1  0.97179000  0.67783000  0.49839000  1.0
  C  C11  1  0.77768000  0.21854000  0.68173000  1.0
  C  C12  1  0.13028000  0.56899000  0.73634000  1.0
  C  C13  1  0.04611000  0.82131000  0.49872000  1.0
  C  C14  1  0.08320000  0.64935000  0.61815000  1.0
  C  C15  1  0.65505000  0.52786000  0.23126000  1.0
  C  C16  1  0.66367000  0.45118000  0.42108000  1.0
  C  C17  1  0.82125000  0.29965000  0.60746000  1.0
  C  C18  1  0.20308000  0.61725000  0.72939000  1.0
  C  C19  1  0.68814000  0.67999000  0.23868000  1.0
  C  C20  1  0.80096000  0.17145000  0.74019000  1.0
  C  C21  1  0.04982000  0.96357000  0.61413000  1.0
  C  C22  1  0.88019000  0.72138000  0.37449000  1.0
  C  C23  1  0.17978000  0.65718000  0.67087000  1.0
  C  C24  1  0.68140000  0.21408000  0.63335000  1.0
  C  C25  1  0.65403000  0.25102000  0.57198000  1.0
  C  C26  1  0.84764000  0.26304000  0.66894000  1.0
  C  C27  1  0.67112000  0.59255000  0.54343000  1.0
  C  C28  1  0.59123000  0.65696000  0.17551000  1.0
  C  C29  1  0.67773000  0.72482000  0.67337000  1.0
  C  C30  1  0.64379000  0.28677000  0.30826000  1.0
  C  C31  1  0.74852000  0.78327000  0.67267000  1.0
  C  C32  1  0.16239000  0.11242000  0.67461000  1.0
  C  C33  1  0.33533000  0.17235000  0.55438000  1.0
  C  C34  1  0.48443000  0.51277000  0.79109000  1.0
  C  C35  1  0.33369000  0.07430000  0.49378000  1.0
  C  C36  1  0.39282000  0.44892000  0.74715000  1.0
  C  C37  1  0.68013000  0.26845000  0.18515000  1.0
  C  C38  1  0.74270000  0.14541000  0.12233000  1.0
  C  C39  1  0.37520000  0.07565000  0.42921000  1.0
  C  C40  1  0.12787000  0.01612000  0.61728000  1.0
  C  C41  1  0.78976000  0.13274000  0.00004000  1.0
  C  C42  1  0.75098000  0.17923000  0.06353000  1.0
  C  C43  1  0.50612000  0.61201000  0.85718000  1.0
  C  C44  1  0.39318000  0.96098000  0.30478000  1.0
  C  C45  1  0.22783000  0.01289000  0.43390000  1.0
  C  C46  1  0.15167000  0.52393000  0.79646000  1.0
  C  C47  1  0.38431000  0.86679000  0.25435000  1.0
  C  C48  1  0.39364000  0.03404000  0.55366000  1.0
  C  C49  1  0.39640000  0.98325000  0.66339000  1.0
  C  C50  1  0.08619000  0.00042000  0.30468000  1.0
  C  C51  1  0.74204000  0.64965000  0.54206000  1.0
  C  C52  1  0.77974000  0.74436000  0.60645000  1.0
  C  C53  1  0.44413000  0.32628000  0.66423000  1.0
  C  C54  1  0.89160000  0.91795000  0.16942000  1.0
  C  C55  1  0.16048000  0.25962000  0.78959000  1.0
  C  C56  1  0.13723000  0.51006000  0.04987000  1.0
  C  C57  1  0.46559000  0.90806000  0.17791000  1.0
  C  C58  1  0.47244000  0.00162000  0.22771000  1.0
  C  C59  1  0.42329000  0.54650000  0.07101000  1.0
  C  C60  1  0.37219000  0.35594000  0.68412000  1.0
  C  C61  1  0.93333000  0.88514000  0.23317000  1.0
  C  C62  1  0.70733000  0.18913000  0.18301000  1.0
  C  C63  1  0.48119000  0.96056000  0.67117000  1.0
  C  C64  1  0.02995000  0.92550000  0.30067000  1.0
  C  C65  1  0.42040000  0.84068000  0.19170000  1.0
  C  C66  1  0.51021000  0.88443000  0.11589000  1.0
  C  C67  1  0.04592000  0.03287000  0.24008000  1.0
  C  C68  1  0.52445000  0.86694000  0.84292000  1.0
  C  C69  1  0.78738000  0.88511000  0.73655000  1.0
  C  C70  1  0.30711000  0.29359000  0.17464000  1.0
  C  C71  1  0.72112000  0.25746000  0.06491000  1.0
  C  C72  1  0.00974000  0.60143000  0.62422000  1.0
  C  C73  1  0.43636000  0.02873000  0.29059000  1.0
  C  C74  1  0.78678000  0.87734000  0.10477000  1.0
  C  C75  1  0.34559000  0.22655000  0.19394000  1.0
  C  C76  1  0.52177000  0.92197000  0.72910000  1.0
  C  C77  1  0.94935000  0.99200000  0.17315000  1.0
  C  C78  1  0.55630000  0.48148000  0.77147000  1.0
  C  C79  1  0.15222000  0.17425000  0.06084000  1.0
  C  C80  1  0.12067000  0.15720000  0.72915000  1.0
  C  C81  1  0.11587000  0.56288000  0.12596000  1.0
  C  C82  1  0.35363000  0.96853000  0.71466000  1.0
  C  C83  1  0.47980000  0.90664000  0.78036000  1.0
  C  C84  1  0.71979000  0.61521000  0.26701000  1.0
  C  C85  1  0.39551000  0.93103000  0.77288000  1.0
  C  C86  1  0.02083000  0.66118000  0.37840000  1.0
  C  C87  1  0.03409000  0.56144000  0.68314000  1.0
  C  C88  1  0.21073000  0.26702000  0.10852000  1.0
  C  C89  1  0.06875000  0.56509000  0.24100000  1.0
  C  C90  1  0.53661000  0.38934000  0.70839000  1.0
  C  C91  1  0.68619000  0.30197000  0.12515000  1.0
  C  C92  1  0.08959000  0.51783000  0.16951000  1.0
  C  C93  1  0.07252000  0.65871000  0.26848000  1.0
  C  C94  1  0.10045000  0.70538000  0.22652000  1.0
  C  C95  1  0.04970000  0.14546000  0.99094000  1.0
  C  C96  1  0.04305000  0.10267000  0.72520000  1.0
  C  C97  1  0.28779000  0.13327000  0.14647000  1.0
  C  C98  1  0.19224000  0.10765000  0.08039000  1.0
  C  C99  1  0.12221000  0.65769000  0.15597000  1.0
  O  O1  1  0.89181000  0.18551000  0.79617000  1.0
  O  O2  1  0.73611000  0.11524000  0.73451000  1.0
  O  O3  1  0.70480000  0.32852000  0.49712000  1.0
  O  O4  1  0.81296000  0.63013000  0.32947000  1.0
  O  O5  1  0.43934000  0.24582000  0.25835000  1.0
  O  O6  1  0.06881000  0.69103000  0.56267000  1.0
  O  O7  1  0.00914000  0.86913000  0.55961000  1.0
  O  O8  1  0.62707000  0.49930000  0.48278000  1.0
  O  O9  1  0.13154000  0.29928000  0.85191000  1.0
  O  O10  1  0.12827000  0.42245000  0.02611000  1.0
  O  O11  1  0.39232000  0.61313000  0.06045000  1.0
  O  O12  1  0.56968000  0.94484000  0.12103000  1.0
  O  O13  1  0.43515000  0.64145000  0.86328000  1.0
  O  O14  1  0.48854000  0.79557000  0.05560000  1.0
  O  O15  1  0.83722000  0.93813000  0.72396000  1.0
  O  O16  1  0.82647000  0.06782000  0.00898000  1.0
  O  O17  1  0.76635000  0.92161000  0.80469000  1.0
  O  O18  1  0.22136000  0.30930000  0.78501000  1.0
  O  O19  1  0.24223000  0.54716000  0.86088000  1.0
  O  O20  1  0.74709000  0.89630000  0.03563000  1.0
  O  O21  1  0.59685000  0.83733000  0.84152000  1.0
  O  O22  1  0.73395000  0.82767000  0.11774000  1.0
  O  O23  1  0.59207000  0.66563000  0.90333000  1.0
  O  O24  1  0.78711000  0.15893000  0.94092000  1.0
  O  O25  1  0.36933000  0.46256000  0.02726000  1.0
  O  O26  1  0.01253000  0.20919000  0.97732000  1.0
  O  O27  1  0.99812000  0.06141000  0.94675000  1.0
  O  O28  1  0.64636000  0.31821000  0.24384000  1.0
  O  O29  1  0.35797000  0.97971000  0.36671000  1.0
  O  O30  1  0.43086000  0.23629000  0.60244000  1.0
  O  O31  1  0.35014000  0.02033000  0.60692000  1.0
  O  O32  1  0.08811000  0.46382000  0.78724000  1.0
  O  O33  1  0.18098000  0.04669000  0.36950000  1.0
  O  O34  1  0.49012000  0.86160000  0.89489000  1.0
  O  O35  1  0.16642000  0.55112000  0.01359000  1.0
  O  O36  1  0.04880000  0.70950000  0.33537000  1.0
