# generated using pymatgen
data_Zn5H31C36N9O13
_symmetry_space_group_name_H-M   'P 1'
_cell_length_a   15.51200000
_cell_length_b   19.48139000
_cell_length_c   25.35528000
_cell_angle_alpha   90.00900000
_cell_angle_beta   89.97107000
_cell_angle_gamma   89.92604000
_symmetry_Int_Tables_number   1
_chemical_formula_structural   Zn5H31C36N9O13
_chemical_formula_sum   'Zn20 H124 C144 N36 O52'
_cell_volume   7662.23954010
_cell_formula_units_Z   4
loop_
 _symmetry_equiv_pos_site_id
 _symmetry_equiv_pos_as_xyz
  1  'x, y, z'
loop_
 _atom_site_type_symbol
 _atom_site_label
 _atom_site_symmetry_multiplicity
 _atom_site_fract_x
 _atom_site_fract_y
 _atom_site_fract_z
 _atom_site_occupancy
  Zn  Zn0  1  0.04915000  0.83914000  0.23031000  1
  Zn  Zn1  1  0.02402000  0.96647000  0.45184000  1
  Zn  Zn2  1  0.45238000  0.15861000  0.72977000  1
  Zn  Zn3  1  0.47437000  0.03355000  0.95225000  1
  Zn  Zn4  1  0.95113000  0.34126000  0.76906000  1
  Zn  Zn5  1  0.97612000  0.46672000  0.54757000  1
  Zn  Zn6  1  0.54770000  0.65829000  0.27005000  1
  Zn  Zn7  1  0.52543000  0.53358000  0.04680000  1
  Zn  Zn8  1  0.95085000  0.16086000  0.76969000  1
  Zn  Zn9  1  0.97598000  0.03353000  0.54816000  1
  Zn  Zn10  1  0.54762000  0.84139000  0.27023000  1
  Zn  Zn11  1  0.52562000  0.96645000  0.04775000  1
  Zn  Zn12  1  0.04886000  0.65873000  0.23095000  1
  Zn  Zn13  1  0.02388000  0.53327000  0.45244000  1
  Zn  Zn14  1  0.45230000  0.34171000  0.72996000  1
  Zn  Zn15  1  0.47457000  0.46642000  0.95320000  1
  Zn  Zn16  1  0.17801000  0.74871000  0.30771000  1
  Zn  Zn17  1  0.32275000  0.25125000  0.80592000  1
  Zn  Zn18  1  0.82198000  0.25128000  0.69230000  1
  Zn  Zn19  1  0.67725000  0.74875000  0.19409000  1
  H  H20  1  0.89932000  0.94794000  0.32479000  1
  H  H21  1  0.97083000  0.01578000  0.34013000  1
  H  H22  1  0.97272000  0.97796000  0.27549000  1
  H  H23  1  0.23006000  0.80869000  0.41622000  1
  H  H24  1  0.20013000  0.88615000  0.45021000  1
  H  H25  1  0.13726000  0.81198000  0.45849000  1
  H  H26  1  0.96469000  0.86097000  0.65070000  1
  H  H27  1  0.00838000  0.99073000  0.09835000  1
  H  H28  1  0.04759000  0.05279000  0.01549000  1
  H  H29  1  0.19971000  0.04973000  0.98318000  1
  H  H30  1  0.27215000  0.92710000  0.11659000  1
  H  H31  1  0.28377000  0.88907000  0.25788000  1
  H  H32  1  0.38188000  0.91224000  0.29104000  1
  H  H33  1  0.28941000  0.88781000  0.32785000  1
  H  H34  1  0.60114000  0.05190000  0.82490000  1
  H  H35  1  0.52969000  0.98393000  0.84021000  1
  H  H36  1  0.52780000  0.02187000  0.77563000  1
  H  H37  1  0.27008000  0.19195000  0.91563000  1
  H  H38  1  0.29911000  0.11424000  0.94947000  1
  H  H39  1  0.36233000  0.18805000  0.95828000  1
  H  H40  1  0.53605000  0.13908000  0.15168000  1
  H  H41  1  0.49240000  0.00910000  0.59702000  1
  H  H42  1  0.45217000  0.94633000  0.51466000  1
  H  H43  1  0.29984000  0.94990000  0.48284000  1
  H  H44  1  0.22878000  0.07258000  0.61656000  1
  H  H45  1  0.21613000  0.11046000  0.75809000  1
  H  H46  1  0.11764000  0.08771000  0.79114000  1
  H  H47  1  0.21008000  0.11216000  0.82800000  1
  H  H48  1  0.10124000  0.44846000  0.67486000  1
  H  H49  1  0.03044000  0.51698000  0.65958000  1
  H  H50  1  0.02822000  0.47909000  0.72419000  1
  H  H51  1  0.77070000  0.30969000  0.58398000  1
  H  H52  1  0.80012000  0.38687000  0.54950000  1
  H  H53  1  0.86365000  0.31279000  0.54182000  1
  H  H54  1  0.03536000  0.36081000  0.34932000  1
  H  H55  1  0.99150000  0.49093000  0.90185000  1
  H  H56  1  0.95211000  0.55296000  0.98472000  1
  H  H57  1  0.80005000  0.54979000  0.01710000  1
  H  H58  1  0.72791000  0.42720000  0.88365000  1
  H  H59  1  0.71572000  0.39027000  0.74224000  1
  H  H60  1  0.61752000  0.41346000  0.70911000  1
  H  H61  1  0.71001000  0.38899000  0.67229000  1
  H  H62  1  0.39827000  0.55133000  0.17469000  1
  H  H63  1  0.46914000  0.48285000  0.15935000  1
  H  H64  1  0.47115000  0.52062000  0.22400000  1
  H  H65  1  0.72916000  0.69099000  0.08462000  1
  H  H66  1  0.70066000  0.61355000  0.05031000  1
  H  H67  1  0.63675000  0.68723000  0.04210000  1
  H  H68  1  0.46388000  0.63911000  0.84838000  1
  H  H69  1  0.50769000  0.50888000  0.40315000  1
  H  H70  1  0.54799000  0.44616000  0.48555000  1
  H  H71  1  0.70021000  0.44980000  0.51751000  1
  H  H72  1  0.77117000  0.57235000  0.38383000  1
  H  H73  1  0.78441000  0.60932000  0.24203000  1
  H  H74  1  0.88304000  0.58668000  0.20898000  1
  H  H75  1  0.79051000  0.61103000  0.17211000  1
  H  H76  1  0.10068000  0.05206000  0.67521000  1
  H  H77  1  0.02917000  0.98422000  0.65987000  1
  H  H78  1  0.02727000  0.02204000  0.72451000  1
  H  H79  1  0.76994000  0.19131000  0.58378000  1
  H  H80  1  0.79987000  0.11385000  0.54979000  1
  H  H81  1  0.86274000  0.18801000  0.54151000  1
  H  H82  1  0.03530000  0.13903000  0.34931000  1
  H  H83  1  0.99162000  0.00926000  0.90165000  1
  H  H84  1  0.95241000  0.94721000  0.98452000  1
  H  H85  1  0.80029000  0.95027000  0.01683000  1
  H  H86  1  0.72784000  0.07290000  0.88342000  1
  H  H87  1  0.71623000  0.11093000  0.74212000  1
  H  H88  1  0.61811000  0.08776000  0.70896000  1
  H  H89  1  0.71058000  0.11219000  0.67215000  1
  H  H90  1  0.39885000  0.94810000  0.17510000  1
  H  H91  1  0.47031000  0.01606000  0.15979000  1
  H  H92  1  0.47219000  0.97813000  0.22437000  1
  H  H93  1  0.72991000  0.80805000  0.08437000  1
  H  H94  1  0.70088000  0.88576000  0.05053000  1
  H  H95  1  0.63767000  0.81195000  0.04172000  1
  H  H96  1  0.46394000  0.86092000  0.84832000  1
  H  H97  1  0.50759000  0.99090000  0.40298000  1
  H  H98  1  0.54783000  0.05367000  0.48534000  1
  H  H99  1  0.70016000  0.05010000  0.51716000  1
  H  H100  1  0.77121000  0.92742000  0.38344000  1
  H  H101  1  0.78386000  0.88954000  0.24191000  1
  H  H102  1  0.88235000  0.91229000  0.20887000  1
  H  H103  1  0.78991000  0.88784000  0.17200000  1
  H  H104  1  0.89876000  0.55154000  0.32514000  1
  H  H105  1  0.96956000  0.48302000  0.34042000  1
  H  H106  1  0.97178000  0.52091000  0.27582000  1
  H  H107  1  0.22930000  0.69031000  0.41602000  1
  H  H108  1  0.19987000  0.61313000  0.45051000  1
  H  H109  1  0.13634000  0.68721000  0.45818000  1
  H  H110  1  0.96464000  0.63919000  0.65068000  1
  H  H111  1  0.00850000  0.50907000  0.09815000  1
  H  H112  1  0.04788000  0.44704000  0.01528000  1
  H  H113  1  0.19995000  0.45021000  0.98290000  1
  H  H114  1  0.27208000  0.57279000  0.11635000  1
  H  H115  1  0.28428000  0.60973000  0.25776000  1
  H  H116  1  0.38248000  0.58654000  0.29090000  1
  H  H117  1  0.28998000  0.61101000  0.32771000  1
  H  H118  1  0.60172000  0.44867000  0.82531000  1
  H  H119  1  0.53086000  0.51715000  0.84065000  1
  H  H120  1  0.52884000  0.47938000  0.77600000  1
  H  H121  1  0.27083000  0.30901000  0.91538000  1
  H  H122  1  0.29933000  0.38645000  0.94969000  1
  H  H123  1  0.36324000  0.31277000  0.95790000  1
  H  H124  1  0.53611000  0.36089000  0.15162000  1
  H  H125  1  0.49231000  0.49112000  0.59685000  1
  H  H126  1  0.45201000  0.55384000  0.51446000  1
  H  H127  1  0.29979000  0.55020000  0.48250000  1
  H  H128  1  0.22883000  0.42765000  0.61618000  1
  H  H129  1  0.21558000  0.39068000  0.75797000  1
  H  H130  1  0.11695000  0.41332000  0.79103000  1
  H  H131  1  0.20948000  0.38897000  0.82789000  1
  H  H132  1  0.16361000  0.74892000  0.20743000  1
  H  H133  1  0.95273000  0.75010000  0.69988000  1
  H  H134  1  0.00320000  0.75006000  0.50617000  1
  H  H135  1  0.33917000  0.25085000  0.70636000  1
  H  H136  1  0.54861000  0.24999000  0.20074000  1
  H  H137  1  0.49606000  0.24987000  0.00732000  1
  H  H138  1  0.83639000  0.25108000  0.79257000  1
  H  H139  1  0.04727000  0.24990000  0.30012000  1
  H  H140  1  0.99680000  0.24994000  0.49383000  1
  H  H141  1  0.66082000  0.74914000  0.29364000  1
  H  H142  1  0.45139000  0.75000000  0.79926000  1
  H  H143  1  0.50393000  0.75013000  0.99269000  1
  C  C144  1  0.96466000  0.96779000  0.31776000  1
  C  C145  1  0.03046000  0.91765000  0.33599000  1
  C  C146  1  0.12167000  0.86231000  0.38450000  1
  C  C147  1  0.17603000  0.84051000  0.42960000  1
  C  C148  1  0.99277000  0.87991000  0.54702000  1
  C  C149  1  0.98568000  0.81255000  0.57566000  1
  C  C150  1  0.97091000  0.81210000  0.63032000  1
  C  C151  1  0.11539000  0.91466000  0.16034000  1
  C  C152  1  0.13789000  0.95521000  0.11253000  1
  C  C153  1  0.07449000  0.99096000  0.08404000  1
  C  C154  1  0.09683000  0.02544000  0.03772000  1
  C  C155  1  0.18201000  0.02419000  0.01972000  1
  C  C156  1  0.24612000  0.98954000  0.04838000  1
  C  C157  1  0.22332000  0.95509000  0.09468000  1
  C  C158  1  0.33858000  0.98937000  0.03037000  1
  C  C159  1  0.32616000  0.87779000  0.29165000  1
  C  C160  1  0.35551000  0.80527000  0.28975000  1
  C  C161  1  0.53583000  0.03198000  0.81792000  1
  C  C162  1  0.46993000  0.08215000  0.83606000  1
  C  C163  1  0.37850000  0.13804000  0.88410000  1
  C  C164  1  0.32377000  0.15988000  0.92909000  1
  C  C165  1  0.50724000  0.12005000  0.04799000  1
  C  C166  1  0.51431000  0.18742000  0.07672000  1
  C  C167  1  0.52956000  0.18792000  0.13131000  1
  C  C168  1  0.38640000  0.08501000  0.65935000  1
  C  C169  1  0.36305000  0.04468000  0.61170000  1
  C  C170  1  0.42616000  0.00880000  0.58300000  1
  C  C171  1  0.40331000  0.97406000  0.53693000  1
  C  C172  1  0.31803000  0.97553000  0.51924000  1
  C  C173  1  0.25434000  0.01038000  0.54806000  1
  C  C174  1  0.27745000  0.04477000  0.59433000  1
  C  C175  1  0.16192000  0.01060000  0.53033000  1
  C  C176  1  0.17349000  0.12206000  0.79172000  1
  C  C177  1  0.14432000  0.19470000  0.78957000  1
  C  C178  1  0.03612000  0.46892000  0.68190000  1
  C  C179  1  0.96983000  0.41931000  0.66370000  1
  C  C180  1  0.87849000  0.36395000  0.61541000  1
  C  C181  1  0.82446000  0.34153000  0.57042000  1
  C  C182  1  0.00725000  0.37980000  0.45297000  1
  C  C183  1  0.01433000  0.31244000  0.42435000  1
  C  C184  1  0.02911000  0.31196000  0.36969000  1
  C  C185  1  0.88456000  0.41498000  0.83979000  1
  C  C186  1  0.86208000  0.45529000  0.88770000  1
  C  C187  1  0.92538000  0.49108000  0.91617000  1
  C  C188  1  0.90298000  0.52556000  0.96250000  1
  C  C189  1  0.81786000  0.52421000  0.98057000  1
  C  C190  1  0.75391000  0.48950000  0.95191000  1
  C  C191  1  0.77671000  0.45512000  0.90558000  1
  C  C192  1  0.66157000  0.48930000  0.96995000  1
  C  C193  1  0.67330000  0.37896000  0.70850000  1
  C  C194  1  0.64419000  0.30641000  0.71037000  1
  C  C195  1  0.46338000  0.53088000  0.18172000  1
  C  C196  1  0.52975000  0.58063000  0.16378000  1
  C  C197  1  0.62131000  0.63644000  0.11594000  1
  C  C198  1  0.67571000  0.65887000  0.07103000  1
  C  C199  1  0.49270000  0.62019000  0.95203000  1
  C  C200  1  0.48561000  0.68753000  0.92333000  1
  C  C201  1  0.47037000  0.68796000  0.86873000  1
  C  C202  1  0.61334000  0.58495000  0.34090000  1
  C  C203  1  0.63689000  0.54457000  0.38854000  1
  C  C204  1  0.57391000  0.50863000  0.41722000  1
  C  C205  1  0.59678000  0.47389000  0.46330000  1
  C  C206  1  0.68199000  0.47538000  0.48107000  1
  C  C207  1  0.74555000  0.51024000  0.45225000  1
  C  C208  1  0.72244000  0.54461000  0.40597000  1
  C  C209  1  0.83792000  0.51057000  0.46994000  1
  C  C210  1  0.82701000  0.62094000  0.20841000  1
  C  C211  1  0.85589000  0.69357000  0.21055000  1
  C  C212  1  0.03534000  0.03221000  0.68224000  1
  C  C213  1  0.96953000  0.08234000  0.66401000  1
  C  C214  1  0.87832000  0.13769000  0.61550000  1
  C  C215  1  0.82396000  0.15949000  0.57040000  1
  C  C216  1  0.00723000  0.12010000  0.45299000  1
  C  C217  1  0.01431000  0.18745000  0.42434000  1
  C  C218  1  0.02908000  0.18790000  0.36968000  1
  C  C219  1  0.88460000  0.08533000  0.83966000  1
  C  C220  1  0.86210000  0.04479000  0.88747000  1
  C  C221  1  0.92550000  0.00904000  0.91597000  1
  C  C222  1  0.90316000  0.97455000  0.96228000  1
  C  C223  1  0.81799000  0.97581000  0.98029000  1
  C  C224  1  0.75388000  0.01046000  0.95162000  1
  C  C225  1  0.77668000  0.04491000  0.90532000  1
  C  C226  1  0.66142000  0.01063000  0.96964000  1
  C  C227  1  0.67383000  0.12221000  0.70835000  1
  C  C228  1  0.64448000  0.19473000  0.71025000  1
  C  C229  1  0.46416000  0.96802000  0.18208000  1
  C  C230  1  0.53007000  0.91784000  0.16394000  1
  C  C231  1  0.62150000  0.86196000  0.11590000  1
  C  C232  1  0.67623000  0.84012000  0.07091000  1
  C  C233  1  0.49275000  0.87995000  0.95201000  1
  C  C234  1  0.48568000  0.81258000  0.92328000  1
  C  C235  1  0.47044000  0.81208000  0.86869000  1
  C  C236  1  0.61359000  0.91499000  0.34065000  1
  C  C237  1  0.63695000  0.95532000  0.38830000  1
  C  C238  1  0.57384000  0.99120000  0.41701000  1
  C  C239  1  0.59669000  0.02594000  0.46307000  1
  C  C240  1  0.68196000  0.02447000  0.48076000  1
  C  C241  1  0.74565000  0.98962000  0.45194000  1
  C  C242  1  0.72255000  0.95523000  0.40568000  1
  C  C243  1  0.83807000  0.98940000  0.46968000  1
  C  C244  1  0.82650000  0.87794000  0.20828000  1
  C  C245  1  0.85568000  0.80530000  0.21043000  1
  C  C246  1  0.96387000  0.53108000  0.31811000  1
  C  C247  1  0.03016000  0.58069000  0.33630000  1
  C  C248  1  0.12151000  0.63605000  0.38459000  1
  C  C249  1  0.17553000  0.65847000  0.42958000  1
  C  C250  1  0.99274000  0.62020000  0.54704000  1
  C  C251  1  0.98567000  0.68756000  0.57565000  1
  C  C252  1  0.97089000  0.68804000  0.63031000  1
  C  C253  1  0.11544000  0.58502000  0.16021000  1
  C  C254  1  0.13791000  0.54471000  0.11230000  1
  C  C255  1  0.07461000  0.50891000  0.08383000  1
  C  C256  1  0.09701000  0.47444000  0.03750000  1
  C  C257  1  0.18213000  0.47579000  0.01944000  1
  C  C258  1  0.24609000  0.51050000  0.04809000  1
  C  C259  1  0.22329000  0.54487000  0.09443000  1
  C  C260  1  0.33843000  0.51070000  0.03005000  1
  C  C261  1  0.32670000  0.62104000  0.29150000  1
  C  C262  1  0.35581000  0.69359000  0.28963000  1
  C  C263  1  0.53662000  0.46912000  0.81828000  1
  C  C264  1  0.47025000  0.41937000  0.83622000  1
  C  C265  1  0.37869000  0.36356000  0.88406000  1
  C  C266  1  0.32429000  0.34112000  0.92898000  1
  C  C267  1  0.50730000  0.37981000  0.04797000  1
  C  C268  1  0.51438000  0.31247000  0.07668000  1
  C  C269  1  0.52963000  0.31203000  0.13127000  1
  C  C270  1  0.38666000  0.41505000  0.65910000  1
  C  C271  1  0.36310000  0.45543000  0.61146000  1
  C  C272  1  0.42609000  0.49137000  0.58278000  1
  C  C273  1  0.40322000  0.52611000  0.53670000  1
  C  C274  1  0.31800000  0.52462000  0.51893000  1
  C  C275  1  0.25445000  0.48976000  0.54775000  1
  C  C276  1  0.27755000  0.45539000  0.59403000  1
  C  C277  1  0.16207000  0.48942000  0.53007000  1
  C  C278  1  0.17299000  0.37905000  0.79159000  1
  C  C279  1  0.14411000  0.30643000  0.78945000  1
  C  C280  1  0.96395000  0.75008000  0.65751000  1
  C  C281  1  0.99307000  0.75005000  0.54859000  1
  C  C282  1  0.53674000  0.24999000  0.15845000  1
  C  C283  1  0.50663000  0.24993000  0.04969000  1
  C  C284  1  0.03604000  0.24992000  0.34249000  1
  C  C285  1  0.00692000  0.24995000  0.45141000  1
  C  C286  1  0.46326000  0.75001000  0.84155000  1
  C  C287  1  0.49337000  0.75006000  0.95031000  1
  N  N288  1  0.06500000  0.86855000  0.30565000  1
  N  N289  1  0.12323000  0.83325000  0.33666000  1
  N  N290  1  0.06445000  0.91506000  0.38536000  1
  N  N291  1  0.43592000  0.78499000  0.27962000  1
  N  N292  1  0.43550000  0.13093000  0.80537000  1
  N  N293  1  0.37709000  0.16667000  0.83607000  1
  N  N294  1  0.43577000  0.08530000  0.88537000  1
  N  N295  1  0.06384000  0.21511000  0.77972000  1
  N  N296  1  0.93480000  0.37074000  0.69426000  1
  N  N297  1  0.87651000  0.33548000  0.66342000  1
  N  N298  1  0.93597000  0.41636000  0.61434000  1
  N  N299  1  0.56393000  0.28593000  0.72049000  1
  N  N300  1  0.56478000  0.62879000  0.19478000  1
  N  N301  1  0.62325000  0.66441000  0.16417000  1
  N  N302  1  0.56367000  0.58411000  0.11441000  1
  N  N303  1  0.93628000  0.71397000  0.22039000  1
  N  N304  1  0.93499000  0.13145000  0.69436000  1
  N  N305  1  0.87677000  0.16675000  0.66335000  1
  N  N306  1  0.93555000  0.08494000  0.61464000  1
  N  N307  1  0.56408000  0.21500000  0.72038000  1
  N  N308  1  0.56450000  0.86907000  0.19463000  1
  N  N309  1  0.62290000  0.83333000  0.16393000  1
  N  N310  1  0.56423000  0.91470000  0.11463000  1
  N  N311  1  0.93616000  0.78489000  0.22028000  1
  N  N312  1  0.06519000  0.62926000  0.30574000  1
  N  N313  1  0.12349000  0.66452000  0.33658000  1
  N  N314  1  0.06402000  0.58364000  0.38566000  1
  N  N315  1  0.43607000  0.71406000  0.27951000  1
  N  N316  1  0.43521000  0.37121000  0.80523000  1
  N  N317  1  0.37674000  0.33559000  0.83583000  1
  N  N318  1  0.43633000  0.41589000  0.88559000  1
  N  N319  1  0.06371000  0.28603000  0.77961000  1
  N  N320  1  0.30352000  0.74937000  0.29659000  1
  N  N321  1  0.19646000  0.25060000  0.79614000  1
  N  N322  1  0.69647000  0.25063000  0.70341000  1
  N  N323  1  0.80353000  0.74940000  0.20386000  1
  O  O324  1  0.01281000  0.87844000  0.49829000  1
  O  O325  1  0.97826000  0.93396000  0.57421000  1
  O  O326  1  0.39379000  0.96184000  0.06089000  1
  O  O327  1  0.35444000  0.01747000  0.98600000  1
  O  O328  1  0.17259000  0.88139000  0.18533000  1
  O  O329  1  0.03486000  0.91227000  0.17466000  1
  O  O330  1  0.48507000  0.12153000  0.99965000  1
  O  O331  1  0.52383000  0.06599000  0.07467000  1
  O  O332  1  0.10747000  0.03841000  0.56121000  1
  O  O333  1  0.14527000  0.98245000  0.48609000  1
  O  O334  1  0.32993000  0.11822000  0.68515000  1
  O  O335  1  0.46727000  0.08724000  0.67288000  1
  O  O336  1  0.98722000  0.37843000  0.50170000  1
  O  O337  1  0.02172000  0.43385000  0.42581000  1
  O  O338  1  0.60635000  0.46195000  0.93938000  1
  O  O339  1  0.64575000  0.51728000  0.01443000  1
  O  O340  1  0.82751000  0.38172000  0.81471000  1
  O  O341  1  0.96509000  0.41290000  0.82540000  1
  O  O342  1  0.51495000  0.62170000  0.00039000  1
  O  O343  1  0.47615000  0.56604000  0.92553000  1
  O  O344  1  0.89229000  0.53829000  0.43901000  1
  O  O345  1  0.85465000  0.48257000  0.51423000  1
  O  O346  1  0.66970000  0.61810000  0.31499000  1
  O  O347  1  0.53252000  0.58727000  0.32749000  1
  O  O348  1  0.98719000  0.12156000  0.50171000  1
  O  O349  1  0.02174000  0.06604000  0.42578000  1
  O  O350  1  0.60621000  0.03816000  0.93911000  1
  O  O351  1  0.64555000  0.98252000  0.01401000  1
  O  O352  1  0.82740000  0.11860000  0.81467000  1
  O  O353  1  0.96514000  0.08772000  0.82534000  1
  O  O354  1  0.51493000  0.87847000  0.00035000  1
  O  O355  1  0.47617000  0.93401000  0.92534000  1
  O  O356  1  0.89253000  0.96159000  0.43879000  1
  O  O357  1  0.85472000  0.01755000  0.51391000  1
  O  O358  1  0.67007000  0.88177000  0.31485000  1
  O  O359  1  0.53273000  0.91276000  0.32712000  1
  O  O360  1  0.01278000  0.62157000  0.49829000  1
  O  O361  1  0.97828000  0.56616000  0.57419000  1
  O  O362  1  0.39365000  0.53805000  0.06063000  1
  O  O363  1  0.35425000  0.48272000  0.98558000  1
  O  O364  1  0.17248000  0.61828000  0.18529000  1
  O  O365  1  0.03491000  0.58710000  0.17460000  1
  O  O366  1  0.48505000  0.37830000  0.99961000  1
  O  O367  1  0.52384000  0.43396000  0.07447000  1
  O  O368  1  0.10771000  0.46171000  0.56098000  1
  O  O369  1  0.14534000  0.51743000  0.48576000  1
  O  O370  1  0.33030000  0.38190000  0.68501000  1
  O  O371  1  0.46748000  0.41273000  0.67252000  1
  O  O372  1  0.12044000  0.74945000  0.23536000  1
  O  O373  1  0.38148000  0.25023000  0.73474000  1
  O  O374  1  0.87955000  0.25055000  0.76464000  1
  O  O375  1  0.61852000  0.74977000  0.26526000  1
