# generated using pymatgen
data_Cu7H12C18I4N15
_symmetry_space_group_name_H-M   'P 1'
_cell_length_a   14.71039138
_cell_length_b   14.73463000
_cell_length_c   21.65902000
_cell_angle_alpha   89.96214000
_cell_angle_beta   90.00023084
_cell_angle_gamma   119.94640749
_symmetry_Int_Tables_number   1
_chemical_formula_structural   Cu7H12C18I4N15
_chemical_formula_sum   'Cu28 H48 C72 I16 N60'
_cell_volume   4067.86986730
_cell_formula_units_Z   4
loop_
 _symmetry_equiv_pos_site_id
 _symmetry_equiv_pos_as_xyz
  1  'x, y, z'
loop_
 _atom_site_type_symbol
 _atom_site_label
 _atom_site_symmetry_multiplicity
 _atom_site_fract_x
 _atom_site_fract_y
 _atom_site_fract_z
 _atom_site_occupancy
  Cu  Cu1  1  0.86390000  0.38162000  0.25154000  1.0
  Cu  Cu2  1  0.76368000  0.23157000  0.11794000  1.0
  Cu  Cu3  1  0.61773000  0.48186000  0.25162000  1.0
  Cu  Cu4  1  0.76692000  0.53025000  0.11789000  1.0
  Cu  Cu5  1  0.51800000  0.13598000  0.25157000  1.0
  Cu  Cu6  1  0.46909000  0.23637000  0.11809000  1.0
  Cu  Cu7  1  0.38201000  0.86400000  0.24843000  1.0
  Cu  Cu8  1  0.23272000  0.76362000  0.38191000  1.0
  Cu  Cu9  1  0.48228000  0.61838000  0.24846000  1.0
  Cu  Cu10  1  0.53211000  0.76842000  0.38207000  1.0
  Cu  Cu11  1  0.13587000  0.51814000  0.24838000  1.0
  Cu  Cu12  1  0.23666000  0.46973000  0.38211000  1.0
  Cu  Cu13  1  0.13609000  0.61837000  0.74846000  1.0
  Cu  Cu14  1  0.23631000  0.76842000  0.88207000  1.0
  Cu  Cu15  1  0.38226000  0.51813000  0.74838000  1.0
  Cu  Cu16  1  0.23307000  0.46974000  0.88211000  1.0
  Cu  Cu17  1  0.48199000  0.86401000  0.74843000  1.0
  Cu  Cu18  1  0.53090000  0.76362000  0.88191000  1.0
  Cu  Cu19  1  0.61798000  0.13599000  0.75157000  1.0
  Cu  Cu20  1  0.76727000  0.23637000  0.61809000  1.0
  Cu  Cu21  1  0.51771000  0.38161000  0.75154000  1.0
  Cu  Cu22  1  0.46788000  0.23157000  0.61794000  1.0
  Cu  Cu23  1  0.86412000  0.48185000  0.75162000  1.0
  Cu  Cu24  1  0.76333000  0.53026000  0.61789000  1.0
  Cu  Cu25  1  0.66409000  0.33191000  0.19866000  1.0
  Cu  Cu26  1  0.33218000  0.66808000  0.30134000  1.0
  Cu  Cu27  1  0.33590000  0.66808000  0.80134000  1.0
  Cu  Cu28  1  0.66781000  0.33191000  0.69866000  1.0
  H  H1  1  0.15848000  0.47910000  0.00678000  1.0
  H  H2  1  0.01077000  0.33573000  0.84250000  1.0
  H  H3  1  0.83418000  0.25221000  0.89317000  1.0
  H  H4  1  0.82442000  0.27885000  0.00727000  1.0
  H  H5  1  0.52082000  0.67955000  0.00666000  1.0
  H  H6  1  0.66468000  0.67522000  0.84241000  1.0
  H  H7  1  0.74758000  0.58157000  0.89303000  1.0
  H  H8  1  0.72021000  0.54458000  0.00710000  1.0
  H  H9  1  0.31996000  0.84245000  0.00641000  1.0
  H  H10  1  0.32552000  0.99186000  0.84245000  1.0
  H  H11  1  0.41926000  0.16763000  0.89346000  1.0
  H  H12  1  0.45571000  0.17618000  0.00752000  1.0
  H  H13  1  0.47751000  0.15754000  0.49359000  1.0
  H  H14  1  0.33365000  0.00813000  0.65755000  1.0
  H  H15  1  0.25163000  0.83237000  0.60654000  1.0
  H  H16  1  0.27952000  0.82380000  0.49248000  1.0
  H  H17  1  0.67938000  0.52089000  0.49322000  1.0
  H  H18  1  0.67504000  0.66427000  0.65750000  1.0
  H  H19  1  0.58196000  0.74777000  0.60683000  1.0
  H  H20  1  0.54556000  0.72113000  0.49273000  1.0
  H  H21  1  0.84127000  0.32045000  0.49334000  1.0
  H  H22  1  0.98946000  0.32478000  0.65760000  1.0
  H  H23  1  0.16600000  0.41842000  0.60697000  1.0
  H  H24  1  0.17562000  0.45540000  0.49290000  1.0
  H  H25  1  0.84151000  0.52089000  0.99322000  1.0
  H  H26  1  0.98922000  0.66426000  0.15750000  1.0
  H  H27  1  0.16581000  0.74778000  0.10683000  1.0
  H  H28  1  0.17557000  0.72113000  0.99273000  1.0
  H  H29  1  0.47917000  0.32044000  0.99334000  1.0
  H  H30  1  0.33531000  0.32477000  0.15760000  1.0
  H  H31  1  0.25241000  0.41842000  0.10697000  1.0
  H  H32  1  0.27978000  0.45541000  0.99290000  1.0
  H  H33  1  0.68003000  0.15754000  0.99359000  1.0
  H  H34  1  0.67447000  0.00813000  0.15755000  1.0
  H  H35  1  0.58073000  0.83236000  0.10654000  1.0
  H  H36  1  0.54428000  0.82381000  0.99248000  1.0
  H  H37  1  0.52248000  0.84245000  0.50641000  1.0
  H  H38  1  0.66634000  0.99186000  0.34245000  1.0
  H  H39  1  0.74836000  0.16762000  0.39346000  1.0
  H  H40  1  0.72047000  0.17619000  0.50752000  1.0
  H  H41  1  0.32061000  0.47909000  0.50678000  1.0
  H  H42  1  0.32495000  0.33572000  0.34250000  1.0
  H  H43  1  0.41803000  0.25221000  0.39317000  1.0
  H  H44  1  0.45443000  0.27886000  0.50727000  1.0
  H  H45  1  0.15872000  0.67954000  0.50666000  1.0
  H  H46  1  0.01053000  0.67521000  0.34241000  1.0
  H  H47  1  0.83399000  0.58157000  0.39303000  1.0
  H  H48  1  0.82437000  0.54459000  0.50710000  1.0
  C  C1  1  0.08641000  0.42484000  0.98309000  1.0
  C  C2  1  0.99404000  0.39410000  0.08242000  1.0
  C  C3  1  0.99193000  0.37637000  0.01610000  1.0
  C  C4  1  0.00275000  0.34605000  0.89150000  1.0
  C  C5  1  0.90497000  0.29924000  0.92014000  1.0
  C  C6  1  0.89926000  0.31373000  0.98321000  1.0
  C  C7  1  0.57503000  0.66152000  0.98300000  1.0
  C  C8  1  0.60526000  0.59939000  0.08230000  1.0
  C  C9  1  0.62315000  0.61511000  0.01599000  1.0
  C  C10  1  0.65409000  0.65668000  0.89139000  1.0
  C  C11  1  0.70053000  0.60534000  0.92001000  1.0
  C  C12  1  0.68568000  0.58487000  0.98306000  1.0
  C  C13  1  0.33829000  0.91475000  0.98288000  1.0
  C  C14  1  0.40039000  0.00626000  0.08236000  1.0
  C  C15  1  0.38480000  0.00881000  0.01605000  1.0
  C  C16  1  0.34376000  0.99924000  0.89146000  1.0
  C  C17  1  0.39517000  0.09663000  0.92027000  1.0
  C  C18  1  0.41538000  0.10172000  0.98332000  1.0
  C  C19  1  0.42353000  0.08523000  0.51712000  1.0
  C  C20  1  0.39412000  0.99372000  0.41765000  1.0
  C  C21  1  0.37598000  0.99117000  0.48396000  1.0
  C  C22  1  0.34452000  0.00076000  0.60854000  1.0
  C  C23  1  0.29853000  0.90336000  0.57973000  1.0
  C  C24  1  0.31365000  0.89826000  0.51668000  1.0
  C  C25  1  0.66156000  0.57515000  0.51691000  1.0
  C  C26  1  0.59994000  0.60589000  0.41758000  1.0
  C  C27  1  0.61556000  0.62363000  0.48390000  1.0
  C  C28  1  0.65670000  0.65394000  0.60850000  1.0
  C  C29  1  0.60573000  0.70076000  0.57987000  1.0
  C  C30  1  0.58553000  0.68627000  0.51680000  1.0
  C  C31  1  0.91350000  0.33846000  0.51701000  1.0
  C  C32  1  0.00586000  0.40059000  0.41770000  1.0
  C  C33  1  0.00803000  0.38487000  0.48402000  1.0
  C  C34  1  0.99741000  0.34332000  0.60861000  1.0
  C  C35  1  0.09518000  0.39464000  0.57999000  1.0
  C  C36  1  0.10080000  0.41512000  0.51694000  1.0
  C  C37  1  0.91358000  0.57515000  0.01691000  1.0
  C  C38  1  0.00595000  0.60589000  0.91758000  1.0
  C  C39  1  0.00806000  0.62362000  0.98390000  1.0
  C  C40  1  0.99724000  0.65394000  0.10850000  1.0
  C  C41  1  0.09502000  0.70075000  0.07987000  1.0
  C  C42  1  0.10073000  0.68626000  0.01680000  1.0
  C  C43  1  0.42495000  0.33846000  0.01701000  1.0
  C  C44  1  0.39473000  0.40059000  0.91770000  1.0
  C  C45  1  0.37684000  0.38488000  0.98402000  1.0
  C  C46  1  0.34590000  0.34331000  0.10861000  1.0
  C  C47  1  0.29946000  0.39465000  0.07999000  1.0
  C  C48  1  0.31431000  0.41512000  0.01694000  1.0
  C  C49  1  0.66170000  0.08523000  0.01713000  1.0
  C  C50  1  0.59960000  0.99372000  0.91764000  1.0
  C  C51  1  0.61519000  0.99118000  0.98396000  1.0
  C  C52  1  0.65623000  0.00075000  0.10854000  1.0
  C  C53  1  0.60482000  0.90335000  0.07974000  1.0
  C  C54  1  0.58461000  0.89827000  0.01668000  1.0
  C  C55  1  0.57646000  0.91476000  0.48288000  1.0
  C  C56  1  0.60587000  0.00627000  0.58236000  1.0
  C  C57  1  0.62401000  0.00882000  0.51604000  1.0
  C  C58  1  0.65547000  0.99923000  0.39146000  1.0
  C  C59  1  0.70146000  0.09663000  0.42027000  1.0
  C  C60  1  0.68634000  0.10173000  0.48333000  1.0
  C  C61  1  0.33843000  0.42484000  0.48309000  1.0
  C  C62  1  0.40005000  0.39410000  0.58242000  1.0
  C  C63  1  0.38443000  0.37636000  0.51610000  1.0
  C  C64  1  0.34329000  0.34605000  0.39150000  1.0
  C  C65  1  0.39426000  0.29923000  0.42014000  1.0
  C  C66  1  0.41446000  0.31372000  0.48321000  1.0
  C  C67  1  0.08648000  0.66151000  0.48300000  1.0
  C  C68  1  0.99413000  0.59940000  0.58230000  1.0
  C  C69  1  0.99196000  0.61512000  0.51598000  1.0
  C  C70  1  0.00258000  0.65667000  0.39139000  1.0
  C  C71  1  0.90481000  0.60535000  0.42002000  1.0
  C  C72  1  0.89919000  0.58487000  0.48306000  1.0
  I  I1  1  0.71402000  0.18320000  0.24307000  1.0
  I  I2  1  0.81565000  0.52930000  0.24283000  1.0
  I  I3  1  0.46882000  0.28559000  0.24328000  1.0
  I  I4  1  0.18322000  0.71438000  0.25672000  1.0
  I  I5  1  0.53082000  0.81680000  0.25693000  1.0
  I  I6  1  0.28635000  0.47069000  0.25717000  1.0
  I  I7  1  0.28597000  0.81679000  0.75693000  1.0
  I  I8  1  0.18434000  0.47069000  0.75717000  1.0
  I  I9  1  0.53117000  0.71440000  0.75672000  1.0
  I  I10  1  0.81677000  0.28560000  0.74328000  1.0
  I  I11  1  0.46917000  0.18319000  0.74307000  1.0
  I  I12  1  0.71364000  0.52929000  0.74283000  1.0
  I  I13  1  0.66708000  0.33269000  0.07194000  1.0
  I  I14  1  0.33438000  0.66729000  0.42806000  1.0
  I  I15  1  0.33291000  0.66730000  0.92806000  1.0
  I  I16  1  0.66561000  0.33270000  0.57194000  1.0
  N  N1  1  0.94945000  0.39010000  0.17723000  1.0
  N  N2  1  0.05212000  0.45774000  0.17157000  1.0
  N  N3  1  0.08207000  0.46188000  0.11290000  1.0
  N  N4  1  0.91108000  0.34727000  0.12161000  1.0
  N  N5  1  0.09305000  0.40898000  0.92233000  1.0
  N  N6  1  0.60837000  0.55785000  0.17701000  1.0
  N  N7  1  0.54219000  0.59476000  0.17156000  1.0
  N  N8  1  0.53861000  0.62120000  0.11295000  1.0
  N  N9  1  0.65087000  0.56170000  0.12132000  1.0
  N  N10  1  0.59119000  0.68417000  0.92224000  1.0
  N  N11  1  0.44160000  0.05050000  0.17713000  1.0
  N  N12  1  0.40522000  0.94772000  0.17156000  1.0
  N  N13  1  0.37899000  0.91797000  0.11291000  1.0
  N  N14  1  0.43763000  0.08918000  0.12148000  1.0
  N  N15  1  0.31585000  0.90865000  0.92210000  1.0
  N  N16  1  0.39109000  0.94948000  0.32288000  1.0
  N  N17  1  0.45750000  0.05227000  0.32844000  1.0
  N  N18  1  0.46101000  0.08201000  0.38709000  1.0
  N  N19  1  0.34844000  0.91080000  0.37852000  1.0
  N  N20  1  0.40719000  0.09133000  0.57790000  1.0
  N  N21  1  0.55935000  0.60989000  0.32277000  1.0
  N  N22  1  0.59438000  0.54225000  0.32843000  1.0
  N  N23  1  0.62019000  0.53811000  0.38711000  1.0
  N  N24  1  0.56380000  0.65272000  0.37839000  1.0
  N  N25  1  0.68407000  0.59102000  0.57767000  1.0
  N  N26  1  0.05052000  0.44214000  0.32299000  1.0
  N  N27  1  0.94743000  0.40523000  0.32844000  1.0
  N  N28  1  0.91741000  0.37879000  0.38705000  1.0
  N  N29  1  0.08917000  0.43829000  0.37868000  1.0
  N  N30  1  0.90702000  0.31583000  0.57776000  1.0
  N  N31  1  0.05054000  0.60989000  0.82277000  1.0
  N  N32  1  0.94787000  0.54225000  0.82843000  1.0
  N  N33  1  0.91792000  0.53811000  0.88711000  1.0
  N  N34  1  0.08891000  0.65271000  0.87839000  1.0
  N  N35  1  0.90694000  0.59101000  0.07768000  1.0
  N  N36  1  0.39162000  0.44214000  0.82299000  1.0
  N  N37  1  0.45780000  0.40523000  0.82844000  1.0
  N  N38  1  0.46138000  0.37879000  0.88705000  1.0
  N  N39  1  0.34912000  0.43829000  0.87868000  1.0
  N  N40  1  0.40880000  0.31582000  0.07776000  1.0
  N  N41  1  0.55839000  0.94949000  0.82288000  1.0
  N  N42  1  0.59477000  0.05227000  0.82844000  1.0
  N  N43  1  0.62100000  0.08202000  0.88709000  1.0
  N  N44  1  0.56236000  0.91081000  0.87852000  1.0
  N  N45  1  0.68414000  0.09133000  0.07790000  1.0
  N  N46  1  0.60890000  0.05051000  0.67712000  1.0
  N  N47  1  0.54249000  0.94772000  0.67156000  1.0
  N  N48  1  0.53898000  0.91798000  0.61291000  1.0
  N  N49  1  0.65155000  0.08919000  0.62148000  1.0
  N  N50  1  0.59280000  0.90866000  0.42210000  1.0
  N  N51  1  0.44064000  0.39009000  0.67723000  1.0
  N  N52  1  0.40561000  0.45774000  0.67157000  1.0
  N  N53  1  0.37980000  0.46188000  0.61290000  1.0
  N  N54  1  0.43619000  0.34727000  0.62161000  1.0
  N  N55  1  0.31592000  0.40897000  0.42233000  1.0
  N  N56  1  0.94947000  0.55785000  0.67701000  1.0
  N  N57  1  0.05256000  0.59475000  0.67156000  1.0
  N  N58  1  0.08258000  0.62120000  0.61295000  1.0
  N  N59  1  0.91082000  0.56169000  0.62132000  1.0
  N  N60  1  0.09297000  0.68416000  0.42224000  1.0
