# generated using pymatgen
data_CuH12C12O7
_symmetry_space_group_name_H-M   'P 1'
_cell_length_a   11.84811000
_cell_length_b   18.44717000
_cell_length_c   18.84673000
_cell_angle_alpha   90.00721000
_cell_angle_beta   90.00000000
_cell_angle_gamma   90.00000000
_symmetry_Int_Tables_number   1
_chemical_formula_structural   CuH12C12O7
_chemical_formula_sum   'Cu8 H96 C96 O56'
_cell_volume   4119.21853550
_cell_formula_units_Z   8
loop_
 _symmetry_equiv_pos_site_id
 _symmetry_equiv_pos_as_xyz
  1  'x, y, z'
loop_
 _atom_site_type_symbol
 _atom_site_label
 _atom_site_symmetry_multiplicity
 _atom_site_fract_x
 _atom_site_fract_y
 _atom_site_fract_z
 _atom_site_occupancy
  Cu  Cu1  1  0.08932000  0.27909000  0.27065000  1.0
  Cu  Cu2  1  0.93884000  0.21254000  0.20619000  1.0
  Cu  Cu3  1  0.08932000  0.72091000  0.72935000  1.0
  Cu  Cu4  1  0.93884000  0.78745000  0.79382000  1.0
  Cu  Cu5  1  0.91110000  0.21976000  0.77042000  1.0
  Cu  Cu6  1  0.06219000  0.28605000  0.70582000  1.0
  Cu  Cu7  1  0.91110000  0.78024000  0.22958000  1.0
  Cu  Cu8  1  0.06219000  0.71395000  0.29418000  1.0
  H  H1  1  0.96687000  0.49561000  0.25149000  1.0
  H  H2  1  0.66874000  0.37517000  0.19413000  1.0
  H  H3  1  0.65597000  0.60881000  0.21397000  1.0
  H  H4  1  0.48334000  0.57116000  0.25421000  1.0
  H  H5  1  0.47838000  0.58589000  0.15990000  1.0
  H  H6  1  0.32123000  0.49390000  0.15140000  1.0
  H  H7  1  0.28815000  0.57112000  0.20413000  1.0
  H  H8  1  0.17158000  0.52897000  0.29485000  1.0
  H  H9  1  0.15130000  0.45591000  0.23351000  1.0
  H  H10  1  0.10129000  0.41860000  0.35724000  1.0
  H  H11  1  0.24224000  0.43877000  0.38563000  1.0
  H  H12  1  0.02337000  0.24864000  0.98811000  1.0
  H  H13  1  0.29987000  0.34816000  0.09890000  1.0
  H  H14  1  0.29398000  0.34611000  0.86971000  1.0
  H  H15  1  0.45762000  0.45797000  0.05692000  1.0
  H  H16  1  0.46942000  0.36320000  0.07608000  1.0
  H  H17  1  0.65639000  0.42730000  0.05088000  1.0
  H  H18  1  0.61206000  0.43421000  0.96066000  1.0
  H  H19  1  0.75529000  0.32595000  0.92199000  1.0
  H  H20  1  0.80153000  0.35101000  0.00867000  1.0
  H  H21  1  0.75326000  0.22887000  0.05433000  1.0
  H  H22  1  0.86105000  0.22689000  0.98877000  1.0
  H  H23  1  0.28845000  0.35568000  0.28749000  1.0
  H  H24  1  0.72439000  0.18587000  0.91065000  1.0
  H  H25  1  0.96687000  0.50439000  0.74851000  1.0
  H  H26  1  0.66874000  0.62483000  0.80587000  1.0
  H  H27  1  0.65597000  0.39119000  0.78603000  1.0
  H  H28  1  0.48334000  0.42883000  0.74579000  1.0
  H  H29  1  0.47838000  0.41411000  0.84010000  1.0
  H  H30  1  0.32123000  0.50610000  0.84860000  1.0
  H  H31  1  0.28815000  0.42888000  0.79587000  1.0
  H  H32  1  0.17158000  0.47103000  0.70516000  1.0
  H  H33  1  0.15130000  0.54409000  0.76650000  1.0
  H  H34  1  0.10129000  0.58140000  0.64276000  1.0
  H  H35  1  0.24224000  0.56123000  0.61438000  1.0
  H  H36  1  0.02337000  0.75136000  0.01190000  1.0
  H  H37  1  0.29987000  0.65184000  0.90110000  1.0
  H  H38  1  0.29398000  0.65389000  0.13029000  1.0
  H  H39  1  0.45762000  0.54203000  0.94308000  1.0
  H  H40  1  0.46942000  0.63680000  0.92392000  1.0
  H  H41  1  0.65639000  0.57270000  0.94912000  1.0
  H  H42  1  0.61206000  0.56579000  0.03935000  1.0
  H  H43  1  0.75529000  0.67405000  0.07801000  1.0
  H  H44  1  0.80153000  0.64898000  0.99133000  1.0
  H  H45  1  0.75326000  0.77113000  0.94567000  1.0
  H  H46  1  0.86105000  0.77311000  0.01123000  1.0
  H  H47  1  0.28845000  0.64431000  0.71251000  1.0
  H  H48  1  0.72439000  0.81413000  0.08936000  1.0
  H  H49  1  0.03681000  0.00606000  0.75299000  1.0
  H  H50  1  0.33640000  0.12430000  0.69454000  1.0
  H  H51  1  0.34549000  0.89063000  0.71472000  1.0
  H  H52  1  0.51868000  0.92693000  0.75448000  1.0
  H  H53  1  0.52379000  0.91222000  0.66019000  1.0
  H  H54  1  0.68153000  0.00316000  0.65139000  1.0
  H  H55  1  0.71434000  0.92638000  0.70480000  1.0
  H  H56  1  0.83196000  0.96944000  0.79447000  1.0
  H  H57  1  0.85168000  0.04265000  0.73329000  1.0
  H  H58  1  0.90053000  0.08038000  0.85747000  1.0
  H  H59  1  0.75964000  0.05890000  0.88523000  1.0
  H  H60  1  0.97605000  0.24942000  0.48813000  1.0
  H  H61  1  0.69893000  0.15103000  0.59918000  1.0
  H  H62  1  0.70319000  0.15411000  0.37005000  1.0
  H  H63  1  0.53894000  0.04192000  0.55567000  1.0
  H  H64  1  0.53041000  0.13595000  0.57792000  1.0
  H  H65  1  0.34151000  0.07141000  0.55137000  1.0
  H  H66  1  0.38380000  0.07242000  0.46054000  1.0
  H  H67  1  0.24612000  0.17495000  0.42655000  1.0
  H  H68  1  0.19286000  0.15187000  0.51237000  1.0
  H  H69  1  0.23568000  0.27659000  0.55551000  1.0
  H  H70  1  0.13341000  0.27402000  0.48662000  1.0
  H  H71  1  0.71249000  0.14179000  0.78731000  1.0
  H  H72  1  0.27383000  0.31366000  0.41110000  1.0
  H  H73  1  0.03681000  0.99394000  0.24701000  1.0
  H  H74  1  0.33640000  0.87569000  0.30546000  1.0
  H  H75  1  0.34549000  0.10936000  0.28529000  1.0
  H  H76  1  0.51868000  0.07307000  0.24553000  1.0
  H  H77  1  0.52379000  0.08778000  0.33981000  1.0
  H  H78  1  0.68153000  0.99684000  0.34861000  1.0
  H  H79  1  0.71434000  0.07362000  0.29521000  1.0
  H  H80  1  0.83196000  0.03056000  0.20553000  1.0
  H  H81  1  0.85168000  0.95735000  0.26671000  1.0
  H  H82  1  0.90053000  0.91962000  0.14254000  1.0
  H  H83  1  0.75964000  0.94110000  0.11477000  1.0
  H  H84  1  0.97605000  0.75057000  0.51187000  1.0
  H  H85  1  0.69893000  0.84897000  0.40082000  1.0
  H  H86  1  0.70319000  0.84589000  0.62995000  1.0
  H  H87  1  0.53894000  0.95808000  0.44433000  1.0
  H  H88  1  0.53041000  0.86405000  0.42209000  1.0
  H  H89  1  0.34151000  0.92858000  0.44863000  1.0
  H  H90  1  0.38380000  0.92758000  0.53946000  1.0
  H  H91  1  0.24612000  0.82505000  0.57345000  1.0
  H  H92  1  0.19286000  0.84812000  0.48763000  1.0
  H  H93  1  0.23568000  0.72341000  0.44449000  1.0
  H  H94  1  0.13341000  0.72598000  0.51338000  1.0
  H  H95  1  0.71249000  0.85821000  0.21269000  1.0
  H  H96  1  0.27383000  0.68634000  0.58891000  1.0
  C  C1  1  0.81685000  0.55869000  0.23346000  1.0
  C  C2  1  0.87825000  0.49431000  0.23728000  1.0
  C  C3  1  0.82522000  0.42831000  0.22164000  1.0
  C  C4  1  0.71029000  0.42652000  0.20507000  1.0
  C  C5  1  0.64747000  0.49112000  0.20474000  1.0
  C  C6  1  0.70124000  0.55771000  0.21665000  1.0
  C  C7  1  0.87596000  0.62899000  0.24688000  1.0
  C  C8  1  0.89224000  0.35980000  0.22516000  1.0
  C  C9  1  0.46362000  0.54626000  0.20268000  1.0
  C  C10  1  0.34155000  0.52216000  0.20136000  1.0
  C  C11  1  0.20178000  0.47462000  0.27907000  1.0
  C  C12  1  0.18956000  0.42251000  0.34042000  1.0
  C  C13  1  0.15128000  0.29742000  0.92169000  1.0
  C  C14  1  0.10310000  0.27748000  0.98664000  1.0
  C  C15  1  0.15847000  0.29553000  0.04957000  1.0
  C  C16  1  0.26111000  0.33394000  0.04860000  1.0
  C  C17  1  0.31002000  0.35237000  0.98343000  1.0
  C  C18  1  0.25505000  0.33321000  0.92022000  1.0
  C  C19  1  0.09138000  0.28181000  0.85367000  1.0
  C  C20  1  0.10682000  0.27506000  0.11904000  1.0
  C  C21  1  0.48020000  0.40471000  0.03498000  1.0
  C  C22  1  0.60174000  0.40247000  0.00996000  1.0
  C  C23  1  0.74349000  0.31517000  0.97915000  1.0
  C  C24  1  0.77046000  0.23670000  0.99757000  1.0
  C  C25  1  0.81685000  0.44130000  0.76654000  1.0
  C  C26  1  0.87825000  0.50569000  0.76272000  1.0
  C  C27  1  0.82522000  0.57168000  0.77836000  1.0
  C  C28  1  0.71029000  0.57347000  0.79493000  1.0
  C  C29  1  0.64747000  0.50887000  0.79526000  1.0
  C  C30  1  0.70124000  0.44229000  0.78335000  1.0
  C  C31  1  0.87596000  0.37100000  0.75312000  1.0
  C  C32  1  0.89224000  0.64020000  0.77484000  1.0
  C  C33  1  0.46362000  0.45374000  0.79733000  1.0
  C  C34  1  0.34155000  0.47784000  0.79864000  1.0
  C  C35  1  0.20178000  0.52537000  0.72093000  1.0
  C  C36  1  0.18956000  0.57749000  0.65959000  1.0
  C  C37  1  0.15128000  0.70258000  0.07831000  1.0
  C  C38  1  0.10310000  0.72252000  0.01336000  1.0
  C  C39  1  0.15847000  0.70446000  0.95043000  1.0
  C  C40  1  0.26111000  0.66605000  0.95140000  1.0
  C  C41  1  0.31002000  0.64762000  0.01658000  1.0
  C  C42  1  0.25505000  0.66679000  0.07978000  1.0
  C  C43  1  0.09138000  0.71819000  0.14633000  1.0
  C  C44  1  0.10682000  0.72494000  0.88096000  1.0
  C  C45  1  0.48020000  0.59529000  0.96502000  1.0
  C  C46  1  0.60174000  0.59752000  0.99005000  1.0
  C  C47  1  0.74349000  0.68483000  0.02086000  1.0
  C  C48  1  0.77046000  0.76330000  0.00243000  1.0
  C  C49  1  0.18557000  0.94191000  0.73467000  1.0
  C  C50  1  0.12538000  0.00667000  0.73871000  1.0
  C  C51  1  0.17938000  0.07218000  0.72277000  1.0
  C  C52  1  0.29420000  0.07326000  0.70593000  1.0
  C  C53  1  0.35589000  0.00820000  0.70552000  1.0
  C  C54  1  0.30109000  0.94204000  0.71764000  1.0
  C  C55  1  0.12475000  0.87222000  0.74731000  1.0
  C  C56  1  0.11254000  0.14068000  0.72543000  1.0
  C  C57  1  0.53890000  0.95178000  0.70300000  1.0
  C  C58  1  0.66122000  0.97542000  0.70162000  1.0
  C  C59  1  0.80136000  0.02371000  0.77883000  1.0
  C  C60  1  0.81248000  0.07582000  0.84031000  1.0
  C  C61  1  0.84739000  0.20148000  0.42172000  1.0
  C  C62  1  0.89601000  0.22099000  0.48669000  1.0
  C  C63  1  0.84086000  0.20301000  0.54972000  1.0
  C  C64  1  0.73760000  0.16527000  0.54886000  1.0
  C  C65  1  0.68775000  0.14779000  0.48372000  1.0
  C  C66  1  0.74287000  0.16658000  0.42044000  1.0
  C  C67  1  0.90759000  0.21672000  0.35365000  1.0
  C  C68  1  0.89314000  0.22313000  0.61913000  1.0
  C  C69  1  0.51711000  0.09604000  0.53559000  1.0
  C  C70  1  0.39490000  0.09994000  0.51210000  1.0
  C  C71  1  0.25311000  0.18706000  0.48372000  1.0
  C  C72  1  0.22352000  0.26589000  0.49868000  1.0
  C  C73  1  0.18557000  0.05809000  0.26533000  1.0
  C  C74  1  0.12538000  0.99333000  0.26129000  1.0
  C  C75  1  0.17938000  0.92782000  0.27723000  1.0
  C  C76  1  0.29420000  0.92674000  0.29407000  1.0
  C  C77  1  0.35589000  0.99180000  0.29448000  1.0
  C  C78  1  0.30109000  0.05796000  0.28236000  1.0
  C  C79  1  0.12475000  0.12777000  0.25269000  1.0
  C  C80  1  0.11254000  0.85931000  0.27458000  1.0
  C  C81  1  0.53890000  0.04822000  0.29701000  1.0
  C  C82  1  0.66122000  0.02458000  0.29839000  1.0
  C  C83  1  0.80136000  0.97629000  0.22117000  1.0
  C  C84  1  0.81248000  0.92417000  0.15969000  1.0
  C  C85  1  0.84739000  0.79852000  0.57828000  1.0
  C  C86  1  0.89601000  0.77901000  0.51332000  1.0
  C  C87  1  0.84086000  0.79699000  0.45029000  1.0
  C  C88  1  0.73760000  0.83472000  0.45114000  1.0
  C  C89  1  0.68775000  0.85221000  0.51629000  1.0
  C  C90  1  0.74287000  0.83342000  0.57956000  1.0
  C  C91  1  0.90759000  0.78328000  0.64636000  1.0
  C  C92  1  0.89314000  0.77687000  0.38087000  1.0
  C  C93  1  0.51711000  0.90396000  0.46441000  1.0
  C  C94  1  0.39490000  0.90006000  0.48790000  1.0
  C  C95  1  0.25311000  0.81294000  0.51628000  1.0
  C  C96  1  0.22352000  0.73411000  0.50132000  1.0
  O  O1  1  0.85039000  0.30294000  0.19655000  1.0
  O  O2  1  0.98736000  0.36369000  0.25712000  1.0
  O  O3  1  0.97128000  0.62544000  0.27889000  1.0
  O  O4  1  0.82799000  0.68682000  0.22479000  1.0
  O  O5  1  0.53418000  0.48328000  0.19227000  1.0
  O  O6  1  0.31972000  0.47644000  0.26119000  1.0
  O  O7  1  0.22327000  0.34933000  0.31870000  1.0
  O  O8  1  0.13785000  0.30548000  0.79670000  1.0
  O  O9  1  0.99820000  0.24714000  0.85729000  1.0
  O  O10  1  0.01747000  0.23601000  0.11733000  1.0
  O  O11  1  0.15525000  0.29848000  0.17516000  1.0
  O  O12  1  0.40927000  0.38918000  0.97440000  1.0
  O  O13  1  0.62886000  0.32818000  0.99999000  1.0
  O  O14  1  0.70272000  0.18504000  0.96072000  1.0
  O  O15  1  0.85039000  0.69706000  0.80345000  1.0
  O  O16  1  0.98736000  0.63631000  0.74288000  1.0
  O  O17  1  0.97128000  0.37456000  0.72111000  1.0
  O  O18  1  0.82799000  0.31318000  0.77521000  1.0
  O  O19  1  0.53418000  0.51671000  0.80773000  1.0
  O  O20  1  0.31972000  0.52356000  0.73881000  1.0
  O  O21  1  0.22327000  0.65067000  0.68130000  1.0
  O  O22  1  0.13785000  0.69452000  0.20331000  1.0
  O  O23  1  0.99820000  0.75286000  0.14271000  1.0
  O  O24  1  0.01747000  0.76398000  0.88267000  1.0
  O  O25  1  0.15525000  0.70152000  0.82484000  1.0
  O  O26  1  0.40927000  0.61081000  0.02561000  1.0
  O  O27  1  0.62886000  0.67181000  0.00001000  1.0
  O  O28  1  0.70272000  0.81496000  0.03928000  1.0
  O  O29  1  0.15458000  0.19705000  0.69616000  1.0
  O  O30  1  0.01721000  0.13727000  0.75710000  1.0
  O  O31  1  0.02909000  0.87625000  0.77885000  1.0
  O  O32  1  0.17196000  0.81431000  0.72476000  1.0
  O  O33  1  0.46909000  0.01506000  0.69242000  1.0
  O  O34  1  0.68351000  0.02162000  0.76103000  1.0
  O  O35  1  0.77732000  0.14876000  0.81868000  1.0
  O  O36  1  0.86159000  0.19278000  0.29662000  1.0
  O  O37  1  0.00078000  0.25140000  0.35723000  1.0
  O  O38  1  0.98270000  0.26200000  0.61733000  1.0
  O  O39  1  0.84488000  0.19970000  0.67529000  1.0
  O  O40  1  0.58724000  0.11250000  0.47470000  1.0
  O  O41  1  0.36615000  0.17452000  0.50769000  1.0
  O  O42  1  0.29224000  0.31682000  0.46151000  1.0
  O  O43  1  0.15458000  0.80294000  0.30384000  1.0
  O  O44  1  0.01721000  0.86273000  0.24290000  1.0
  O  O45  1  0.02909000  0.12374000  0.22115000  1.0
  O  O46  1  0.17196000  0.18569000  0.27524000  1.0
  O  O47  1  0.46909000  0.98494000  0.30759000  1.0
  O  O48  1  0.68351000  0.97838000  0.23897000  1.0
  O  O49  1  0.77732000  0.85124000  0.18132000  1.0
  O  O50  1  0.86159000  0.80722000  0.70338000  1.0
  O  O51  1  0.00078000  0.74860000  0.64277000  1.0
  O  O52  1  0.98270000  0.73800000  0.38267000  1.0
  O  O53  1  0.84488000  0.80030000  0.32471000  1.0
  O  O54  1  0.58724000  0.88750000  0.52530000  1.0
  O  O55  1  0.36615000  0.82548000  0.49231000  1.0
  O  O56  1  0.29224000  0.68318000  0.53850000  1.0
