# generated using pymatgen
data_CuH8C12(NO2)2
_symmetry_space_group_name_H-M   'P 1'
_cell_length_a   4.53149050
_cell_length_b   10.95691031
_cell_length_c   12.81187522
_cell_angle_alpha   89.31240908
_cell_angle_beta   79.81335046
_cell_angle_gamma   86.10512503
_symmetry_Int_Tables_number   1
_chemical_formula_structural   CuH8C12(NO2)2
_chemical_formula_sum   'Cu2 H16 C24 N4 O8'
_cell_volume   624.65076249
_cell_formula_units_Z   2
loop_
 _symmetry_equiv_pos_site_id
 _symmetry_equiv_pos_as_xyz
  1  'x, y, z'
loop_
 _atom_site_type_symbol
 _atom_site_label
 _atom_site_symmetry_multiplicity
 _atom_site_fract_x
 _atom_site_fract_y
 _atom_site_fract_z
 _atom_site_occupancy
  C  C1  1  0.24599184  0.51310535  0.61224514  1.0
  C  C2  1  0.39822197  0.44611602  0.52436547  1.0
  C  C3  1  0.67587966  0.47831280  0.47256868  1.0
  C  C4  1  0.80040245  0.57982485  0.50999609  1.0
  C  C5  1  0.63252426  0.64499185  0.59612785  1.0
  C  C6  1  0.83955147  0.41073389  0.37653551  1.0
  C  C7  1  0.69961358  0.90122237  0.86636698  1.0
  C  C8  1  0.52294584  0.97509355  0.94576398  1.0
  C  C9  1  0.62540765  0.98750141  0.04232207  1.0
  C  C10  1  0.89030986  0.92381350  0.05529790  1.0
  C  C11  1  0.05039283  0.84853734  0.97466375  1.0
  C  C12  1  0.47233938  0.07135030  0.12990107  1.0
  C  C25  1  0.85825161  0.01310170  0.38776401  1.0
  C  C26  1  0.92258001  0.94611495  0.47563338  1.0
  C  C27  1  0.14844659  0.97831190  0.52742846  1.0
  C  C28  1  0.31040730  0.07983056  0.49000466  1.0
  C  C29  1  0.22866847  0.14498785  0.40388227  1.0
  C  C30  1  0.21610664  0.91074051  0.62346222  1.0
  C  C31  1  0.56598180  0.40122993  0.13362419  1.0
  C  C32  1  0.46870783  0.47509402  0.05423951  1.0
  C  C33  1  0.66772709  0.48750032  0.95767876  1.0
  C  C34  1  0.94561660  0.42381364  0.94470060  1.0
  C  C35  1  0.02505197  0.34854516  0.02532970  1.0
  C  C36  1  0.60226684  0.57134957  0.87008813  1.0
  Cu  Cu1  1  0.93234512  0.21737362  0.23046467  1.0
  Cu  Cu3  1  0.16281246  0.71736491  0.76953855  1.0
  H  H1  1  0.04647537  0.48281809  0.66287316  1.0
  H  H2  1  0.29071276  0.37232087  0.49353031  1.0
  H  H3  1  0.00273804  0.61526699  0.46516539  1.0
  H  H4  1  0.71742532  0.72610120  0.62564763  1.0
  H  H5  1  0.63542278  0.89369901  0.78870364  1.0
  H  H6  1  0.33752445  0.03398630  0.92670330  1.0
  H  H7  1  0.97838929  0.93759151  0.12746072  1.0
  H  H8  1  0.23275315  0.78420927  0.98759975  1.0
  H  H17  1  0.70934897  0.98281944  0.33712910  1.0
  H  H18  1  0.78425104  0.87232336  0.50647143  1.0
  H  H19  1  0.46790616  0.11526625  0.53483501  1.0
  H  H20  1  0.34307120  0.22610085  0.37435233  1.0
  H  H21  1  0.42412647  0.39370032  0.21129642  1.0
  H  H22  1  0.26422967  0.53398655  0.07329456  1.0
  H  H23  1  0.10584556  0.43759164  0.87253814  1.0
  H  H24  1  0.22034920  0.28421088  0.01240143  1.0
  N  N1  1  0.36900316  0.61062105  0.64747567  1.0
  N  N2  1  0.95132460  0.83733299  0.88126743  1.0
  N  N5  1  0.01645684  0.11062699  0.35251036  1.0
  N  N6  1  0.83259653  0.33731985  0.11874295  1.0
  O  O1  1  0.69876144  0.32222697  0.34587497  1.0
  O  O2  1  0.09240121  0.44229163  0.33336054  1.0
  O  O3  1  0.23020600  0.13152121  0.11455663  1.0
  O  O4  1  0.59579143  0.07847124  0.20998699  1.0
  O  O9  1  0.04462636  0.82223635  0.65412104  1.0
  O  O10  1  0.42575532  0.94228864  0.66663662  1.0
  O  O11  1  0.34476775  0.63152266  0.88545556  1.0
  O  O12  1  0.80576995  0.57846604  0.79001307  1.0
