# generated using pymatgen
data_H15(C11N2)2
_symmetry_space_group_name_H-M   'P 1'
_cell_length_a   20.74980000
_cell_length_b   39.57570000
_cell_length_c   39.57570000
_cell_angle_alpha   90.00000000
_cell_angle_beta   90.00000000
_cell_angle_gamma   90.00000000
_symmetry_Int_Tables_number   1
_chemical_formula_structural   H15(C11N2)2
_chemical_formula_sum   'H240 C352 N64'
_cell_volume   32499.08438546
_cell_formula_units_Z   16
loop_
 _symmetry_equiv_pos_site_id
 _symmetry_equiv_pos_as_xyz
  1  'x, y, z'
loop_
 _atom_site_type_symbol
 _atom_site_label
 _atom_site_symmetry_multiplicity
 _atom_site_fract_x
 _atom_site_fract_y
 _atom_site_fract_z
 _atom_site_occupancy
  C  1  1  0.36646300  0.30488400  0.58972600  1
  C  2  1  0.30123100  0.31625500  0.59022100  1
  C  3  1  0.28739000  0.35134500  0.58960000  1
  C  4  1  0.33845600  0.37433400  0.58490700  1
  C  5  1  0.40279800  0.36347800  0.58240100  1
  C  6  1  0.41773300  0.32874700  0.58678700  1
  C  7  1  0.25129900  0.29200300  0.58988300  1
  C  8  1  0.48182700  0.31674500  0.58722900  1
  C  10  1  0.38026900  0.26952200  0.59068400  1
  C  11  1  0.32920400  0.24549800  0.58802300  1
  C  12  1  0.34427400  0.21061700  0.58499600  1
  C  13  1  0.40859100  0.19996500  0.58863900  1
  C  14  1  0.45876500  0.22308900  0.59440800  1
  C  15  1  0.44541700  0.25821400  0.59265500  1
  C  16  1  0.26510600  0.25745600  0.58722700  1
  C  18  1  0.49545600  0.28233300  0.59150000  1
  C  27  1  0.86702000  0.26111200  0.97653200  1
  C  28  1  0.80190600  0.24956800  0.97606400  1
  C  29  1  0.78843600  0.21443800  0.97635500  1
  C  30  1  0.83977600  0.19154900  0.98071100  1
  C  31  1  0.90409600  0.20252000  0.98307900  1
  C  32  1  0.91853400  0.23735500  0.97911900  1
  C  33  1  0.75174600  0.27368100  0.97677400  1
  C  34  1  0.98251000  0.24952500  0.97865400  1
  C  36  1  0.88047600  0.29652100  0.97586700  1
  C  37  1  0.82920300  0.32039100  0.97880100  1
  C  38  1  0.84397000  0.35529900  0.98198500  1
  C  39  1  0.90816800  0.36613900  0.97829800  1
  C  40  1  0.95850600  0.34317800  0.97228200  1
  C  41  1  0.94549800  0.30801000  0.97383600  1
  C  42  1  0.76523200  0.30824500  0.97965700  1
  C  44  1  0.99577400  0.28401300  0.97468000  1
  C  53  1  0.61695000  0.47665700  0.80522200  1
  C  54  1  0.55176000  0.47613900  0.81666100  1
  C  55  1  0.53807800  0.47650700  0.85177300  1
  C  56  1  0.58924000  0.48105600  0.87473200  1
  C  57  1  0.65354400  0.48359800  0.86381600  1
  C  58  1  0.66832200  0.47938800  0.82904700  1
  C  59  1  0.50173000  0.47669700  0.79246700  1
  C  60  1  0.73236800  0.47894800  0.81697400  1
  C  62  1  0.63061400  0.47595700  0.76983900  1
  C  63  1  0.57946600  0.47889500  0.74589300  1
  C  64  1  0.59455500  0.48227900  0.71104300  1
  C  65  1  0.65874400  0.47847300  0.70026600  1
  C  66  1  0.70893200  0.47242200  0.72330600  1
  C  67  1  0.69571200  0.47394800  0.75845300  1
  C  68  1  0.51542600  0.47969900  0.75793500  1
  C  70  1  0.74584800  0.47481400  0.78252900  1
  C  79  1  0.11630900  0.08961600  0.76139500  1
  C  80  1  0.05110400  0.08999800  0.74997300  1
  C  81  1  0.03736900  0.08932100  0.71487600  1
  C  82  1  0.08850700  0.08464100  0.69193000  1
  C  83  1  0.15283500  0.08226000  0.70283600  1
  C  84  1  0.16765400  0.08673200  0.73756900  1
  C  85  1  0.00110700  0.08961400  0.77418800  1
  C  86  1  0.23171300  0.08729500  0.74961500  1
  C  88  1  0.13001500  0.09062200  0.79676500  1
  C  89  1  0.07890100  0.08789400  0.82075700  1
  C  90  1  0.09389400  0.08493300  0.85565500  1
  C  91  1  0.15817400  0.08865100  0.86634500  1
  C  92  1  0.20837700  0.09446600  0.84325000  1
  C  93  1  0.19512300  0.09269900  0.80811800  1
  C  94  1  0.01484300  0.08698800  0.80874400  1
  C  96  1  0.24523100  0.09165200  0.78403000  1
  C  105  1  0.86994000  0.80772100  0.09714700  1
  C  106  1  0.80300000  0.81543500  0.09452100  1
  C  107  1  0.78303400  0.84953700  0.09177300  1
  C  108  1  0.82958400  0.87534800  0.09060100  1
  C  109  1  0.89567200  0.86811400  0.09250800  1
  C  110  1  0.91652000  0.83428000  0.09673800  1
  C  111  1  0.75788600  0.78871900  0.09349700  1
  C  112  1  0.98247600  0.82601000  0.09950800  1
  C  114  1  0.89028800  0.77333400  0.09906300  1
  C  115  1  0.84415200  0.74666100  0.09628500  1
  C  116  1  0.86569000  0.71267000  0.09513300  1
  C  117  1  0.93165200  0.70564300  0.09858100  1
  C  118  1  0.97705600  0.73148200  0.10337900  1
  C  119  1  0.95719400  0.76569000  0.10216900  1
  C  120  1  0.77825400  0.75497400  0.09345200  1
  C  122  1  0.00240500  0.79233800  0.10283800  1
  C  131  1  0.36974400  0.75835700  0.46871500  1
  C  132  1  0.30287600  0.75040300  0.47105200  1
  C  133  1  0.28331300  0.71622300  0.47356400  1
  C  134  1  0.33015700  0.69056300  0.47476100  1
  C  135  1  0.39619100  0.69801200  0.47304300  1
  C  136  1  0.41664500  0.73195500  0.46916200  1
  C  137  1  0.25741000  0.77695700  0.47205000  1
  C  138  1  0.48253000  0.74047000  0.46671600  1
  C  140  1  0.38968000  0.79282800  0.46707500  1
  C  141  1  0.34316900  0.81932400  0.46981100  1
  C  142  1  0.36425800  0.85337800  0.47122900  1
  C  143  1  0.43015800  0.86066500  0.46801200  1
  C  144  1  0.47593200  0.83501100  0.46319600  1
  C  145  1  0.45652000  0.80072200  0.46423000  1
  C  146  1  0.27733800  0.81077100  0.47233100  1
  C  148  1  0.50207200  0.77423100  0.46362300  1
  C  157  1  0.12012300  0.96882500  0.30752000  1
  C  158  1  0.05331700  0.97112400  0.31563800  1
  C  159  1  0.03407300  0.97366600  0.34987400  1
  C  160  1  0.08114900  0.97502100  0.37541000  1
  C  161  1  0.14709600  0.97341900  0.36776400  1
  C  162  1  0.16726400  0.96934800  0.33380100  1
  C  163  1  0.00761000  0.97201600  0.28919300  1
  C  164  1  0.23307700  0.96688700  0.32513200  1
  C  166  1  0.13977400  0.96717000  0.27300600  1
  C  167  1  0.09302800  0.96990900  0.24662900  1
  C  168  1  0.11392900  0.97151900  0.21255400  1
  C  169  1  0.17971100  0.96818600  0.20506700  1
  C  170  1  0.22568800  0.96331900  0.23061200  1
  C  171  1  0.20655300  0.96433000  0.26495100  1
  C  172  1  0.02725900  0.97236500  0.25533400  1
  C  174  1  0.25232900  0.96371100  0.29133600  1
  C  183  1  0.61862200  0.59661900  0.25814300  1
  C  184  1  0.55171600  0.59358400  0.25050500  1
  C  185  1  0.53171200  0.59062800  0.21643100  1
  C  186  1  0.57817000  0.58962200  0.19057000  1
  C  187  1  0.64423800  0.59195200  0.19773500  1
  C  188  1  0.66511000  0.59641200  0.23153600  1
  C  189  1  0.50671400  0.59240400  0.27726600  1
  C  190  1  0.73102800  0.59960800  0.23973300  1
  C  192  1  0.63903800  0.59878200  0.29250500  1
  C  193  1  0.59305600  0.59581300  0.31923100  1
  C  194  1  0.61473400  0.59491400  0.35320700  1
  C  195  1  0.68064200  0.59875400  0.36015600  1
  C  196  1  0.72584800  0.60372700  0.33425300  1
  C  197  1  0.70590000  0.60230900  0.30006800  1
  C  198  1  0.52719600  0.59255900  0.31099200  1
  C  200  1  0.75100000  0.60318600  0.27337300  1
  C  209  1  0.60790400  0.19518600  0.63128200  1
  C  210  1  0.65845200  0.20981000  0.65025100  1
  C  211  1  0.71637400  0.19210400  0.65711300  1
  C  212  1  0.72297000  0.15841200  0.64487900  1
  C  213  1  0.67249400  0.14370300  0.62597000  1
  C  214  1  0.61579400  0.16184700  0.61920600  1
  C  217  1  0.77821400  0.13828600  0.65169600  1
  C  218  1  0.78476800  0.12447300  0.68447400  1
  C  219  1  0.83950600  0.10556300  0.69332200  1
  C  220  1  0.88870800  0.09968800  0.66942100  1
  C  221  1  0.88122200  0.11264600  0.63637300  1
  C  222  1  0.82686000  0.13219500  0.62703700  1
  C  233  1  0.94583000  0.08408000  0.67829600  1
  C  234  1  0.55028400  0.21241600  0.62713800  1
  C  237  1  0.10701800  0.37139000  0.93498600  1
  C  238  1  0.15752000  0.35659000  0.91612300  1
  C  239  1  0.21561200  0.37414900  0.90927600  1
  C  240  1  0.22240200  0.40787700  0.92138400  1
  C  241  1  0.17192000  0.42277000  0.94015100  1
  C  242  1  0.11504600  0.40477100  0.94690300  1
  C  245  1  0.27796000  0.42780300  0.91467800  1
  C  246  1  0.28510500  0.44147100  0.88187300  1
  C  247  1  0.34023900  0.46011400  0.87313000  1
  C  248  1  0.38922700  0.46590000  0.89717000  1
  C  249  1  0.38115500  0.45309400  0.93024100  1
  C  250  1  0.32639700  0.43380400  0.93947400  1
  C  261  1  0.44662100  0.48133900  0.88846300  1
  C  262  1  0.04934500  0.35424800  0.93921300  1
  C  265  1  0.85751200  0.43509100  0.69520000  1
  C  266  1  0.90798000  0.41612200  0.70989300  1
  C  267  1  0.96591800  0.40918100  0.69223100  1
  C  268  1  0.97259200  0.42132500  0.65850800  1
  C  269  1  0.92216300  0.44021200  0.64372600  1
  C  270  1  0.86545600  0.44706300  0.66182800  1
  C  273  1  0.02791700  0.41448400  0.63845000  1
  C  274  1  0.03462100  0.38166900  0.62474700  1
  C  275  1  0.08945500  0.37280500  0.60591800  1
  C  276  1  0.13859500  0.39672900  0.60001000  1
  C  277  1  0.13097100  0.42981000  0.61286100  1
  C  278  1  0.07652100  0.43916100  0.63233300  1
  C  289  1  0.19579000  0.38786200  0.58446300  1
  C  290  1  0.79991600  0.43936300  0.71241000  1
  C  293  1  0.35737500  0.13148800  0.87114900  1
  C  294  1  0.40797900  0.15029200  0.85636700  1
  C  295  1  0.46609700  0.15705300  0.87393300  1
  C  296  1  0.47282300  0.14490900  0.90765400  1
  C  297  1  0.42225000  0.12620100  0.92253100  1
  C  298  1  0.36534800  0.11954100  0.90452500  1
  C  301  1  0.52840000  0.15152900  0.92759000  1
  C  302  1  0.53559600  0.18429200  0.94135400  1
  C  303  1  0.59076200  0.19296000  0.96000400  1
  C  304  1  0.63974600  0.16889200  0.96569200  1
  C  305  1  0.63161600  0.13586000  0.95279500  1
  C  306  1  0.57681000  0.12669900  0.93350500  1
  C  317  1  0.69720600  0.17755300  0.98109500  1
  C  318  1  0.29968500  0.12733900  0.85398900  1
  C  321  1  0.12523000  0.70237900  0.13738700  1
  C  322  1  0.17844100  0.71401200  0.15632600  1
  C  323  1  0.23254600  0.69309500  0.16260400  1
  C  324  1  0.23200100  0.65944300  0.14977800  1
  C  325  1  0.17902800  0.64781200  0.13071600  1
  C  326  1  0.12629400  0.66901700  0.12461000  1
  C  329  1  0.28107300  0.63575200  0.15721500  1
  C  330  1  0.28148700  0.62135400  0.18990600  1
  C  331  1  0.33078700  0.59917400  0.19967100  1
  C  332  1  0.38003800  0.59064600  0.17666300  1
  C  333  1  0.37798000  0.60382000  0.14349100  1
  C  334  1  0.32916000  0.62658200  0.13325800  1
  C  345  1  0.43580600  0.57545700  0.18758700  1
  C  346  1  0.06978700  0.72151900  0.13503900  1
  C  349  1  0.62431000  0.86399300  0.42916800  1
  C  350  1  0.67767000  0.85194300  0.41060800  1
  C  351  1  0.73218600  0.87257400  0.40438000  1
  C  352  1  0.73187600  0.90636500  0.41684200  1
  C  353  1  0.67874400  0.91841300  0.43551500  1
  C  354  1  0.62558200  0.89748600  0.44157200  1
  C  357  1  0.78159800  0.92970800  0.40950700  1
  C  358  1  0.78303800  0.94380000  0.37668900  1
  C  359  1  0.83329400  0.96539100  0.36695000  1
  C  360  1  0.88238000  0.97369200  0.39013900  1
  C  361  1  0.87929600  0.96088100  0.42341900  1
  C  362  1  0.82952200  0.93868500  0.43362800  1
  C  373  1  0.93869800  0.98838000  0.37934900  1
  C  374  1  0.56870400  0.84501400  0.43159100  1
  C  377  1  0.37409500  0.92911600  0.20168500  1
  C  378  1  0.42732500  0.91041800  0.21368100  1
  C  379  1  0.48171100  0.90403500  0.19300200  1
  C  380  1  0.48143900  0.91650300  0.15921700  1
  C  381  1  0.42844100  0.93531500  0.14721700  1
  C  382  1  0.37542100  0.94154100  0.16819800  1
  C  385  1  0.53096000  0.90899500  0.13580500  1
  C  386  1  0.53200000  0.87616500  0.12173900  1
  C  387  1  0.58190000  0.86630800  0.09997300  1
  C  388  1  0.63112000  0.88936000  0.09152200  1
  C  389  1  0.62846800  0.92265000  0.10435700  1
  C  390  1  0.57904600  0.93298000  0.12671300  1
  C  401  1  0.68729400  0.87844100  0.07674200  1
  C  402  1  0.31855900  0.93165800  0.22071700  1
  C  405  1  0.87343400  0.63825600  0.36330900  1
  C  406  1  0.92711200  0.65659800  0.35132400  1
  C  407  1  0.98153700  0.66268700  0.37207000  1
  C  408  1  0.98079000  0.65031600  0.40588800  1
  C  409  1  0.92727600  0.63191400  0.41789100  1
  C  410  1  0.87420600  0.62600600  0.39686300  1
  C  413  1  0.03050200  0.65742900  0.42930200  1
  C  414  1  0.03222300  0.69019200  0.44350700  1
  C  415  1  0.08248200  0.69970000  0.46520000  1
  C  416  1  0.13128700  0.67633700  0.47347000  1
  C  417  1  0.12790400  0.64311200  0.46053800  1
  C  418  1  0.07811300  0.63312900  0.43825200  1
  C  429  1  0.18768800  0.68692700  0.48820900  1
  C  430  1  0.81806000  0.63582800  0.34416600  1
  C  433  1  0.23277300  0.00689300  0.43898700  1
  C  434  1  0.29071100  0.02262000  0.44914000  1
  C  435  1  0.29150300  0.05029300  0.47190900  1
  C  436  1  0.23184200  0.06249000  0.48527800  1
  C  437  1  0.17394700  0.04663600  0.47516600  1
  C  438  1  0.17445100  0.01897900  0.45301800  1
  C  441  1  0.22752500  0.09128700  0.50704400  1
  C  442  1  0.24978100  0.12260900  0.49439500  1
  C  443  1  0.25423300  0.15105300  0.51539500  1
  C  444  1  0.23568800  0.14919000  0.54969600  1
  C  445  1  0.20753500  0.11899600  0.56153700  1
  C  446  1  0.20269000  0.08996400  0.54070100  1
  C  457  1  0.24997800  0.17515900  0.57190400  1
  C  458  1  0.23352000  0.98303600  0.41314300  1
  C  461  1  0.72954000  0.55962900  0.12601600  1
  C  462  1  0.78744800  0.54346000  0.11654200  1
  C  463  1  0.78836800  0.51560500  0.09400000  1
  C  464  1  0.72888000  0.50365800  0.08018600  1
  C  465  1  0.67102800  0.51997900  0.08961500  1
  C  466  1  0.67142400  0.54780900  0.11154900  1
  C  469  1  0.72470600  0.47471100  0.05860500  1
  C  470  1  0.74606400  0.44338100  0.07166800  1
  C  471  1  0.75121200  0.41483600  0.05083900  1
  C  472  1  0.73398800  0.41657200  0.01634800  1
  C  473  1  0.70652800  0.44675900  0.00406500  1
  C  474  1  0.70111600  0.47590600  0.02469400  1
  C  485  1  0.74922200  0.39056100  0.99437600  1
  C  486  1  0.72995000  0.58355300  0.15178800  1
  C  489  1  0.48189800  0.62682500  0.50663500  1
  C  490  1  0.53987000  0.61694700  0.52250000  1
  C  491  1  0.54079000  0.59426900  0.55024700  1
  C  492  1  0.48123300  0.58072000  0.56239400  1
  C  493  1  0.42331500  0.59053200  0.54637600  1
  C  494  1  0.42370500  0.61256300  0.51862700  1
  C  497  1  0.47700200  0.55913400  0.59133300  1
  C  498  1  0.49900800  0.57205400  0.62259500  1
  C  499  1  0.50354600  0.55126300  0.65118800  1
  C  500  1  0.48532600  0.51690600  0.64954100  1
  C  501  1  0.45737200  0.50478700  0.61940800  1
  C  502  1  0.45243900  0.52540900  0.59022600  1
  C  513  1  0.49982600  0.49490000  0.67564700  1
  C  514  1  0.48237600  0.65266400  0.48276100  1
  C  517  1  0.98088200  0.93964300  0.05954700  1
  C  518  1  0.03879100  0.94938600  0.04353900  1
  C  519  1  0.03964800  0.97202900  0.01576600  1
  C  520  1  0.98008200  0.98567100  0.00373300  1
  C  521  1  0.92221600  0.97594800  0.01985900  1
  C  522  1  0.92266900  0.95392200  0.04761300  1
  C  525  1  0.97584600  0.00741900  0.97491500  1
  C  526  1  0.99757600  0.99463100  0.94354200  1
  C  527  1  0.00248700  0.01564400  0.91512300  1
  C  528  1  0.98466400  0.05004400  0.91702600  1
  C  529  1  0.95691000  0.06203900  0.94725400  1
  C  530  1  0.95172400  0.04122200  0.97627900  1
  C  541  1  0.99948000  0.07220800  0.89110800  1
  C  542  1  0.98145600  0.91386500  0.08347100  1
  C  545  1  0.52802400  0.55875200  0.42391700  1
  C  546  1  0.46798500  0.54894800  0.43760200  1
  C  547  1  0.46253500  0.52301100  0.46220300  1
  C  548  1  0.51976400  0.50674600  0.47408400  1
  C  549  1  0.57978800  0.51668400  0.46052500  1
  C  550  1  0.58396200  0.54248200  0.43640200  1
  C  553  1  0.51978800  0.47931700  0.49759600  1
  C  554  1  0.48824600  0.44918500  0.48790100  1
  C  555  1  0.48287600  0.42190600  0.51031900  1
  C  556  1  0.50964400  0.42365400  0.54311900  1
  C  557  1  0.54589400  0.45251000  0.55185200  1
  C  558  1  0.55170200  0.48043700  0.52958800  1
  C  569  1  0.49781600  0.39851000  0.56670200  1
  C  570  1  0.53080000  0.58165000  0.39714000  1
  C  573  1  0.02643000  0.00761100  0.14213900  1
  C  574  1  0.96668000  0.01793300  0.12847900  1
  C  575  1  0.96196600  0.04395200  0.10392700  1
  C  576  1  0.01965400  0.05979100  0.09208100  1
  C  577  1  0.07938900  0.04934000  0.10560500  1
  C  578  1  0.08281600  0.02348300  0.12970200  1
  C  581  1  0.02039100  0.08720900  0.06855400  1
  C  582  1  0.98963800  0.11757200  0.07823500  1
  C  583  1  0.98454400  0.14478000  0.05571200  1
  C  584  1  0.01100800  0.14275400  0.02286400  1
  C  585  1  0.04665000  0.11368700  0.01416000  1
  C  586  1  0.05210200  0.08581600  0.03651600  1
  C  597  1  0.99919700  0.16778300  0.99917400  1
  C  598  1  0.02841900  0.98478200  0.16899800  1
  C  601  1  0.27680300  0.92375200  0.50752400  1
  C  602  1  0.21690700  0.93753800  0.51744200  1
  C  603  1  0.21175300  0.96212400  0.54340700  1
  C  604  1  0.26914400  0.97388100  0.55959900  1
  C  605  1  0.32902400  0.96022100  0.54956500  1
  C  606  1  0.33290000  0.93611100  0.52374100  1
  C  609  1  0.26943700  0.99736800  0.58705300  1
  C  610  1  0.23796400  0.98770000  0.61721300  1
  C  611  1  0.23278700  0.01011700  0.64450000  1
  C  612  1  0.25967400  0.04288800  0.64273100  1
  C  613  1  0.29585700  0.05159100  0.61383900  1
  C  614  1  0.30147700  0.02932500  0.58590500  1
  C  625  1  0.24802200  0.06647100  0.66789300  1
  C  626  1  0.27922600  0.89696500  0.48462100  1
  C  629  1  0.77865800  0.64205400  0.05904800  1
  C  630  1  0.71861000  0.62850500  0.04905800  1
  C  631  1  0.71321600  0.60398000  0.02304800  1
  C  632  1  0.77051400  0.59202300  0.00690100  1
  C  633  1  0.83054200  0.60544000  0.01702200  1
  C  634  1  0.83464000  0.62952100  0.04286300  1
  C  637  1  0.77061400  0.56847600  0.97949800  1
  C  638  1  0.73948200  0.57821100  0.94926000  1
  C  639  1  0.73407400  0.55574600  0.92202100  1
  C  640  1  0.76058000  0.52289500  0.92388100  1
  C  641  1  0.79651800  0.51412400  0.95283000  1
  C  642  1  0.80228200  0.53641800  0.98073100  1
  C  653  1  0.74870200  0.49929200  0.89876900  1
  C  654  1  0.78135900  0.66881200  0.08196600  1
  H  9  1  0.32842700  0.39961400  0.58271400  1
  H  17  1  0.41939100  0.17470600  0.58666100  1
  H  19  1  0.22707500  0.24120800  0.58584200  1
  H  20  1  0.20395800  0.29926500  0.58937000  1
  H  21  1  0.54273200  0.27498700  0.59168400  1
  H  22  1  0.51992300  0.33291900  0.58559700  1
  H  35  1  0.82998400  0.16622700  0.98270700  1
  H  43  1  0.91873200  0.39142200  0.98031200  1
  H  45  1  0.72704800  0.32436100  0.98138300  1
  H  46  1  0.70448400  0.26628500  0.97736600  1
  H  47  1  0.04298400  0.29146900  0.97439200  1
  H  48  1  0.02077200  0.23342800  0.97993500  1
  H  61  1  0.57932600  0.48310500  0.90003500  1
  H  69  1  0.66942800  0.48052000  0.67500100  1
  H  71  1  0.47734000  0.48138700  0.74175400  1
  H  72  1  0.45443300  0.47733900  0.79979200  1
  H  73  1  0.79309600  0.47467000  0.77513500  1
  H  74  1  0.77053800  0.48040100  0.83311800  1
  H  87  1  0.07855900  0.08241900  0.66666667  1
  H  95  1  0.16891600  0.08674600  0.89161600  1
  H  97  1  0.97677000  0.08544900  0.82494900  1
  H  98  1  0.95379200  0.08891700  0.76689500  1
  H  99  1  0.29249000  0.09184700  0.79140500  1
  H  100  1  0.26985800  0.08570200  0.73347100  1
  H  113  1  0.81483600  0.90000500  0.08849800  1
  H  121  1  0.94724800  0.68100700  0.09729000  1
  H  123  1  0.74387600  0.73659900  0.09166900  1
  H  124  1  0.70960200  0.79346700  0.09111900  1
  H  125  1  0.05076100  0.78751700  0.10439700  1
  H  126  1  0.01702100  0.84441800  0.09940900  1
  H  139  1  0.31566500  0.66585400  0.47674700  1
  H  147  1  0.44539200  0.88535700  0.46939400  1
  H  149  1  0.24271000  0.82901700  0.47408900  1
  H  150  1  0.20915400  0.77203500  0.47422100  1
  H  151  1  0.55038600  0.77922100  0.46225900  1
  H  152  1  0.51730200  0.72218100  0.46682200  1
  H  165  1  0.06691100  0.97702700  0.40016300  1
  H  173  1  0.19468600  0.96954500  0.18033200  1
  H  175  1  0.99248600  0.97414100  0.23716500  1
  H  176  1  0.95940600  0.97423000  0.29422900  1
  H  177  1  0.30060100  0.96244700  0.28623400  1
  H  178  1  0.26801200  0.96708400  0.34334200  1
  H  191  1  0.56337400  0.58741600  0.16593100  1
  H  199  1  0.69635800  0.59761700  0.38477700  1
  H  201  1  0.49293000  0.59059300  0.32940200  1
  H  202  1  0.45847600  0.58966500  0.27257700  1
  H  203  1  0.79934200  0.60500800  0.27814300  1
  H  204  1  0.76551000  0.59964400  0.22129100  1
  H  215  1  0.67619000  0.11937900  0.61732400  1
  H  216  1  0.57959100  0.15006100  0.60616000  1
  H  223  1  0.75027200  0.12871700  0.70250200  1
  H  224  1  0.84373400  0.09672400  0.71754400  1
  H  225  1  0.91733800  0.10898500  0.61907000  1
  H  226  1  0.65300400  0.23389900  0.65934500  1
  H  228  1  0.75808000  0.23112800  0.68296000  1
  H  229  1  0.80458600  0.19729800  0.67974600  1
  H  231  1  0.78881800  0.15936000  0.58776300  1
  H  232  1  0.85838000  0.14092600  0.57887100  1
  H  235  1  0.53350800  0.22594000  0.64648100  1
  H  236  1  0.96575400  0.06761100  0.66245200  1
  H  243  1  0.17578000  0.44711100  0.94872900  1
  H  244  1  0.07889100  0.41665200  0.95990500  1
  H  251  1  0.25080100  0.43725900  0.86373500  1
  H  252  1  0.34485200  0.46886100  0.84889300  1
  H  253  1  0.41705100  0.45674000  0.94767100  1
  H  254  1  0.15195300  0.33246700  0.90714300  1
  H  256  1  0.25721700  0.33489300  0.88374200  1
  H  257  1  0.30397800  0.36863300  0.88688600  1
  H  259  1  0.28747300  0.40697000  0.97874300  1
  H  260  1  0.35719500  0.42516300  0.98778600  1
  H  263  1  0.03231500  0.34082300  0.91986600  1
  H  264  1  0.46648300  0.49778800  0.90434900  1
  H  271  1  0.92592200  0.44880400  0.61938300  1
  H  272  1  0.82930000  0.46011400  0.65000500  1
  H  279  1  0.00016300  0.36362500  0.62901500  1
  H  280  1  0.09378000  0.34856000  0.59715700  1
  H  281  1  0.16704700  0.44713100  0.60917700  1
  H  282  1  0.90248600  0.40710900  0.73400900  1
  H  284  1  0.00751400  0.38343000  0.73134800  1
  H  285  1  0.05409100  0.38652800  0.69753500  1
  H  287  1  0.03829000  0.47848600  0.65935500  1
  H  288  1  0.10788700  0.48737500  0.64095200  1
  H  291  1  0.78292800  0.42005100  0.72590600  1
  H  292  1  0.21551400  0.40368200  0.56790200  1
  H  299  1  0.42606300  0.11759900  0.94686500  1
  H  300  1  0.32913000  0.10658100  0.91639900  1
  H  307  1  0.50131000  0.20245200  0.93720500  1
  H  308  1  0.59541200  0.21717000  0.96881500  1
  H  309  1  0.66750000  0.11840900  0.95636800  1
  H  310  1  0.40246600  0.15929400  0.83224900  1
  H  312  1  0.50783200  0.18257400  0.83470700  1
  H  313  1  0.55456000  0.17934800  0.86845500  1
  H  315  1  0.53776600  0.08751500  0.90659500  1
  H  316  1  0.60751400  0.07839600  0.92472500  1
  H  319  1  0.28281700  0.14667300  0.84048900  1
  H  320  1  0.71724300  0.16157900  0.99740100  1
  H  327  1  0.17744200  0.62345600  0.12195900  1
  H  328  1  0.08749400  0.65926100  0.11192300  1
  H  335  1  0.24730800  0.62796200  0.20738500  1
  H  336  1  0.33237100  0.59082800  0.22415900  1
  H  337  1  0.41496300  0.59855000  0.12712400  1
  H  338  1  0.17739500  0.73796400  0.16617100  1
  H  340  1  0.28212900  0.72896600  0.18916400  1
  H  341  1  0.32137600  0.69275400  0.18512400  1
  H  343  1  0.30023300  0.65608000  0.09353900  1
  H  344  1  0.36554500  0.63335900  0.08572200  1
  H  347  1  0.05089600  0.73092900  0.15618200  1
  H  348  1  0.45560300  0.55695600  0.17410600  1
  H  355  1  0.67740400  0.94285500  0.44404300  1
  H  356  1  0.58675200  0.90748400  0.45404400  1
  H  363  1  0.74906800  0.93725800  0.35907400  1
  H  364  1  0.83554600  0.97351200  0.34240000  1
  H  365  1  0.91605200  0.96607300  0.43995200  1
  H  366  1  0.67648400  0.82787700  0.40104900  1
  H  368  1  0.78179000  0.83618300  0.37855600  1
  H  369  1  0.82149600  0.87227600  0.38239900  1
  H  371  1  0.79881800  0.90990000  0.47350600  1
  H  372  1  0.86475600  0.93208300  0.48142500  1
  H  375  1  0.55025100  0.83506600  0.41058300  1
  H  376  1  0.95834600  0.00716700  0.39250900  1
  H  383  1  0.42709300  0.94383200  0.12277100  1
  H  384  1  0.33665800  0.95407100  0.15820400  1
  H  391  1  0.49785000  0.85865900  0.12832200  1
  H  392  1  0.58389400  0.84174400  0.09187600  1
  H  393  1  0.66542400  0.93905900  0.09915200  1
  H  394  1  0.42612900  0.90085400  0.23774600  1
  H  396  1  0.53109900  0.87798100  0.22931800  1
  H  397  1  0.57073400  0.88171600  0.19319300  1
  H  399  1  0.54910400  0.97291100  0.15564300  1
  H  400  1  0.61487800  0.98066300  0.13326800  1
  H  403  1  0.30028900  0.91079400  0.23104500  1
  H  404  1  0.70666200  0.89173200  0.05796900  1
  H  411  1  0.92562800  0.62345400  0.44235300  1
  H  412  1  0.83513300  0.61369300  0.40680000  1
  H  419  1  0.99847300  0.70793000  0.43698300  1
  H  420  1  0.08497300  0.72421500  0.47340200  1
  H  421  1  0.16446900  0.62645300  0.46571000  1
  H  422  1  0.92626900  0.66605800  0.32721600  1
  H  424  1  0.03180100  0.68822800  0.33572600  1
  H  425  1  0.07113400  0.68435500  0.37193100  1
  H  427  1  0.04705000  0.59343800  0.40932000  1
  H  428  1  0.11282000  0.58524100  0.43154000  1
  H  431  1  0.79868800  0.65690900  0.33490000  1
  H  432  1  0.20722200  0.67365400  0.50695000  1
  H  439  1  0.13035800  0.05540200  0.48358500  1
  H  440  1  0.13115300  0.00870400  0.44613800  1
  H  447  1  0.26629600  0.12458700  0.47007400  1
  H  448  1  0.27436400  0.17266100  0.50582100  1
  H  449  1  0.19363500  0.11748200  0.58635500  1
  H  450  1  0.33332267  0.01450000  0.43882500  1
  H  452  1  0.38972700  0.05496900  0.47054900  1
  H  453  1  0.35416700  0.08218000  0.49607500  1
  H  455  1  0.17416500  0.04073000  0.54198200  1
  H  456  1  0.15987200  0.06133800  0.57745300  1
  H  459  1  0.27324100  0.97020200  0.40758900  1
  H  460  1  0.21954500  0.18159100  0.59016100  1
  H  467  1  0.62752800  0.51141300  0.08087100  1
  H  468  1  0.62817400  0.55845400  0.11794400  1
  H  475  1  0.76184400  0.44151600  0.09613000  1
  H  476  1  0.77087400  0.39324700  0.06071900  1
  H  477  1  0.69350000  0.44815900  0.97910900  1
  H  478  1  0.82986800  0.55137700  0.12721700  1
  H  480  1  0.88643200  0.51043000  0.09622100  1
  H  481  1  0.85114000  0.48324900  0.07056300  1
  H  483  1  0.67293600  0.52516900  0.02284600  1
  H  484  1  0.65978400  0.50439300  0.98736400  1
  H  487  1  0.76957800  0.59642700  0.15741400  1
  H  488  1  0.71935200  0.38390300  0.97594300  1
  H  495  1  0.37977900  0.58199600  0.55510100  1
  H  496  1  0.38037500  0.61924700  0.50825400  1
  H  503  1  0.51529400  0.59642700  0.62442400  1
  H  504  1  0.52353800  0.56103200  0.67274700  1
  H  505  1  0.44370600  0.47992600  0.61805100  1
  H  506  1  0.58237200  0.62741800  0.51444000  1
  H  508  1  0.63896600  0.59600300  0.55508600  1
  H  509  1  0.60357600  0.57041600  0.58230000  1
  H  511  1  0.42408600  0.52370300  0.54098100  1
  H  512  1  0.40998100  0.48835800  0.56183500  1
  H  515  1  0.52212600  0.65841200  0.47004400  1
  H  516  1  0.46956900  0.47661900  0.68222700  1
  H  523  1  0.87867400  0.98457500  0.01123000  1
  H  524  1  0.87940600  0.94734700  0.05813100  1
  H  531  1  0.01372500  0.97024800  0.94155600  1
  H  532  1  0.02235600  0.00596600  0.89349300  1
  H  533  1  0.94345000  0.08692300  0.94877200  1
  H  534  1  0.08129700  0.93886500  0.05153500  1
  H  536  1  0.13778800  0.97019700  0.01081600  1
  H  537  1  0.10237300  0.99579900  0.98362500  1
  H  539  1  0.92344000  0.04268000  0.02554600  1
  H  540  1  0.90981100  0.07822500  0.00495300  1
  H  543  1  0.02120000  0.90812900  0.09619700  1
  H  544  1  0.96908000  0.09039200  0.88443200  1
  H  551  1  0.62145600  0.50486300  0.46783800  1
  H  552  1  0.62868600  0.54835000  0.42721500  1
  H  559  1  0.46680800  0.44719900  0.46466400  1
  H  560  1  0.45724200  0.40111800  0.50276600  1
  H  561  1  0.56575400  0.45396100  0.57553000  1
  H  562  1  0.42687500  0.56013700  0.42858400  1
  H  564  1  0.36416300  0.52615900  0.46442200  1
  H  565  1  0.39487000  0.49684100  0.48933100  1
  H  567  1  0.58948300  0.52803200  0.52704900  1
  H  568  1  0.60633800  0.50798100  0.56258800  1
  H  571  1  0.49288900  0.59559600  0.39082900  1
  H  572  1  0.53135400  0.39165700  0.58320400  1
  H  579  1  0.12138500  0.06084400  0.09830700  1
  H  580  1  0.12736000  0.01724300  0.13888400  1
  H  587  1  0.96826000  0.11972300  0.10147300  1
  H  588  1  0.95929800  0.16571700  0.06321600  1
  H  589  1  0.06637100  0.11207100  0.99045700  1
  H  590  1  0.92524200  0.00707300  0.13748900  1
  H  592  1  0.86350700  0.04159100  0.10174500  1
  H  593  1  0.89501600  0.07069400  0.07686400  1
  H  595  1  0.08901800  0.03803800  0.03913900  1
  H  596  1  0.10605700  0.05790300  0.00352300  1
  H  599  1  0.98974000  0.97162500  0.17569500  1
  H  600  1  0.03300900  0.17483400  0.98290900  1
  H  607  1  0.37079500  0.96744000  0.56134200  1
  H  608  1  0.37753100  0.92682700  0.51782300  1
  H  615  1  0.21642100  0.96449200  0.61921100  1
  H  616  1  0.20718700  0.00259300  0.66531300  1
  H  617  1  0.31580600  0.07524700  0.61237900  1
  H  618  1  0.17567100  0.92861300  0.50630600  1
  H  620  1  0.11338300  0.96454000  0.54039300  1
  H  621  1  0.14441500  0.98939800  0.56966100  1
  H  623  1  0.33906700  0.02675200  0.53827300  1
  H  624  1  0.35617500  0.06225800  0.55832000  1
  H  627  1  0.24083000  0.89035300  0.47119600  1
  H  628  1  0.28173700  0.08284400  0.67482100  1
  H  635  1  0.87226400  0.59805900  0.00530000  1
  H  636  1  0.87937700  0.63859700  0.04888900  1
  H  643  1  0.71816600  0.60147300  0.94720600  1
  H  644  1  0.70866200  0.56331600  0.90116500  1
  H  645  1  0.81628200  0.49042500  0.95432900  1
  H  646  1  0.67746200  0.63758400  0.06016000  1
  H  648  1  0.61479200  0.60202900  0.02589800  1
  H  649  1  0.64554400  0.57718300  0.99654700  1
  H  651  1  0.83980000  0.53895700  0.02838700  1
  H  652  1  0.85652400  0.50335700  0.00841800  1
  H  655  1  0.74333200  0.67518500  0.09579500  1
  H  656  1  0.78235400  0.48291000  0.89178000  1
  N  23  1  0.44107300  0.38583000  0.56782400  1
  N  24  1  0.22810800  0.36265700  0.59598000  1
  N  25  1  0.51652000  0.20965700  0.60001000  1
  N  26  1  0.30674000  0.18781600  0.57054200  1
  N  49  1  0.94230200  0.18025200  0.99783300  1
  N  50  1  0.72920600  0.20304400  0.96996500  1
  N  51  1  0.01610700  0.35674900  0.96654600  1
  N  52  1  0.80608000  0.37807600  0.99623100  1
  N  75  1  0.69190000  0.49813200  0.88616300  1
  N  76  1  0.47881300  0.47007400  0.86309600  1
  N  77  1  0.76656400  0.46664500  0.70979200  1
  N  78  1  0.55663200  0.49644100  0.68823100  1
  N  101  1  0.19125100  0.06772600  0.68052400  1
  N  102  1  0.97808600  0.09561100  0.70351800  1
  N  103  1  0.26609500  0.10014600  0.85670100  1
  N  104  1  0.05626900  0.07062800  0.87850900  1
  N  127  1  0.93333000  0.89372800  0.08480800  1
  N  128  1  0.72173700  0.85833500  0.09467800  1
  N  129  1  0.03670300  0.72066200  0.10765100  1
  N  130  1  0.83252400  0.68679800  0.08345200  1
  N  153  1  0.43389800  0.67254500  0.48114900  1
  N  154  1  0.22212700  0.70727500  0.47053400  1
  N  155  1  0.53541800  0.84607000  0.45890300  1
  N  156  1  0.33049900  0.87909800  0.48277400  1
  N  179  1  0.18531800  0.98129000  0.39309300  1
  N  180  1  0.97295400  0.97064400  0.35897100  1
  N  181  1  0.28504400  0.95889000  0.21940300  1
  N  182  1  0.07960500  0.98275800  0.18691000  1
  N  205  1  0.68201600  0.58460200  0.17206600  1
  N  206  1  0.47035300  0.59335700  0.20769000  1
  N  207  1  0.78546200  0.60827800  0.34499000  1
  N  208  1  0.58196200  0.58306300  0.37914200  1
  N  227  1  0.76347200  0.20801800  0.67502100  1
  N  230  1  0.82418200  0.14512100  0.59518400  1
  N  255  1  0.26269100  0.35805300  0.89151000  1
  N  258  1  0.32315000  0.42102100  0.97137200  1
  N  283  1  0.01296400  0.39130100  0.70822000  1
  N  286  1  0.07371600  0.47105200  0.64516200  1
  N  311  1  0.51326200  0.17477400  0.85786300  1
  N  314  1  0.57349000  0.09483600  0.92063900  1
  N  339  1  0.28265500  0.70583800  0.18078700  1
  N  342  1  0.33164700  0.63973900  0.10149500  1
  N  367  1  0.78243200  0.85943200  0.38658900  1
  N  370  1  0.83096600  0.92583900  0.46553600  1
  N  395  1  0.53182600  0.88611300  0.20610400  1
  N  398  1  0.58097000  0.96487100  0.13958400  1
  N  423  1  0.03214000  0.68024900  0.35899300  1
  N  426  1  0.07924100  0.60125800  0.42530700  1
  N  451  1  0.34981500  0.06402400  0.47980700  1
  N  454  1  0.17640200  0.06166600  0.55442700  1
  N  479  1  0.84662400  0.50144200  0.08677700  1
  N  482  1  0.67556300  0.50417600  0.01053700  1
  N  507  1  0.59911800  0.58663600  0.56410900  1
  N  510  1  0.42634200  0.51142000  0.56200900  1
  N  535  1  0.09792800  0.97953400  0.00177500  1
  N  538  1  0.92588400  0.05510900  0.00461200  1
  N  563  1  0.40228300  0.51464400  0.47300000  1
  N  566  1  0.58536000  0.50778900  0.54058200  1
  N  591  1  0.90194200  0.05281400  0.09317100  1
  N  594  1  0.08517700  0.05825800  0.02555100  1
  N  619  1  0.15161600  0.97302700  0.55186700  1
  N  622  1  0.33509100  0.04028300  0.55852500  1
  N  647  1  0.65295000  0.59335400  0.01449400  1
  N  650  1  0.83567000  0.52539400  0.00816500  1
