# generated using pymatgen
data_Co2H31(C3O)10
_symmetry_space_group_name_H-M   'P 1'
_cell_length_a   14.42034000
_cell_length_b   15.02938000
_cell_length_c   22.23022000
_cell_angle_alpha   89.98401000
_cell_angle_beta   89.99673000
_cell_angle_gamma   83.73442000
_symmetry_Int_Tables_number   1
_chemical_formula_structural   Co2H31(C3O)10
_chemical_formula_sum   'Co8 H124 C120 O40'
_cell_volume   4789.14910044
_cell_formula_units_Z   4
loop_
 _symmetry_equiv_pos_site_id
 _symmetry_equiv_pos_as_xyz
  1  'x, y, z'
loop_
 _atom_site_type_symbol
 _atom_site_label
 _atom_site_symmetry_multiplicity
 _atom_site_fract_x
 _atom_site_fract_y
 _atom_site_fract_z
 _atom_site_occupancy
  Co  Co1  1  0.59124000  0.54748000  0.74471000  1.0
  Co  Co2  1  0.50804000  0.39285000  0.82903000  1.0
  Co  Co3  1  0.52230000  0.58832000  0.25182000  1.0
  Co  Co4  1  0.38817000  0.48721000  0.15848000  1.0
  Co  Co5  1  0.14059000  0.99850000  0.73229000  1.0
  Co  Co6  1  0.98124000  0.92132000  0.64427000  1.0
  Co  Co7  1  0.00437000  0.10477000  0.26652000  1.0
  Co  Co8  1  0.89622000  0.98069000  0.36020000  1.0
  H  H1  1  0.61431000  0.65814000  0.83268000  1.0
  H  H2  1  0.63448000  0.63758000  0.16921000  1.0
  H  H3  1  0.25565000  0.00805000  0.64382000  1.0
  H  H4  1  0.01358000  0.22400000  0.35056000  1.0
  H  H5  1  0.05167000  0.20079000  0.59110000  1.0
  H  H6  1  0.21811000  0.06891000  0.41283000  1.0
  H  H7  1  0.94310000  0.27099000  0.44405000  1.0
  H  H8  1  0.94901000  0.29690000  0.52189000  1.0
  H  H9  1  0.86271000  0.14007000  0.46335000  1.0
  H  H10  1  0.80947000  0.22586000  0.51247000  1.0
  H  H11  1  0.89202000  0.13733000  0.54153000  1.0
  H  H12  1  0.32726000  0.98101000  0.47466000  1.0
  H  H13  1  0.29723000  0.95707000  0.54986000  1.0
  H  H14  1  0.38616000  0.12440000  0.50676000  1.0
  H  H15  1  0.44521000  0.02852000  0.54465000  1.0
  H  H16  1  0.35768000  0.10088000  0.58411000  1.0
  H  H17  1  0.31101000  0.22387000  0.12516000  1.0
  H  H18  1  0.97890000  0.29231000  0.06875000  1.0
  H  H19  1  0.17115000  0.03600000  0.14642000  1.0
  H  H20  1  0.28575000  0.06906000  0.14250000  1.0
  H  H21  1  0.16093000  0.03428000  0.03404000  1.0
  H  H22  1  0.26096000  0.96297000  0.06098000  1.0
  H  H23  1  0.27653000  0.07071000  0.02919000  1.0
  H  H24  1  0.01855000  0.43589000  0.02630000  1.0
  H  H25  1  0.12714000  0.47634000  0.04275000  1.0
  H  H26  1  0.96448000  0.46110000  0.13145000  1.0
  H  H27  1  0.00175000  0.56226000  0.09975000  1.0
  H  H28  1  0.07533000  0.49748000  0.15259000  1.0
  H  H29  1  0.76940000  0.15054000  0.19621000  1.0
  H  H30  1  0.59273000  0.38950000  0.31698000  1.0
  H  H31  1  0.65806000  0.35066000  0.10798000  1.0
  H  H32  1  0.65658000  0.23190000  0.10254000  1.0
  H  H33  1  0.83133000  0.32680000  0.13092000  1.0
  H  H34  1  0.79583000  0.29831000  0.05619000  1.0
  H  H35  1  0.82793000  0.21071000  0.10941000  1.0
  H  H36  1  0.69431000  0.34991000  0.40182000  1.0
  H  H37  1  0.77474000  0.25287000  0.40203000  1.0
  H  H38  1  0.55939000  0.26517000  0.41042000  1.0
  H  H39  1  0.64287000  0.22984000  0.46835000  1.0
  H  H40  1  0.63199000  0.16009000  0.40330000  1.0
  H  H41  1  0.85560000  0.68183000  0.43351000  1.0
  H  H42  1  0.51557000  0.75140000  0.40113000  1.0
  H  H43  1  0.70503000  0.49318000  0.45290000  1.0
  H  H44  1  0.80779000  0.53473000  0.48145000  1.0
  H  H45  1  0.77515000  0.48115000  0.34972000  1.0
  H  H46  1  0.85154000  0.42226000  0.40393000  1.0
  H  H47  1  0.87689000  0.52978000  0.37668000  1.0
  H  H48  1  0.52892000  0.90513000  0.38923000  1.0
  H  H49  1  0.63642000  0.93799000  0.36378000  1.0
  H  H50  1  0.57326000  0.92279000  0.49545000  1.0
  H  H51  1  0.58241000  0.02380000  0.45378000  1.0
  H  H52  1  0.68686000  0.95244000  0.47319000  1.0
  H  H53  1  0.10682000  0.87750000  0.18085000  1.0
  H  H54  1  0.25389000  0.66530000  0.33305000  1.0
  H  H55  1  0.30523000  0.73116000  0.12227000  1.0
  H  H56  1  0.21141000  0.81360000  0.10481000  1.0
  H  H57  1  0.18921000  0.61469000  0.12789000  1.0
  H  H58  1  0.19528000  0.66666667  0.05504000  1.0
  H  H59  1  0.09865000  0.70059000  0.10457000  1.0
  H  H60  1  0.12814000  0.72576000  0.40452000  1.0
  H  H61  1  0.06003000  0.82942000  0.38941000  1.0
  H  H62  1  0.27118000  0.80232000  0.41796000  1.0
  H  H63  1  0.17857000  0.85193000  0.46585000  1.0
  H  H64  1  0.20723000  0.90845000  0.39791000  1.0
  H  H65  1  0.26933000  0.71861000  0.63131000  1.0
  H  H66  1  0.23263000  0.60713000  0.83944000  1.0
  H  H67  1  0.42646000  0.52445000  0.65564000  1.0
  H  H68  1  0.34845000  0.57955000  0.60380000  1.0
  H  H69  1  0.31899000  0.42311000  0.61141000  1.0
  H  H70  1  0.21965000  0.49274000  0.64109000  1.0
  H  H71  1  0.30238000  0.43173000  0.69158000  1.0
  H  H72  1  0.05725000  0.65283000  0.81861000  1.0
  H  H73  1  0.02464000  0.74688000  0.77238000  1.0
  H  H74  1  0.12416000  0.83690000  0.84358000  1.0
  H  H75  1  0.13092000  0.74081000  0.89279000  1.0
  H  H76  1  0.01917000  0.80045000  0.87465000  1.0
  H  H77  1  0.39421000  0.94653000  0.89069000  1.0
  H  H78  1  0.28007000  0.26917000  0.89016000  1.0
  H  H79  1  0.57275000  0.08849000  0.84465000  1.0
  H  H80  1  0.54938000  0.97873000  0.86492000  1.0
  H  H81  1  0.57169000  0.13207000  0.95452000  1.0
  H  H82  1  0.65624000  0.03773000  0.93828000  1.0
  H  H83  1  0.54764000  0.01991000  0.97424000  1.0
  H  H84  1  0.15247000  0.19446000  0.96323000  1.0
  H  H85  1  0.10991000  0.09951000  0.92871000  1.0
  H  H86  1  0.11355000  0.28736000  0.87292000  1.0
  H  H87  1  0.01359000  0.23392000  0.89573000  1.0
  H  H88  1  0.08206000  0.19105000  0.83212000  1.0
  H  H89  1  0.88063000  0.21028000  0.63012000  1.0
  H  H90  1  0.76560000  0.25740000  0.83943000  1.0
  H  H91  1  0.65784000  0.36355000  0.64834000  1.0
  H  H92  1  0.71696000  0.28300000  0.59971000  1.0
  H  H93  1  0.78787000  0.45931000  0.64089000  1.0
  H  H94  1  0.74795000  0.43130000  0.56701000  1.0
  H  H95  1  0.85520000  0.37533000  0.59627000  1.0
  H  H96  1  0.87847000  0.13816000  0.87432000  1.0
  H  H97  1  0.96048000  0.07906000  0.82535000  1.0
  H  H98  1  0.75113000  0.05401000  0.83493000  1.0
  H  H99  1  0.84776000  0.97993000  0.86374000  1.0
  H  H100  1  0.83256000  0.99349000  0.78364000  1.0
  H  H101  1  0.74085000  0.59159000  0.57630000  1.0
  H  H102  1  0.63321000  0.91312000  0.60509000  1.0
  H  H103  1  0.92732000  0.74757000  0.56767000  1.0
  H  H104  1  0.89486000  0.64447000  0.54029000  1.0
  H  H105  1  0.91916000  0.68654000  0.67503000  1.0
  H  H106  1  0.00303000  0.62241000  0.62773000  1.0
  H  H107  1  0.89268000  0.58157000  0.64337000  1.0
  H  H108  1  0.47567000  0.88462000  0.59677000  1.0
  H  H109  1  0.45797000  0.78614000  0.63786000  1.0
  H  H110  1  0.45954000  0.80871000  0.49998000  1.0
  H  H111  1  0.36104000  0.79494000  0.54732000  1.0
  H  H112  1  0.45057000  0.70289000  0.53763000  1.0
  H  H113  1  0.46669000  0.72502000  0.03915000  1.0
  H  H114  1  0.72019000  0.50939000  0.95847000  1.0
  H  H115  1  0.46677000  0.69833000  0.87017000  1.0
  H  H116  1  0.45392000  0.78234000  0.92650000  1.0
  H  H117  1  0.35010000  0.61324000  0.92504000  1.0
  H  H118  1  0.30423000  0.72379000  0.89986000  1.0
  H  H119  1  0.33180000  0.70504000  0.97788000  1.0
  H  H120  1  0.77414000  0.47214000  0.05842000  1.0
  H  H121  1  0.70484000  0.50403000  0.12228000  1.0
  H  H122  1  0.84157000  0.61059000  0.05410000  1.0
  H  H123  1  0.83792000  0.58352000  0.13337000  1.0
  H  H124  1  0.75408000  0.66807000  0.10238000  1.0
  C  C1  1  0.58232000  0.54873000  0.87785000  1.0
  C  C2  1  0.45691000  0.23649000  0.84845000  1.0
  C  C3  1  0.69438000  0.38789000  0.76385000  1.0
  C  C4  1  0.58571000  0.63798000  0.64646000  1.0
  C  C5  1  0.39488000  0.53580000  0.78727000  1.0
  C  C6  1  0.53084000  0.59576000  0.11850000  1.0
  C  C7  1  0.24851000  0.40135000  0.13245000  1.0
  C  C8  1  0.34720000  0.66157000  0.22808000  1.0
  C  C9  1  0.60139000  0.59439000  0.35538000  1.0
  C  C10  1  0.55201000  0.40503000  0.19946000  1.0
  C  C11  1  0.12962000  0.02829000  0.60353000  1.0
  C  C12  1  0.81711000  0.87388000  0.62559000  1.0
  C  C13  1  0.97935000  0.10230000  0.70807000  1.0
  C  C14  1  0.22810000  0.99912000  0.83319000  1.0
  C  C15  1  0.12566000  0.81033000  0.68734000  1.0
  C  C16  1  0.03027000  0.10797000  0.39709000  1.0
  C  C17  1  0.81023000  0.84478000  0.38530000  1.0
  C  C18  1  0.07903000  0.93646000  0.29391000  1.0
  C  C19  1  0.02313000  0.17317000  0.16163000  1.0
  C  C20  1  0.81021000  0.13437000  0.31410000  1.0
  C  C21  1  0.08972000  0.14017000  0.44455000  1.0
  C  C22  1  0.04772000  0.18680000  0.49461000  1.0
  C  C23  1  0.08686000  0.16996000  0.55202000  1.0
  C  C24  1  0.15390000  0.09627000  0.56008000  1.0
  C  C25  1  0.21042000  0.06863000  0.51001000  1.0
  C  C26  1  0.17904000  0.09443000  0.45197000  1.0
  C  C27  1  0.95324000  0.24052000  0.48939000  1.0
  C  C28  1  0.30333000  0.01279000  0.51793000  1.0
  C  C29  1  0.87489000  0.18240000  0.50263000  1.0
  C  C30  1  0.37741000  0.07042000  0.53977000  1.0
  C  C31  1  0.08069000  0.19739000  0.11126000  1.0
  C  C32  1  0.17763000  0.17238000  0.11502000  1.0
  C  C33  1  0.23757000  0.23987000  0.11491000  1.0
  C  C34  1  0.20051000  0.32918000  0.10615000  1.0
  C  C35  1  0.10955000  0.34695000  0.08209000  1.0
  C  C36  1  0.05115000  0.27800000  0.08203000  1.0
  C  C37  1  0.21698000  0.07515000  0.11936000  1.0
  C  C38  1  0.07132000  0.44001000  0.06239000  1.0
  C  C39  1  0.22950000  0.03350000  0.05691000  1.0
  C  C40  1  0.02548000  0.49323000  0.11494000  1.0
  C  C41  1  0.62432000  0.33965000  0.22729000  1.0
  C  C42  1  0.68209000  0.27653000  0.19276000  1.0
  C  C43  1  0.73393000  0.20470000  0.22243000  1.0
  C  C44  1  0.74328000  0.20407000  0.28548000  1.0
  C  C45  1  0.69412000  0.27368000  0.31958000  1.0
  C  C46  1  0.63343000  0.33900000  0.29030000  1.0
  C  C47  1  0.69121000  0.28558000  0.12485000  1.0
  C  C48  1  0.70372000  0.27888000  0.38724000  1.0
  C  C49  1  0.79295000  0.27983000  0.10448000  1.0
  C  C50  1  0.63006000  0.23025000  0.41910000  1.0
  C  C51  1  0.63059000  0.64769000  0.40535000  1.0
  C  C52  1  0.72294000  0.62869000  0.42599000  1.0
  C  C53  1  0.78143000  0.69730000  0.42553000  1.0
  C  C54  1  0.74561000  0.78385000  0.40808000  1.0
  C  C55  1  0.64763000  0.80616000  0.40571000  1.0
  C  C56  1  0.59002000  0.73666000  0.40828000  1.0
  C  C57  1  0.76225000  0.53401000  0.44121000  1.0
  C  C58  1  0.60424000  0.90251000  0.40072000  1.0
  C  C59  1  0.81981000  0.48952000  0.38952000  1.0
  C  C60  1  0.61269000  0.95320000  0.45952000  1.0
  C  C61  1  0.25293000  0.70552000  0.23984000  1.0
  C  C62  1  0.20738000  0.76263000  0.19600000  1.0
  C  C63  1  0.13981000  0.83164000  0.21412000  1.0
  C  C64  1  0.12121000  0.84717000  0.27539000  1.0
  C  C65  1  0.15678000  0.78300000  0.31819000  1.0
  C  C66  1  0.22144000  0.71137000  0.29972000  1.0
  C  C67  1  0.22950000  0.74990000  0.12972000  1.0
  C  C68  1  0.13080000  0.79292000  0.38401000  1.0
  C  C69  1  0.17466000  0.67845000  0.10275000  1.0
  C  C70  1  0.20148000  0.84196000  0.41840000  1.0
  C  C71  1  0.31606000  0.59444000  0.75864000  1.0
  C  C72  1  0.31674000  0.61717000  0.69646000  1.0
  C  C73  1  0.26170000  0.69487000  0.67692000  1.0
  C  C74  1  0.18916000  0.73505000  0.71295000  1.0
  C  C75  1  0.17324000  0.69700000  0.77011000  1.0
  C  C76  1  0.24110000  0.63180000  0.79420000  1.0
  C  C77  1  0.35231000  0.54867000  0.64935000  1.0
  C  C78  1  0.08083000  0.71674000  0.80256000  1.0
  C  C79  1  0.29455000  0.46929000  0.64852000  1.0
  C  C80  1  0.08960000  0.77757000  0.85668000  1.0
  C  C81  1  0.39811000  0.17131000  0.87249000  1.0
  C  C82  1  0.43309000  0.08030000  0.87990000  1.0
  C  C83  1  0.36943000  0.01724000  0.88918000  1.0
  C  C84  1  0.27397000  0.04377000  0.88162000  1.0
  C  C85  1  0.24219000  0.13387000  0.89398000  1.0
  C  C86  1  0.30438000  0.19858000  0.88628000  1.0
  C  C87  1  0.53677000  0.05022000  0.87856000  1.0
  C  C88  1  0.14588000  0.15985000  0.91950000  1.0
  C  C89  1  0.58048000  0.06081000  0.94030000  1.0
  C  C90  1  0.08539000  0.22179000  0.87726000  1.0
  C  C91  1  0.75349000  0.30409000  0.74783000  1.0
  C  C92  1  0.77987000  0.28496000  0.68739000  1.0
  C  C93  1  0.85321000  0.21782000  0.67519000  1.0
  C  C94  1  0.89277000  0.16220000  0.72100000  1.0
  C  C95  1  0.85747000  0.17364000  0.78052000  1.0
  C  C96  1  0.78972000  0.24613000  0.79358000  1.0
  C  C97  1  0.72834000  0.33267000  0.63524000  1.0
  C  C98  1  0.88603000  0.10582000  0.82935000  1.0
  C  C99  1  0.78351000  0.40401000  0.60839000  1.0
  C  C100  1  0.82551000  0.02864000  0.82760000  1.0
  C  C101  1  0.75264000  0.81337000  0.60205000  1.0
  C  C102  1  0.78379000  0.72333000  0.58721000  1.0
  C  C103  1  0.71771000  0.66180000  0.58230000  1.0
  C  C104  1  0.62505000  0.68823000  0.59832000  1.0
  C  C105  1  0.59236000  0.77989000  0.59350000  1.0
  C  C106  1  0.65713000  0.84275000  0.59911000  1.0
  C  C107  1  0.88636000  0.69145000  0.57895000  1.0
  C  C108  1  0.48861000  0.81041000  0.59588000  1.0
  C  C109  1  0.92745000  0.64271000  0.63482000  1.0
  C  C110  1  0.43726000  0.77684000  0.54178000  1.0
  C  C111  1  0.59189000  0.59112000  0.93714000  1.0
  C  C112  1  0.52330000  0.65793000  0.95934000  1.0
  C  C113  1  0.51975000  0.67527000  0.02136000  1.0
  C  C114  1  0.57380000  0.61891000  0.06113000  1.0
  C  C115  1  0.65259000  0.56539000  0.03859000  1.0
  C  C116  1  0.66181000  0.55312000  0.97626000  1.0
  C  C117  1  0.45214000  0.70953000  0.91855000  1.0
  C  C118  1  0.73162000  0.52987000  0.07967000  1.0
  C  C119  1  0.35367000  0.68606000  0.93131000  1.0
  C  C120  1  0.79498000  0.60256000  0.09306000  1.0
  O  O1  1  0.58414000  0.66874000  0.70027000  1.0
  O  O2  1  0.46504000  0.50040000  0.75645000  1.0
  O  O3  1  0.59051000  0.46122000  0.87629000  1.0
  O  O4  1  0.59328000  0.55142000  0.64764000  1.0
  O  O5  1  0.38278000  0.48696000  0.83453000  1.0
  O  O6  1  0.50605000  0.28031000  0.88352000  1.0
  O  O7  1  0.43433000  0.28261000  0.80043000  1.0
  O  O8  1  0.72223000  0.46514000  0.75039000  1.0
  O  O9  1  0.60399000  0.39186000  0.76038000  1.0
  O  O10  1  0.59729000  0.59468000  0.82873000  1.0
  O  O11  1  0.63915000  0.60253000  0.30357000  1.0
  O  O12  1  0.50048000  0.46075000  0.23244000  1.0
  O  O13  1  0.44173000  0.58534000  0.11749000  1.0
  O  O14  1  0.51504000  0.58089000  0.34837000  1.0
  O  O15  1  0.50733000  0.38720000  0.15089000  1.0
  O  O16  1  0.28254000  0.46000000  0.09936000  1.0
  O  O17  1  0.29419000  0.39090000  0.18247000  1.0
  O  O18  1  0.41859000  0.70001000  0.24638000  1.0
  O  O19  1  0.36469000  0.57472000  0.22971000  1.0
  O  O20  1  0.57346000  0.61016000  0.16996000  1.0
  O  O21  1  0.26423000  0.99525000  0.78022000  1.0
  O  O22  1  0.09029000  0.87754000  0.71941000  1.0
  O  O23  1  0.06154000  0.98114000  0.58838000  1.0
  O  O24  1  0.13841000  0.00262000  0.82912000  1.0
  O  O25  1  0.07386000  0.79905000  0.64078000  1.0
  O  O26  1  0.86393000  0.91881000  0.58969000  1.0
  O  O27  1  0.86373000  0.85591000  0.67464000  1.0
  O  O28  1  0.05958000  0.12649000  0.72430000  1.0
  O  O29  1  0.98053000  0.01586000  0.71180000  1.0
  O  O30  1  0.18668000  0.00251000  0.64824000  1.0
  O  O31  1  0.02870000  0.21269000  0.21269000  1.0
  O  O32  1  0.87001000  0.08433000  0.28242000  1.0
  O  O33  1  0.99537000  0.03165000  0.40667000  1.0
  O  O34  1  0.00478000  0.09195000  0.17009000  1.0
  O  O35  1  0.79104000  0.09407000  0.36355000  1.0
  O  O36  1  0.86873000  0.87900000  0.41930000  1.0
  O  O37  1  0.79862000  0.88786000  0.33507000  1.0
  O  O38  1  0.12065000  0.00552000  0.27838000  1.0
  O  O39  1  0.98913000  0.95541000  0.29080000  1.0
  O  O40  1  0.00919000  0.15722000  0.34871000  1.0
