# generated using pymatgen
data_LaC12(ClO)6
_symmetry_space_group_name_H-M   'P 1'
_cell_length_a   8.88700000
_cell_length_b   10.03900000
_cell_length_c   13.29127137
_cell_angle_alpha   86.15694196
_cell_angle_beta   70.46898028
_cell_angle_gamma   78.43500000
_symmetry_Int_Tables_number   1
_chemical_formula_structural   LaC12(ClO)6
_chemical_formula_sum   'La2 C24 Cl12 O12'
_cell_volume   1094.88259892
_cell_formula_units_Z   2
loop_
 _symmetry_equiv_pos_site_id
 _symmetry_equiv_pos_as_xyz
  1  'x, y, z'
loop_
 _atom_site_type_symbol
 _atom_site_label
 _atom_site_symmetry_multiplicity
 _atom_site_fract_x
 _atom_site_fract_y
 _atom_site_fract_z
 _atom_site_occupancy
  C  C1  1  0.08365000  0.75220000  0.53370000  1.0
  C  C2  1  0.04423000  0.62050000  0.51634000  1.0
  C  C3  1  0.95901000  0.54730000  0.60218000  1.0
  C  C4  1  0.08736000  0.56730000  0.41508000  1.0
  C  C5  1  0.99740000  0.87210000  0.05340000  1.0
  C  C11  1  0.38265000  0.24780000  0.53370000  1.0
  C  C12  1  0.43943000  0.37950000  0.51634000  1.0
  C  C13  1  0.43881000  0.45270000  0.60218000  1.0
  C  C14  1  0.49756000  0.43270000  0.41508000  1.0
  C  C15  1  0.94920000  0.12790000  0.05340000  1.0
  C  C21  1  0.91635000  0.24780000  0.46630000  1.0
  C  C22  1  0.95577000  0.37950000  0.48366000  1.0
  C  C23  1  0.04099000  0.45270000  0.39782000  1.0
  C  C24  1  0.91264000  0.43270000  0.58492000  1.0
  C  C25  1  0.00260000  0.12790000  0.94660000  1.0
  C  C31  1  0.61735000  0.75220000  0.46630000  1.0
  C  C32  1  0.56057000  0.62050000  0.48366000  1.0
  C  C33  1  0.56119000  0.54730000  0.39782000  1.0
  C  C34  1  0.50244000  0.56730000  0.58492000  1.0
  C  C35  1  0.05080000  0.87210000  0.94660000  1.0
  C  C41  1  0.88410000  0.00000000  0.23180000  1.0
  C  C42  1  0.94350000  0.00000000  0.11300000  1.0
  C  C45  1  0.11590000  0.00000000  0.76820000  1.0
  C  C46  1  0.05650000  0.00000000  0.88700000  1.0
  Cl  Cl1  1  0.90444000  0.61576000  0.72986000  1.0
  Cl  Cl2  1  0.19986000  0.65594000  0.30756000  1.0
  Cl  Cl3  1  0.98294000  0.72750000  0.12584000  1.0
  Cl  Cl7  1  0.36570000  0.38424000  0.72986000  1.0
  Cl  Cl8  1  0.49258000  0.34406000  0.30756000  1.0
  Cl  Cl9  1  0.89122000  0.27250000  0.12584000  1.0
  Cl  Cl13  1  0.09556000  0.38424000  0.27014000  1.0
  Cl  Cl14  1  0.80014000  0.34406000  0.69244000  1.0
  Cl  Cl15  1  0.01706000  0.27250000  0.87416000  1.0
  Cl  Cl19  1  0.63430000  0.61576000  0.27014000  1.0
  Cl  Cl20  1  0.50742000  0.65594000  0.69244000  1.0
  Cl  Cl21  1  0.10878000  0.72750000  0.87416000  1.0
  La  La1  1  0.76588000  0.00000000  0.46824000  1.0
  La  La3  1  0.23412000  0.00000000  0.53176000  1.0
  O  O1  1  0.01164000  0.86590000  0.51032000  1.0
  O  O2  1  0.20645000  0.75180000  0.56450000  1.0
  O  O3  1  0.73390000  0.00610000  0.28200000  1.0
  O  O7  1  0.47804000  0.13410000  0.51032000  1.0
  O  O8  1  0.22905000  0.24820000  0.56450000  1.0
  O  O9  1  0.98410000  0.99390000  0.28200000  1.0
  O  O13  1  0.98836000  0.13410000  0.48968000  1.0
  O  O14  1  0.79355000  0.24820000  0.43550000  1.0
  O  O15  1  0.26610000  0.99390000  0.71800000  1.0
  O  O19  1  0.52196000  0.86590000  0.48968000  1.0
  O  O20  1  0.77095000  0.75180000  0.43550000  1.0
  O  O21  1  0.01590000  0.00610000  0.71800000  1.0
