# generated using pymatgen
data_ZnH13C19N2ClO6
_symmetry_space_group_name_H-M   'P 1'
_cell_length_a   7.74902000
_cell_length_b   8.57919000
_cell_length_c   22.99218000
_cell_angle_alpha   89.12706000
_cell_angle_beta   85.87160000
_cell_angle_gamma   86.85487000
_symmetry_Int_Tables_number   1
_chemical_formula_structural   ZnH13C19N2ClO6
_chemical_formula_sum   'Zn2 H26 C38 N4 Cl2 O12'
_cell_volume   1522.16709009
_cell_formula_units_Z   2
loop_
 _symmetry_equiv_pos_site_id
 _symmetry_equiv_pos_as_xyz
  1  'x, y, z'
loop_
 _atom_site_type_symbol
 _atom_site_label
 _atom_site_symmetry_multiplicity
 _atom_site_fract_x
 _atom_site_fract_y
 _atom_site_fract_z
 _atom_site_occupancy
  Zn  Zn0  1  0.69307000  0.51800000  0.49339000  1
  Zn  Zn1  1  0.30693000  0.48200000  0.50661000  1
  H  H2  1  0.86395000  0.81554000  0.93806000  1
  H  H3  1  0.66551000  0.33143000  0.69140000  1
  H  H4  1  0.98605000  0.38179000  0.54338000  1
  H  H5  1  0.01396000  0.61819000  0.45661000  1
  H  H6  1  0.23352000  0.17171000  0.19942000  1
  H  H7  1  0.09871000  0.15210000  0.26661000  1
  H  H8  1  0.29119000  0.26158000  0.26520000  1
  H  H9  1  0.34459000  0.00301000  0.31139000  1
  H  H10  1  0.47603000  0.01970000  0.24385000  1
  H  H11  1  0.25549000  0.87795000  0.19260000  1
  H  H12  1  0.13098000  0.85233000  0.26019000  1
  H  H13  1  0.05898000  0.53652000  0.06329000  1
  H  H14  1  0.94146000  0.27535000  0.88396000  1
  H  H15  1  0.92703000  0.11672000  0.83363000  1
  H  H16  1  0.11267000  0.23548000  0.82787000  1
  H  H17  1  0.91708000  0.31158000  0.75100000  1
  H  H18  1  0.92466000  0.46821000  0.80184000  1
  H  H19  1  0.64839000  0.37737000  0.85487000  1
  H  H20  1  0.63665000  0.23261000  0.80077000  1
  H  H21  1  0.85648000  0.82707000  0.04384000  1
  H  H22  1  0.06552000  0.52689000  0.95767000  1
  H  H23  1  0.66609000  0.44147000  0.19447000  1
  H  H24  1  0.33293000  0.80337000  0.76955000  1
  H  H25  1  0.68059000  0.36514000  0.29758000  1
  H  H26  1  0.33417000  0.74194000  0.66570000  1
  H  H27  1  0.29792000  0.73133000  0.34640000  1
  C  C28  1  0.45531000  0.79451000  0.50138000  1
  C  C29  1  0.59490000  0.43479000  0.70899000  1
  C  C30  1  0.37469000  0.71860000  0.25474000  1
  C  C31  1  0.59231000  0.46669000  0.76861000  1
  C  C32  1  0.47754000  0.63323000  0.21178000  1
  C  C33  1  0.49799000  0.60238000  0.79012000  1
  C  C34  1  0.43759000  0.95480000  0.51169000  1
  C  C35  1  0.56207000  0.04520000  0.48799000  1
  C  C36  1  0.49736000  0.50273000  0.38914000  1
  C  C37  1  0.50181000  0.50151000  0.61085000  1
  C  C38  1  0.33565000  0.59781000  0.88291000  1
  C  C39  1  0.54464000  0.20548000  0.49848000  1
  C  C40  1  0.60116000  0.72526000  0.11921000  1
  C  C41  1  0.61743000  0.70025000  0.87565000  1
  C  C42  1  0.32110000  0.61912000  0.12578000  1
  C  C43  1  0.61105000  0.71929000  0.93611000  1
  C  C44  1  0.31511000  0.62650000  0.06528000  1
  C  C45  1  0.46368000  0.67290000  0.97017000  1
  C  C46  1  0.45949000  0.67927000  0.03131000  1
  C  C47  1  0.32284000  0.61500000  0.94333000  1
  C  C48  1  0.60250000  0.73243000  0.05836000  1
  C  C49  1  0.74991000  0.77818000  0.96336000  1
  C  C50  1  0.58721000  0.50646000  0.22759000  1
  C  C51  1  0.17222000  0.57570000  0.03801000  1
  C  C52  1  0.74559000  0.78483000  0.02400000  1
  C  C53  1  0.17594000  0.57022000  0.97748000  1
  C  C54  1  0.26491000  0.86367000  0.24032000  1
  C  C55  1  0.34116000  0.01047000  0.26317000  1
  C  C56  1  0.23408000  0.15786000  0.24753000  1
  C  C57  1  0.68234000  0.35082000  0.80822000  1
  C  C58  1  0.87973000  0.34891000  0.79645000  1
  C  C59  1  0.97036000  0.23700000  0.83818000  1
  C  C60  1  0.40660000  0.70078000  0.75275000  1
  C  C61  1  0.59393000  0.46199000  0.28571000  1
  C  C62  1  0.40642000  0.66532000  0.69420000  1
  C  C63  1  0.48596000  0.54065000  0.32802000  1
  C  C64  1  0.50071000  0.53284000  0.67240000  1
  C  C65  1  0.37700000  0.66809000  0.31275000  1
  N  N66  1  0.48317000  0.63586000  0.85088000  1
  N  N67  1  0.46381000  0.66564000  0.15120000  1
  N  N68  1  0.04967000  0.45795000  0.51544000  1
  N  N69  1  0.95033000  0.54205000  0.48456000  1
  Cl  Cl70  1  0.27587000  0.01279000  0.56732000  1
  Cl  Cl71  1  0.72307000  0.98720000  0.43213000  1
  O  O72  1  0.61075000  0.73857000  0.49621000  1
  O  O73  1  0.73728000  0.77361000  0.14626000  1
  O  O74  1  0.75708000  0.74299000  0.84193000  1
  O  O75  1  0.18780000  0.56183000  0.15903000  1
  O  O76  1  0.38925000  0.26143000  0.50379000  1
  O  O77  1  0.32161000  0.71162000  0.50611000  1
  O  O78  1  0.67839000  0.28838000  0.49389000  1
  O  O79  1  0.64460000  0.51352000  0.41121000  1
  O  O80  1  0.35540000  0.48648000  0.58879000  1
  O  O81  1  0.35545000  0.48657000  0.42110000  1
  O  O82  1  0.64455000  0.51343000  0.57890000  1
  O  O83  1  0.20360000  0.54033000  0.85632000  1
