# generated using pymatgen
data_H5(C3N)2
_symmetry_space_group_name_H-M   'P 1'
_cell_length_a   9.77693333
_cell_length_b   47.42980000
_cell_length_c   47.42980000
_cell_angle_alpha   120.00000000
_cell_angle_beta   90.00000000
_cell_angle_gamma   90.00000000
_symmetry_Int_Tables_number   1
_chemical_formula_structural   H5(C3N)2
_chemical_formula_sum   'H90 C108 N36'
_cell_volume   19047.40745763
_cell_formula_units_Z   18
loop_
 _symmetry_equiv_pos_site_id
 _symmetry_equiv_pos_as_xyz
  1  'x, y, z'
loop_
 _atom_site_type_symbol
 _atom_site_label
 _atom_site_symmetry_multiplicity
 _atom_site_fract_x
 _atom_site_fract_y
 _atom_site_fract_z
 _atom_site_occupancy
  C  1  1  0.96986000  0.85777900  0.43464000  1
  C  3  1  0.96718100  0.80125300  0.41914300  1
  C  5  1  0.96396600  0.81690600  0.37827800  1
  C  7  1  0.96207300  0.80578400  0.34458800  1
  C  8  1  0.97840700  0.89054800  0.45906800  1
  C  9  1  0.96693500  0.77318100  0.42235300  1
  C  12  1  0.95514500  0.94757500  0.47445500  1
  C  13  1  0.86320400  0.96697400  0.46854200  1
  C  15  1  0.04992100  0.96416900  0.50004200  1
  C  18  1  0.95244300  0.76928100  0.25682800  1
  C  75  1  0.96726200  0.58936800  0.17593100  1
  C  76  1  0.96702800  0.62065000  0.20400100  1
  C  79  1  0.96397100  0.59890600  0.44433400  1
  C  81  1  0.96207700  0.63259500  0.46690200  1
  C  84  1  0.96764400  0.68065100  0.23587900  1
  C  85  1  0.97261500  0.68477700  0.26758800  1
  C  86  1  0.97120400  0.71568400  0.29619200  1
  C  87  1  0.96475900  0.74438900  0.29380800  1
  C  88  1  0.96027800  0.74106600  0.26223200  1
  C  90  1  0.96221200  0.70946300  0.23407900  1
  C  92  1  0.97620800  0.71725600  0.32833900  1
  C  98  1  0.97627000  0.58256100  0.25992700  1
  C  102  1  0.96760600  0.74130400  0.45047800  1
  C  103  1  0.97254400  0.70959500  0.42289500  1
  C  104  1  0.97115900  0.68099100  0.42519800  1
  C  105  1  0.96474800  0.68337600  0.45628600  1
  C  106  1  0.96027900  0.71495000  0.48453900  1
  C  108  1  0.96222000  0.74310500  0.48108900  1
  C  109  1  0.97615400  0.64884400  0.39462400  1
  C  113  1  0.95250100  0.72035500  0.51815800  1
  C  208  1  0.96988100  0.54833800  0.11940500  1
  C  210  1  0.96396600  0.53285100  0.16027800  1
  C  212  1  0.96202700  0.51028400  0.17140200  1
  C  213  1  0.97841100  0.54000000  0.08663600  1
  C  216  1  0.96985400  0.54254300  0.42884500  1
  C  218  1  0.96720800  0.55804000  0.38781600  1
  C  219  1  0.97838500  0.51811500  0.43718600  1
  C  220  1  0.96699700  0.55483100  0.35653500  1
  C  222  1  0.96226300  0.45511100  0.81749300  1
  C  224  1  0.97066900  0.44863400  0.55240400  1
  C  226  1  0.95516400  0.49836300  0.02960800  1
  C  227  1  0.86327500  0.47303500  0.01021000  1
  C  228  1  0.86175000  0.45751400  0.97562200  1
  C  229  1  0.95963500  0.46647500  0.95912300  1
  C  230  1  0.05320600  0.49210900  0.97846100  1
  C  232  1  0.04993200  0.50735600  0.01301400  1
  C  234  1  0.15822800  0.50400400  0.96412400  1
  C  240  1  0.95514400  0.50272300  0.47882300  1
  C  241  1  0.86327400  0.50865600  0.50415400  1
  C  242  1  0.86173000  0.48958800  0.51967200  1
  C  243  1  0.95950600  0.46409600  0.51067500  1
  C  244  1  0.05314900  0.45781800  0.48506300  1
  C  246  1  0.04991100  0.47713600  0.46982700  1
  C  248  1  0.75453400  0.49611800  0.54448900  1
  C  255  1  0.96763700  0.52670600  0.29653400  1
  C  256  1  0.97264600  0.55428900  0.29240700  1
  C  257  1  0.97122700  0.55198600  0.26150100  1
  C  258  1  0.96474400  0.52089800  0.23279600  1
  C  259  1  0.96022600  0.49264700  0.23611900  1
  C  260  1  0.96217100  0.49609500  0.26772200  1
  C  262  1  0.95233600  0.45902800  0.20790400  1
  C  268  1  0.96556100  0.44475800  0.75618800  1
  C  269  1  0.95866300  0.47305600  0.75297500  1
  C  270  1  0.96026800  0.46973500  0.72142300  1
  C  272  1  0.94830100  0.50658500  0.78125500  1
  C  415  1  0.96661400  0.10799300  0.55320800  1
  C  417  1  0.96731700  0.16460300  0.56897900  1
  C  419  1  0.96414400  0.14869400  0.60965600  1
  C  421  1  0.96226200  0.15968900  0.64332100  1
  C  422  1  0.97066900  0.07525200  0.52854500  1
  C  423  1  0.96823400  0.19275500  0.56590800  1
  C  427  1  0.96663200  0.41669400  0.86918900  1
  C  429  1  0.96730400  0.37585500  0.81257900  1
  C  431  1  0.96415000  0.43244000  0.82849000  1
  C  433  1  0.97070300  0.42477500  0.90193200  1
  C  434  1  0.96819700  0.34463400  0.78442800  1
  C  437  1  0.96660400  0.42397400  0.56048700  1
  C  439  1  0.96732400  0.40820600  0.60132700  1
  C  441  1  0.96412300  0.36753000  0.54474500  1
  C  443  1  0.96221700  0.33386400  0.52207500  1
  C  444  1  0.96824800  0.41127800  0.63255200  1
  C  447  1  0.86170900  0.00156200  0.48760000  1
  C  448  1  0.95961300  0.01806000  0.51305700  1
  C  449  1  0.05319000  0.99872400  0.51935200  1
  C  450  1  0.75450900  0.01984900  0.48107100  1
  C  454  1  0.15823700  0.01305900  0.54557700  1
  C  459  1  0.75454900  0.43269900  0.95733400  1
  C  463  1  0.15816500  0.43158500  0.47316600  1
  C  466  1  0.96779800  0.28463100  0.75235900  1
  C  467  1  0.97522600  0.28061400  0.72071400  1
  C  468  1  0.97412900  0.24976200  0.69203900  1
  C  469  1  0.96555700  0.22099700  0.69427500  1
  C  470  1  0.95871400  0.22420900  0.72578400  1
  C  472  1  0.96031800  0.25576000  0.75401400  1
  C  474  1  0.98143800  0.24831000  0.65996800  1
  C  478  1  0.94842900  0.19592800  0.73103400  1
  C  484  1  0.96781100  0.43920900  0.69255300  1
  C  485  1  0.97530200  0.41158300  0.69656900  1
  C  486  1  0.97419000  0.41376000  0.72742200  1
  C  488  1  0.98154600  0.38313900  0.72887100  1
  C  493  1  0.96781400  0.22482600  0.53797700  1
  C  494  1  0.97531100  0.25646700  0.56560300  1
  C  495  1  0.97419400  0.28514400  0.56342700  1
  C  496  1  0.96554100  0.28291000  0.53242900  1
  C  497  1  0.95862700  0.25140200  0.50413200  1
  C  499  1  0.96024800  0.22316900  0.50745100  1
  C  501  1  0.98156700  0.31721500  0.59404700  1
  C  505  1  0.94823500  0.24615100  0.47060100  1
  H  10  1  0.00524500  0.89530700  0.48123700  1
  H  11  1  0.96115900  0.82234100  0.33683400  1
  H  14  1  0.79354800  0.95539800  0.45011700  1
  H  16  1  0.11934400  0.95069300  0.50448400  1
  H  19  1  0.95028400  0.79261200  0.27931200  1
  H  20  1  0.85974600  0.76752600  0.24321900  1
  H  21  1  0.04103800  0.76921000  0.24279300  1
  H  23  1  0.95836500  0.76568600  0.50151600  1
  H  73  1  0.96442000  0.75199100  0.40065600  1
  H  77  1  0.96448800  0.62014300  0.22519100  1
  H  82  1  0.96446800  0.57652700  0.35704300  1
  H  83  1  0.96115800  0.64035000  0.49121400  1
  H  89  1  0.97821200  0.66489400  0.27040000  1
  H  91  1  0.95835000  0.70730800  0.21149800  1
  H  93  1  0.98176100  0.69333400  0.32636500  1
  H  94  1  0.88419200  0.72929200  0.34214800  1
  H  95  1  0.06617800  0.73101200  0.34180800  1
  H  97  1  0.97826300  0.57698400  0.31229000  1
  H  99  1  0.98184800  0.60450900  0.28385000  1
  H  100  1  0.88425300  0.58434200  0.24789700  1
  H  101  1  0.06623600  0.58226800  0.24616900  1
  H  107  1  0.97812900  0.70678200  0.40019900  1
  H  110  1  0.98167800  0.65081700  0.37267500  1
  H  111  1  0.88415000  0.63503300  0.39285400  1
  H  112  1  0.06613800  0.63537600  0.39490600  1
  H  114  1  0.95035200  0.69787200  0.51900600  1
  H  115  1  0.85981800  0.73396800  0.53002100  1
  H  116  1  0.04111500  0.73438800  0.53211600  1
  H  214  1  0.00523000  0.55741000  0.08187700  1
  H  215  1  0.96111200  0.48597000  0.15484500  1
  H  221  1  0.00518400  0.49594500  0.41977500  1
  H  223  1  0.95976700  0.47939600  0.83412400  1
  H  225  1  0.98755100  0.47123300  0.57032200  1
  H  231  1  0.79357800  0.46620000  0.02178800  1
  H  233  1  0.11933900  0.52527700  0.02648900  1
  H  235  1  0.15690600  0.49116700  0.93759700  1
  H  236  1  0.26003700  0.50099100  0.97172000  1
  H  237  1  0.14145500  0.52981700  0.97274100  1
  H  245  1  0.79360900  0.52707700  0.51099900  1
  H  247  1  0.11932000  0.47269200  0.45190600  1
  H  249  1  0.68081600  0.51448200  0.54686000  1
  H  250  1  0.80172700  0.50487600  0.56826000  1
  H  251  1  0.69777700  0.47382600  0.53782000  1
  H  252  1  0.25997800  0.44219700  0.47619900  1
  H  261  1  0.95826400  0.47566900  0.26987700  1
  H  263  1  0.95017200  0.45818100  0.18457400  1
  H  264  1  0.85962400  0.44718100  0.20966400  1
  H  265  1  0.04091600  0.44505600  0.20797000  1
  H  271  1  0.95450900  0.49019000  0.71935000  1
  H  273  1  0.94673100  0.50733400  0.80454100  1
  H  274  1  0.85440800  0.51802300  0.77943500  1
  H  275  1  0.03550400  0.52100100  0.78134900  1
  H  424  1  0.96809400  0.21389900  0.58766000  1
  H  425  1  0.98752900  0.07057700  0.50594700  1
  H  426  1  0.95978200  0.14305800  0.65097500  1
  H  435  1  0.96808700  0.34524000  0.76328300  1
  H  436  1  0.98757100  0.40685000  0.90660600  1
  H  445  1  0.96810800  0.38952700  0.63194400  1
  H  446  1  0.95971500  0.32620800  0.49778900  1
  H  451  1  0.68074200  0.00385700  0.46272300  1
  H  452  1  0.80169100  0.03484900  0.47229600  1
  H  453  1  0.69781400  0.03548500  0.50337100  1
  H  455  1  0.15690800  0.03958500  0.55926600  1
  H  456  1  0.26003700  0.00546200  0.53496100  1
  H  457  1  0.14149300  0.00444100  0.56277300  1
  H  460  1  0.68079300  0.43033800  0.97332700  1
  H  461  1  0.80173100  0.40892600  0.94233000  1
  H  462  1  0.69783900  0.43936600  0.94170300  1
  H  464  1  0.15677400  0.41788400  0.48599100  1
  H  465  1  0.14144300  0.41440300  0.44735100  1
  H  471  1  0.98222600  0.30054500  0.71800900  1
  H  473  1  0.95460000  0.25783500  0.77654400  1
  H  475  1  0.98885900  0.27226000  0.66205500  1
  H  476  1  0.88942300  0.23656300  0.64598300  1
  H  477  1  0.07121200  0.23433800  0.64661900  1
  H  479  1  0.94686400  0.17264100  0.70849700  1
  H  480  1  0.85455900  0.19774200  0.74429800  1
  H  481  1  0.03565800  0.19584100  0.74535200  1
  H  487  1  0.98233900  0.38894900  0.67663900  1
  H  489  1  0.98902200  0.36127900  0.70492500  1
  H  490  1  0.88953100  0.38089200  0.74061300  1
  H  491  1  0.07130900  0.38377300  0.74285200  1
  H  498  1  0.98236400  0.25917100  0.58823700  1
  H  500  1  0.95445900  0.20064200  0.48699800  1
  H  502  1  0.98905800  0.31512700  0.61590800  1
  H  503  1  0.88955000  0.33120300  0.59629800  1
  H  504  1  0.07132900  0.33056100  0.59341200  1
  H  506  1  0.94665000  0.26868800  0.46985300  1
  H  507  1  0.85433600  0.23289200  0.45916700  1
  H  508  1  0.03542800  0.23182900  0.45618200  1
  N  2  1  0.97071700  0.83348100  0.44251200  1
  N  4  1  0.96433000  0.79441500  0.38776800  1
  N  6  1  0.96675500  0.84881500  0.40231400  1
  N  17  1  0.95184000  0.91484500  0.45471300  1
  N  22  1  0.96396100  0.77339500  0.32236300  1
  N  24  1  0.96710500  0.76965400  0.44914800  1
  N  74  1  0.97077100  0.58050900  0.14370200  1
  N  78  1  0.96435900  0.58941500  0.41235300  1
  N  80  1  0.96675200  0.57487000  0.45220800  1
  N  96  1  0.96716000  0.65097300  0.20753000  1
  N  117  1  0.96396000  0.65482000  0.45673800  1
  N  209  1  0.96437000  0.56483200  0.18276900  1
  N  211  1  0.96674800  0.52497700  0.12837000  1
  N  217  1  0.97072600  0.53467100  0.39667600  1
  N  238  1  0.95185900  0.51134500  0.06233600  1
  N  239  1  0.95740500  0.45401000  0.92637000  1
  N  253  1  0.95184100  0.52247100  0.46584100  1
  N  254  1  0.95732200  0.44383100  0.52316500  1
  N  266  1  0.96712600  0.52803500  0.32621100  1
  N  267  1  0.96393900  0.52044900  0.20379000  1
  N  276  1  0.96475900  0.44508600  0.78513600  1
  N  416  1  0.96809000  0.13240600  0.54549700  1
  N  418  1  0.96566800  0.17129600  0.60031200  1
  N  420  1  0.96461500  0.11682000  0.58550700  1
  N  428  1  0.96809400  0.38457200  0.84477700  1
  N  430  1  0.96566000  0.40049400  0.80588700  1
  N  432  1  0.96462600  0.44016700  0.86036500  1
  N  438  1  0.96809800  0.43168700  0.59261100  1
  N  440  1  0.96566300  0.37687500  0.57669000  1
  N  442  1  0.96458900  0.39167700  0.53701700  1
  N  458  1  0.95738900  0.05081200  0.53334400  1
  N  482  1  0.96660100  0.31425700  0.78076700  1
  N  483  1  0.96474900  0.19204700  0.66565400  1
  N  492  1  0.96661100  0.43799500  0.66292900  1
  N  509  1  0.96660100  0.19641600  0.53919300  1
  N  510  1  0.96472800  0.31153000  0.53210000  1
