# generated using pymatgen
data_H24C45(SN6)2
_symmetry_space_group_name_H-M   'P 1'
_cell_length_a   30.64182330
_cell_length_b   30.89480000
_cell_length_c   50.09410000
_cell_angle_alpha   89.94010000
_cell_angle_beta   90.00000000
_cell_angle_gamma   119.72950000
_symmetry_Int_Tables_number   1
_chemical_formula_structural   H24C45(SN6)2
_chemical_formula_sum   'H96 C180 S8 N48'
_cell_volume   41180.74682147
_cell_formula_units_Z   4
loop_
 _symmetry_equiv_pos_site_id
 _symmetry_equiv_pos_as_xyz
  1  'x, y, z'
loop_
 _atom_site_type_symbol
 _atom_site_label
 _atom_site_symmetry_multiplicity
 _atom_site_fract_x
 _atom_site_fract_y
 _atom_site_fract_z
 _atom_site_occupancy
  H  26  1  0.57500900  0.20688800  0.00142700  1
  H  27  1  0.62337600  0.28940900  0.98436300  1
  H  28  1  0.51618800  0.15565800  0.92464100  1
  H  29  1  0.56361900  0.23741600  0.90770100  1
  H  30  1  0.54176500  0.31287500  0.91925500  1
  H  31  1  0.49496300  0.34945100  0.93648200  1
  H  32  1  0.60804100  0.42743900  0.99354900  1
  H  33  1  0.65410900  0.39042500  0.97700700  1
  H  34  1  0.70606000  0.42458200  0.92914100  1
  H  35  1  0.79091100  0.46861000  0.94383600  1
  H  36  1  0.77971100  0.33398500  0.97024600  1
  H  37  1  0.69548500  0.28953700  0.95483300  1
  H  38  1  0.66529100  0.27658100  0.89950100  1
  H  39  1  0.62340300  0.38750100  0.89505100  1
  H  40  1  0.63040400  0.38851600  0.84800000  1
  H  45  1  0.67319900  0.27843100  0.85216800  1
  H  71  1  0.41311300  0.78709600  0.50140400  1
  H  72  1  0.36483000  0.70464600  0.48435200  1
  H  73  1  0.47215600  0.83865000  0.42462300  1
  H  74  1  0.42479600  0.75694200  0.40769200  1
  H  75  1  0.44665700  0.68144200  0.41926900  1
  H  76  1  0.49344200  0.64482700  0.43651600  1
  H  77  1  0.38028200  0.56667900  0.49362300  1
  H  78  1  0.33423300  0.60373200  0.47706000  1
  H  79  1  0.28236700  0.56965000  0.42921000  1
  H  80  1  0.19747100  0.52555600  0.44389400  1
  H  81  1  0.20853200  0.66010100  0.47017700  1
  H  82  1  0.29279900  0.70460800  0.45477400  1
  H  83  1  0.32319400  0.71774400  0.39943600  1
  H  84  1  0.36498000  0.60674900  0.39515200  1
  H  85  1  0.35795800  0.60569700  0.34810500  1
  H  90  1  0.31527200  0.71586200  0.35210300  1
  H  116  1  0.37812500  0.78461800  0.99159100  1
  H  117  1  0.34304600  0.70181400  0.00821000  1
  H  118  1  0.34244900  0.82916200  0.06398900  1
  H  119  1  0.30750200  0.74679800  0.08055600  1
  H  120  1  0.21891100  0.66469600  0.07574300  1
  H  121  1  0.13616300  0.62716700  0.05829600  1
  H  122  1  0.18129700  0.57390700  0.99245500  1
  H  123  1  0.26421700  0.61179000  0.00977900  1
  H  124  1  0.27039800  0.56173800  0.05466700  1
  H  125  1  0.31263300  0.51867900  0.04144800  1
  H  126  1  0.44701700  0.65546500  0.03216900  1
  H  127  1  0.40478900  0.69876400  0.04581900  1
  H  128  1  0.37868400  0.72009100  0.09326600  1
  H  129  1  0.23587000  0.59073600  0.09360700  1
  H  130  1  0.24036600  0.58555100  0.14078500  1
  H  134  1  0.38293000  0.71476000  0.14047900  1
  H  160  1  0.61044500  0.20945300  0.49156100  1
  H  161  1  0.64554000  0.29219800  0.50816900  1
  H  162  1  0.64517600  0.16439900  0.56413400  1
  H  163  1  0.68015500  0.24670500  0.58068500  1
  H  164  1  0.76906700  0.32865100  0.57559500  1
  H  165  1  0.85188300  0.36632800  0.55817500  1
  H  166  1  0.80710400  0.42055700  0.49254300  1
  H  167  1  0.72412300  0.38253800  0.50983400  1
  H  168  1  0.71764700  0.43199000  0.55477400  1
  H  169  1  0.67542600  0.47510200  0.54155900  1
  H  170  1  0.54121100  0.33832300  0.53198700  1
  H  171  1  0.58340600  0.29496700  0.54564300  1
  H  172  1  0.60938500  0.27384000  0.59331100  1
  H  173  1  0.75251400  0.40280000  0.59352100  1
  H  174  1  0.74803000  0.40798600  0.64068800  1
  H  179  1  0.60515800  0.27918100  0.64052200  1
  H  189  1  0.73675300  0.25715700  0.78712500  1
  H  190  1  0.73553600  0.23800000  0.73945600  1
  H  196  1  0.64317400  0.27855000  0.68543200  1
  H  198  1  0.66455700  0.39389300  0.80420500  1
  H  208  1  0.25139100  0.73681200  0.28699800  1
  H  209  1  0.25252400  0.75583900  0.23929100  1
  H  215  1  0.34477500  0.71523400  0.18534900  1
  H  217  1  0.32370500  0.60022400  0.30434900  1
  H  227  1  0.31636400  0.88126100  0.94135700  1
  H  228  1  0.35779100  0.95930600  0.91569900  1
  H  234  1  0.49988600  0.07994200  0.94553500  1
  H  236  1  0.39717800  0.90809200  0.04526200  1
  H  246  1  0.49194800  0.61983300  0.94777100  1
  H  247  1  0.55009500  0.59308700  0.93090900  1
  H  253  1  0.57116700  0.48313200  0.98352500  1
  H  255  1  0.36407800  0.48850400  0.02623800  1
  H  265  1  0.87951300  0.48396900  0.94358800  1
  H  275  1  0.67194400  0.11299600  0.44141100  1
  H  276  1  0.63059000  0.03509600  0.41572900  1
  H  282  1  0.48838500  0.91429400  0.44551500  1
  H  284  1  0.59076500  0.08560700  0.54530400  1
  H  294  1  0.49625500  0.37433400  0.44776700  1
  H  295  1  0.43814800  0.40118400  0.43094100  1
  H  301  1  0.41710900  0.51098300  0.48356400  1
  H  303  1  0.62412400  0.50532800  0.52615600  1
  H  309  1  0.89470600  0.46562700  0.42995500  1
  H  310  1  0.97438100  0.50973200  0.40532300  1
  H  312  1  0.92847100  0.40977200  0.53593300  1
  H  316  1  0.10887200  0.51022000  0.44357300  1
  H  317  1  0.09363000  0.52810800  0.93014700  1
  H  325  1  0.01405600  0.48431300  0.90545800  1
  H  327  1  0.05940100  0.58284000  0.03637300  1
  C  1  1  0.65217800  0.33328000  0.84540200  1
  C  2  1  0.63781700  0.36464100  0.85862400  1
  C  3  1  0.63255800  0.36303000  0.88659800  1
  C  4  1  0.63994100  0.32922000  0.90267000  1
  C  5  1  0.65738900  0.30029700  0.88902800  1
  C  6  1  0.66219800  0.30130400  0.86105200  1
  C  7  1  0.63443000  0.32604600  0.93318400  1
  C  8  1  0.68977300  0.35231800  0.94183900  1
  C  9  1  0.71412100  0.32736900  0.95282500  1
  C  10  1  0.76440300  0.35341200  0.96158200  1
  C  11  1  0.79354500  0.40545600  0.95843500  1
  C  12  1  0.77118700  0.43072400  0.94605200  1
  C  13  1  0.72081300  0.40450200  0.93758400  1
  C  14  1  0.60545800  0.35059300  0.94459700  1
  C  15  1  0.60274900  0.27242500  0.94356400  1
  C  16  1  0.60181000  0.26156700  0.97125000  1
  C  17  1  0.57311200  0.21286000  0.98146600  1
  C  18  1  0.54259500  0.17267000  0.96453700  1
  C  19  1  0.53980400  0.18322500  0.93734700  1
  C  20  1  0.56863800  0.23197700  0.92729900  1
  C  21  1  0.55700900  0.33772300  0.93461800  1
  C  22  1  0.52911700  0.35909600  0.94476400  1
  C  23  1  0.54818300  0.39394600  0.96575100  1
  C  24  1  0.59441900  0.40447000  0.97732200  1
  C  25  1  0.62188200  0.38271600  0.96718400  1
  C  46  1  0.33625800  0.66098500  0.34542000  1
  C  47  1  0.35060900  0.62962300  0.35868900  1
  C  48  1  0.35587100  0.63125100  0.38666000  1
  C  49  1  0.34851100  0.66508200  0.40268400  1
  C  50  1  0.33109800  0.69402500  0.38899600  1
  C  51  1  0.32627500  0.69299700  0.36102200  1
  C  52  1  0.35394700  0.66819500  0.43319600  1
  C  53  1  0.29858500  0.64187500  0.44184800  1
  C  54  1  0.27418300  0.66678300  0.45279200  1
  C  55  1  0.22388100  0.64070000  0.46154700  1
  C  56  1  0.19476600  0.58866400  0.45842700  1
  C  57  1  0.21718600  0.56343200  0.44610200  1
  C  58  1  0.26758500  0.58968900  0.43764600  1
  C  59  1  0.38293800  0.64366400  0.44463500  1
  C  60  1  0.38555700  0.72179300  0.44355100  1
  C  61  1  0.38644300  0.73253800  0.47123700  1
  C  62  1  0.41508500  0.78120500  0.48144600  1
  C  63  1  0.44561400  0.82147100  0.46451200  1
  C  64  1  0.44852100  0.81102100  0.43733100  1
  C  65  1  0.41972500  0.76230800  0.42728800  1
  C  66  1  0.43140200  0.65656700  0.43465200  1
  C  67  1  0.45928400  0.63517100  0.44480900  1
  C  68  1  0.44020200  0.60028800  0.46582300  1
  C  69  1  0.39394000  0.58971300  0.47739300  1
  C  70  1  0.36648600  0.61148400  0.46723800  1
  C  91  1  0.31085000  0.65106400  0.14535400  1
  C  92  1  0.26926000  0.61480500  0.13097500  1
  C  93  1  0.26653600  0.61843800  0.10306200  1
  C  94  1  0.30475100  0.65872600  0.08823900  1
  C  95  1  0.34829800  0.69225500  0.10290400  1
  C  96  1  0.35103300  0.68928000  0.13084500  1
  C  97  1  0.30306200  0.66231600  0.05777500  1
  C  98  1  0.33165700  0.63543000  0.04960400  1
  C  99  1  0.38415900  0.66084900  0.04434600  1
  C  100  1  0.40950900  0.63530700  0.03660300  1
  C  101  1  0.38392100  0.58288000  0.03478400  1
  C  102  1  0.33256600  0.55670600  0.04195500  1
  C  103  1  0.30753100  0.58247800  0.04967800  1
  C  104  1  0.25001900  0.63880700  0.04600500  1
  C  105  1  0.32554400  0.71575900  0.04725100  1
  C  106  1  0.34365900  0.72833400  0.02062500  1
  C  107  1  0.36415300  0.77722800  0.01063200  1
  C  108  1  0.36586400  0.81566100  0.02651800  1
  C  109  1  0.34410800  0.80302000  0.05223300  1
  C  110  1  0.32370400  0.75405800  0.06207500  1
  C  111  1  0.21168800  0.64492900  0.05839200  1
  C  112  1  0.16256900  0.62291000  0.04802500  1
  C  113  1  0.15004800  0.59529300  0.02402000  1
  C  114  1  0.18862100  0.59238000  0.01028800  1
  C  115  1  0.23760600  0.61445800  0.02080000  1
  C  135  1  0.67737300  0.34267900  0.64532500  1
  C  136  1  0.71907100  0.37880500  0.63091000  1
  C  137  1  0.72178300  0.37517000  0.60300100  1
  C  138  1  0.68343400  0.33501500  0.58822300  1
  C  139  1  0.63983300  0.30157900  0.60292300  1
  C  140  1  0.63711100  0.30456400  0.63086100  1
  C  141  1  0.68508600  0.33143300  0.55775600  1
  C  142  1  0.65646800  0.35832100  0.54958900  1
  C  143  1  0.60401600  0.33289600  0.54422400  1
  C  144  1  0.57868200  0.35846800  0.53648000  1
  C  145  1  0.60423200  0.41091300  0.53474300  1
  C  146  1  0.65553200  0.43706600  0.54199400  1
  C  147  1  0.68055100  0.41127000  0.54973100  1
  C  148  1  0.73812500  0.35494600  0.54594800  1
  C  149  1  0.66259000  0.27800000  0.54727800  1
  C  150  1  0.64473400  0.26558200  0.52061600  1
  C  151  1  0.62422000  0.21672400  0.51063300  1
  C  152  1  0.62224300  0.17816500  0.52656700  1
  C  153  1  0.64373100  0.19063900  0.55233200  1
  C  154  1  0.66413800  0.23956700  0.56216800  1
  C  155  1  0.77636200  0.34858200  0.55827300  1
  C  156  1  0.82552100  0.37071200  0.54792900  1
  C  157  1  0.83816600  0.39865000  0.52399800  1
  C  158  1  0.79968300  0.40183000  0.51032100  1
  C  159  1  0.75065800  0.37965300  0.52081200  1
  C  180  1  0.66160600  0.32708700  0.71692900  1
  C  181  1  0.68150400  0.30776900  0.73613600  1
  C  182  1  0.68200600  0.31883800  0.76386000  1
  C  183  1  0.66202200  0.34905300  0.77302700  1
  C  184  1  0.64252600  0.36795400  0.75343000  1
  C  186  1  0.72194700  0.27059400  0.77333200  1
  C  187  1  0.72122100  0.25963200  0.74611400  1
  C  191  1  0.64222900  0.35728800  0.72632100  1
  C  195  1  0.65844000  0.31442800  0.69014500  1
  C  197  1  0.66130100  0.36105000  0.79983300  1
  C  199  1  0.32653700  0.66679700  0.21693900  1
  C  200  1  0.30663400  0.68613600  0.23610900  1
  C  201  1  0.30618100  0.67514400  0.26385500  1
  C  202  1  0.32621500  0.64498900  0.27308200  1
  C  203  1  0.34569100  0.62604400  0.25352300  1
  C  205  1  0.26619400  0.72335800  0.27323300  1
  C  206  1  0.26687700  0.73424900  0.24599300  1
  C  210  1  0.34593100  0.63662300  0.22639200  1
  C  214  1  0.32965200  0.67938100  0.19013000  1
  C  216  1  0.32696800  0.63306300  0.29991100  1
  C  218  1  0.47167800  0.03982700  0.98018400  1
  C  219  1  0.42969900  0.99643900  0.96963000  1
  C  220  1  0.40561500  0.95099600  0.98451400  1
  C  221  1  0.42317200  0.94774900  0.01027000  1
  C  222  1  0.46471200  0.99142000  0.02050500  1
  C  224  1  0.34679400  0.91226900  0.94881900  1
  C  225  1  0.37046100  0.95682900  0.93416500  1
  C  229  1  0.48828600  0.03585300  0.00595800  1
  C  233  1  0.49689000  0.08334700  0.96507200  1
  C  235  1  0.40056700  0.90463300  0.02577300  1
  C  237  1  0.50068200  0.47137000  0.99213800  1
  C  238  1  0.49875200  0.51217300  0.98037000  1
  C  239  1  0.46507700  0.52781600  0.99027500  1
  C  240  1  0.43318000  0.50329300  0.01238200  1
  C  241  1  0.43573300  0.46266200  0.02373900  1
  C  243  1  0.49398800  0.59099500  0.95646000  1
  C  244  1  0.52724000  0.57574100  0.94684300  1
  C  248  1  0.46856100  0.44728600  0.01400700  1
  C  252  1  0.53491900  0.45742200  0.98360700  1
  C  254  1  0.39850000  0.51592200  0.02214800  1
  C  256  1  0.92407200  0.48789700  0.97518200  1
  C  257  1  0.97032800  0.49887700  0.96315300  1
  C  258  1  0.97049900  0.52760400  0.01612900  1
  C  260  1  0.92546000  0.50278100  0.00194800  1
  C  264  1  0.87974300  0.46760300  0.96065300  1
  C  266  1  0.51648600  0.95423600  0.48017600  1
  C  267  1  0.55850600  0.99767700  0.46964000  1
  C  268  1  0.58254900  0.04303800  0.48453800  1
  C  269  1  0.56491800  0.04614600  0.51029500  1
  C  270  1  0.52332300  0.00242800  0.52050600  1
  C  272  1  0.64148600  0.08195100  0.44886100  1
  C  273  1  0.61785900  0.03747500  0.43419500  1
  C  277  1  0.49978500  0.95807800  0.50594400  1
  C  281  1  0.49132900  0.91079400  0.46505300  1
  C  283  1  0.58746900  0.08918100  0.52581000  1
  C  285  1  0.48755700  0.52264400  0.49216700  1
  C  286  1  0.48947700  0.48188400  0.48039000  1
  C  287  1  0.52313000  0.46618100  0.49027300  1
  C  288  1  0.55500800  0.49059300  0.51237300  1
  C  289  1  0.55249000  0.53121000  0.52372800  1
  C  291  1  0.49422200  0.40314200  0.45646300  1
  C  292  1  0.46099400  0.41845800  0.44686500  1
  C  296  1  0.51968700  0.54664700  0.51401400  1
  C  300  1  0.45336100  0.53666900  0.48365000  1
  C  302  1  0.58969200  0.47792800  0.52210300  1
  C  304  1  0.97176000  0.46964000  0.47755500  1
  C  305  1  0.97070700  0.45420000  0.50448800  1
  C  307  1  0.92796700  0.47374000  0.43872600  1
  C  308  1  0.97345000  0.49890300  0.42466800  1
  C  311  1  0.92668900  0.42671300  0.51946000  1
  C  315  1  0.10857300  0.52651700  0.46063100  1
  C  318  1  0.06419100  0.50614400  0.47514200  1
  C  320  1  0.01646600  0.52417500  0.97767100  1
  C  321  1  0.01743900  0.53951200  0.00460100  1
  C  323  1  0.06035200  0.52006400  0.93888700  1
  C  324  1  0.01493400  0.49507600  0.92479700  1
  C  326  1  0.06138800  0.56669800  0.01965100  1
  C  328  1  0.01796000  0.49510700  0.46307200  1
  C  329  1  0.01761800  0.46620400  0.51606900  1
  C  331  1  0.06271900  0.49117300  0.50191700  1
  S  194  1  0.60156100  0.41147300  0.72961900  1
  S  213  1  0.38667900  0.58251500  0.22980100  1
  S  232  1  0.53636800  0.05353800  0.04968600  1
  S  251  1  0.42275500  0.38991800  0.05297800  1
  S  263  1  0.90185900  0.51981800  0.04781400  1
  S  280  1  0.45155700  0.94016000  0.54965900  1
  S  299  1  0.56552300  0.60388100  0.55295300  1
  S  319  1  0.08616000  0.47400100  0.54781500  1
  N  41  1  0.51699400  0.12727400  0.97537000  1
  N  42  1  0.52058400  0.41325300  0.97479500  1
  N  43  1  0.65538200  0.33075600  0.81896000  1
  N  44  1  0.83956100  0.42888900  0.96887500  1
  N  86  1  0.47118500  0.86681500  0.47534700  1
  N  87  1  0.46775000  0.58089400  0.47485200  1
  N  88  1  0.33298200  0.66343400  0.31897500  1
  N  89  1  0.14872300  0.56519900  0.46886100  1
  N  131  1  0.38674500  0.86127200  0.01588800  1
  N  132  1  0.31157800  0.64593400  0.17175000  1
  N  133  1  0.40990100  0.56150800  0.02608200  1
  N  175  1  0.60138100  0.13260500  0.51593300  1
  N  176  1  0.88391300  0.42214200  0.51311800  1
  N  177  1  0.67664600  0.34784100  0.67171200  1
  N  178  1  0.57826700  0.43232600  0.52605800  1
  N  185  1  0.70249900  0.29958800  0.78103600  1
  N  188  1  0.70123300  0.27860200  0.72867500  1
  N  192  1  0.62166800  0.39665000  0.75762000  1
  N  193  1  0.62118400  0.37836300  0.71160700  1
  N  204  1  0.28568700  0.69441500  0.28099500  1
  N  207  1  0.28686200  0.71525500  0.22858900  1
  N  211  1  0.36658800  0.59739000  0.25777500  1
  N  212  1  0.36699500  0.61554600  0.21172100  1
  N  223  1  0.36514700  0.91116400  0.97326700  1
  N  226  1  0.41063600  0.99687900  0.94509600  1
  N  230  1  0.48708500  0.99631700  0.04420600  1
  N  231  1  0.52722400  0.07166000  0.01949100  1
  N  242  1  0.46438200  0.56655800  0.97763700  1
  N  245  1  0.52825200  0.53707500  0.95905400  1
  N  249  1  0.40919100  0.43473800  0.04459800  1
  N  250  1  0.46516600  0.40875200  0.02804900  1
  N  259  1  0.97194500  0.48559200  0.93738800  1
  N  261  1  0.96243200  0.53848000  0.04094600  1
  N  262  1  0.88627000  0.49674400  0.01668400  1
  N  271  1  0.62306100  0.08292800  0.47330700  1
  N  274  1  0.57764500  0.99736900  0.44511000  1
  N  278  1  0.50087000  0.99740500  0.54420200  1
  N  279  1  0.46079900  0.92220000  0.51946200  1
  N  290  1  0.52381700  0.42748200  0.47762900  1
  N  293  1  0.45998700  0.45707800  0.45908400  1
  N  297  1  0.57904700  0.55905900  0.54456700  1
  N  298  1  0.52311000  0.58514700  0.52805200  1
  N  306  1  0.92903500  0.46017400  0.46434800  1
  N  313  1  0.10435000  0.57192700  0.01310900  1
  N  314  1  0.10186700  0.49723300  0.51669100  1
  N  322  1  0.05920900  0.53354500  0.96449900  1
  N  330  1  0.01641700  0.50846400  0.43729700  1
  N  332  1  0.02558900  0.45523200  0.54089800  1
