# generated using pymatgen
data_H12C12N5O
_symmetry_space_group_name_H-M   'P 1'
_cell_length_a   23.88120000
_cell_length_b   23.88120000
_cell_length_c   27.34280000
_cell_angle_alpha   90.00000000
_cell_angle_beta   90.00000000
_cell_angle_gamma   120.00000000
_symmetry_Int_Tables_number   1
_chemical_formula_structural   H12C12N5O
_chemical_formula_sum   'H72 C72 N30 O6'
_cell_volume   13504.73010096
_cell_formula_units_Z   6
loop_
 _symmetry_equiv_pos_site_id
 _symmetry_equiv_pos_as_xyz
  1  'x, y, z'
loop_
 _atom_site_type_symbol
 _atom_site_label
 _atom_site_symmetry_multiplicity
 _atom_site_fract_x
 _atom_site_fract_y
 _atom_site_fract_z
 _atom_site_occupancy
  C  1  1  0.44209200  0.49574200  0.01855900  1
  C  2  1  0.46177900  0.54353100  0.98191900  1
  C  3  1  0.43645250  0.58550050  0.98014100  1
  C  4  1  0.39136200  0.57974500  0.01601000  1
  C  5  1  0.37142150  0.53251950  0.05296300  1
  C  6  1  0.39761150  0.49087150  0.05480300  1
  C  9  1  0.46520300  0.45177000  0.01673100  1
  C  10  1  0.44506800  0.40505600  0.97896400  1
  C  11  1  0.47358300  0.36585700  0.97443100  1
  C  12  1  0.52082450  0.37235850  0.00861200  1
  C  13  1  0.54021850  0.41786250  0.04672100  1
  C  14  1  0.51220550  0.45748450  0.05070300  1
  C  29  1  0.99558750  0.50281750  0.35193500  1
  C  30  1  0.02367100  0.48304600  0.31534400  1
  C  31  1  0.09097350  0.50840950  0.31355200  1
  C  32  1  0.13031950  0.55360050  0.34935300  1
  C  33  1  0.10304250  0.57356450  0.38629500  1
  C  34  1  0.03520400  0.54736100  0.38814200  1
  C  37  1  0.92851250  0.47974250  0.35007700  1
  C  38  1  0.90199700  0.49994500  0.31231200  1
  C  39  1  0.83428750  0.47150250  0.30776600  1
  C  40  1  0.79350150  0.42425650  0.34192500  1
  C  41  1  0.81955250  0.40478450  0.38002300  1
  C  42  1  0.88717800  0.43272700  0.38402000  1
  C  57  1  0.44925050  0.94936350  0.68520700  1
  C  58  1  0.40145200  0.92126400  0.64857400  1
  C  59  1  0.35948500  0.85397000  0.64679300  1
  C  60  1  0.36525500  0.81463200  0.68264900  1
  C  61  1  0.41249000  0.84191200  0.71959600  1
  C  62  1  0.45413200  0.90975100  0.72144200  1
  C  65  1  0.49322700  0.01644500  0.68337400  1
  C  66  1  0.53992100  0.04302200  0.64559600  1
  C  67  1  0.57912050  0.11073450  0.64105900  1
  C  68  1  0.57263950  0.15147950  0.67525100  1
  C  69  1  0.52715800  0.12537200  0.71337200  1
  C  70  1  0.48753600  0.05773800  0.71735800  1
  C  85  1  0.47010800  0.22511300  0.77524050  1
  C  86  1  0.51878800  0.29010000  0.76878300  1
  C  87  1  0.53031400  0.33646000  0.80540400  1
  C  88  1  0.49121100  0.31480500  0.84819800  1
  C  95  1  0.50261400  0.35658000  0.89150500  1
  C  98  1  0.46373350  0.17350550  0.74206500  1
  C  101  1  0.69704000  0.47494400  0.10855400  1
  C  102  1  0.71333200  0.42625100  0.10211400  1
  C  103  1  0.74817950  0.41474350  0.13873400  1
  C  104  1  0.76565100  0.45387700  0.18151300  1
  C  111  1  0.79601950  0.44247950  0.22482600  1
  C  114  1  0.65179100  0.48130100  0.07538300  1
  C  117  1  0.71973500  0.24795500  0.44182300  1
  C  118  1  0.65475000  0.23168000  0.43540100  1
  C  119  1  0.60841100  0.19685800  0.47204000  1
  C  120  1  0.63008500  0.17939600  0.51481500  1
  C  127  1  0.58834100  0.14904300  0.55813900  1
  C  130  1  0.77133150  0.29318850  0.40864100  1
  C  133  1  0.46102650  0.73549350  0.78129900  1
  C  134  1  0.41168600  0.67137500  0.77246700  1
  C  135  1  0.39580850  0.62313450  0.80840900  1
  C  136  1  0.43066150  0.64224950  0.85326200  1
  C  143  1  0.41476200  0.59832900  0.89582700  1
  C  146  1  0.47166050  0.78912350  0.74868600  1
  C  149  1  0.21649200  0.48401700  0.11470200  1
  C  150  1  0.20177700  0.53340800  0.10591000  1
  C  151  1  0.16942450  0.54927650  0.14186400  1
  C  152  1  0.15362400  0.51435700  0.18668800  1
  C  159  1  0.12560850  0.53023550  0.22926600  1
  C  162  1  0.25946950  0.47337350  0.08207200  1
  C  165  1  0.20946700  0.72855100  0.44795600  1
  C  166  1  0.27358350  0.74332250  0.43912400  1
  C  167  1  0.32182600  0.77568500  0.47506400  1
  C  168  1  0.30272150  0.79142850  0.51991700  1
  C  175  1  0.34664300  0.81944700  0.56248000  1
  C  178  1  0.15583000  0.68554400  0.41535500  1
  H  7  1  0.49361000  0.54690700  0.95535700  1
  H  8  1  0.37161400  0.60912200  0.01438700  1
  H  15  1  0.54225500  0.34466100  0.00503900  1
  H  16  1  0.52733650  0.49147250  0.07788800  1
  H  19  1  0.40541200  0.46456100  0.11840300  1
  H  20  1  0.35821550  0.37090150  0.95910300  1
  H  22  1  0.56967550  0.41699850  0.11479000  1
  H  24  1  0.45769650  0.28298550  0.94353900  1
  H  26  1  0.44944800  0.66822600  0.95046600  1
  H  28  1  0.34334900  0.53283000  0.12185200  1
  H  35  1  0.99522200  0.45124300  0.28876300  1
  H  36  1  0.17944800  0.57334600  0.34772500  1
  H  43  1  0.74438200  0.40284700  0.33831900  1
  H  44  1  0.90600050  0.41757750  0.41122300  1
  H  47  1  0.00107050  0.53962250  0.45172700  1
  H  48  1  0.95475050  0.58679650  0.29247100  1
  H  50  1  0.78918150  0.37529750  0.44807700  1
  H  52  1  0.76738600  0.48747100  0.27683300  1
  H  54  1  0.16062850  0.49530150  0.28388400  1
  H  56  1  0.13144900  0.60170000  0.45516900  1
  H  63  1  0.39806800  0.94972200  0.62201700  1
  H  64  1  0.33588000  0.76550500  0.68102200  1
  H  71  1  0.60033600  0.20060500  0.67167100  1
  H  72  1  0.45355900  0.03887900  0.74455400  1
  H  75  1  0.48045900  0.94384900  0.78504200  1
  H  76  1  0.57405750  0.99031750  0.62571100  1
  H  78  1  0.52806200  0.15569800  0.78144700  1
  H  80  1  0.66197450  0.17771450  0.61013800  1
  H  82  1  0.27674850  0.78424450  0.61712400  1
  H  84  1  0.41218800  0.81351200  0.78847900  1
  H  92  1  0.60446500  0.41165900  0.76903300  1
  H  93  1  0.58809400  0.43199800  0.82283300  1
  H  94  1  0.54745400  0.30294700  0.73827700  1
  H  96  1  0.55254250  0.37472250  0.90344300  1
  H  97  1  0.49762700  0.39766300  0.87979200  1
  H  99  1  0.45792200  0.18587400  0.70460900  1
  H  100  1  0.42086000  0.12747200  0.75153100  1
  H  108  1  0.74919050  0.34055750  0.10239200  1
  H  109  1  0.78592350  0.35695950  0.15618300  1
  H  110  1  0.69749650  0.39756350  0.07161900  1
  H  112  1  0.76422100  0.39255800  0.23677400  1
  H  113  1  0.84208300  0.44744800  0.21311600  1
  H  115  1  0.66995750  0.48708950  0.03792100  1
  H  116  1  0.64864000  0.52418100  0.08483700  1
  H  124  1  0.53320700  0.19585000  0.43571200  1
  H  125  1  0.51289300  0.15914000  0.48951000  1
  H  126  1  0.64189250  0.24751450  0.40490700  1
  H  128  1  0.57022400  0.18084500  0.57009100  1
  H  129  1  0.54724000  0.10297700  0.54643900  1
  H  131  1  0.75892600  0.27503400  0.37117900  1
  H  132  1  0.81735550  0.29630550  0.41807300  1
  H  140  1  0.32477000  0.55033600  0.76805000  1
  H  141  1  0.33546900  0.52704200  0.82262200  1
  H  142  1  0.38600450  0.66044950  0.74049300  1
  H  144  1  0.36353500  0.57875800  0.90450900  1
  H  145  1  0.42198900  0.55842200  0.88462800  1
  H  147  1  0.47642200  0.77653200  0.71104600  1
  H  148  1  0.51644200  0.83312200  0.75853800  1
  H  156  1  0.16777600  0.62041700  0.10156900  1
  H  157  1  0.13375650  0.60967550  0.15613500  1
  H  158  1  0.21657350  0.55913250  0.07395600  1
  H  160  1  0.15732350  0.58143150  0.23801100  1
  H  161  1  0.07851750  0.52311150  0.21805600  1
  H  163  1  0.24210400  0.46862300  0.04443500  1
  H  164  1  0.25868050  0.42858750  0.09191000  1
  H  172  1  0.39461750  0.77743250  0.43470200  1
  H  173  1  0.41792000  0.81143100  0.48927300  1
  H  174  1  0.28450350  0.72856150  0.40715200  1
  H  176  1  0.36621000  0.78778500  0.57115900  1
  H  177  1  0.38655300  0.86657600  0.55127800  1
  H  179  1  0.16841650  0.70287850  0.37770700  1
  H  180  1  0.11183200  0.68633000  0.42520500  1
  N  21  1  0.58737200  0.42209900  0.07978200  1
  N  23  1  0.45795000  0.32455800  0.93340800  1
  N  25  1  0.45399950  0.62918750  0.94046900  1
  N  27  1  0.32578200  0.52962800  0.08700900  1
  N  49  1  0.77659350  0.35762350  0.41306200  1
  N  51  1  0.80868700  0.48716700  0.26672000  1
  N  53  1  0.11709850  0.49087750  0.27386300  1
  N  55  1  0.14579450  0.61924150  0.42031800  1
  N  77  1  0.52293850  0.16829050  0.74644200  1
  N  79  1  0.62038950  0.13639550  0.60002200  1
  N  81  1  0.31579550  0.82783150  0.60712500  1
  N  83  1  0.41539350  0.79916050  0.75363200  1
  N  89  1  0.44438900  0.25150300  0.85071700  1
  N  90  1  0.43442100  0.20919700  0.81675500  1
  N  91  1  0.57859750  0.39851150  0.79878100  1
  N  105  1  0.74918400  0.50070700  0.18401800  1
  N  106  1  0.71683300  0.51065900  0.15005300  1
  N  107  1  0.76192900  0.36644800  0.13212900  1
  N  121  1  0.69338200  0.19584500  0.51730200  1
  N  122  1  0.73566800  0.22817000  0.48332200  1
  N  123  1  0.54636500  0.18312000  0.46544500  1
  N  137  1  0.47816250  0.70498450  0.85821000  1
  N  138  1  0.49244000  0.74894700  0.82472700  1
  N  139  1  0.34758350  0.56178050  0.79919400  1
  N  153  1  0.16879850  0.46680550  0.19159600  1
  N  154  1  0.19847550  0.45253950  0.15810300  1
  N  155  1  0.15636350  0.59755850  0.13269200  1
  N  169  1  0.23998650  0.77619850  0.52486900  1
  N  170  1  0.19601800  0.74651400  0.49138700  1
  N  171  1  0.38317800  0.78880600  0.46584800  1
  O  17  1  0.37745650  0.44420150  0.08985800  1
  O  18  1  0.40100950  0.39992950  0.94492500  1
  O  45  1  0.00868650  0.56755850  0.42316400  1
  O  46  1  0.94097900  0.54400400  0.27829200  1
  O  73  1  0.50081350  0.93626450  0.75648800  1
  O  74  1  0.54502700  0.00408900  0.61154600  1
