# generated using pymatgen
data_AlH4C8O5
_symmetry_space_group_name_H-M   'P 1'
_cell_length_a   11.92849000
_cell_length_b   12.09590215
_cell_length_c   12.09869034
_cell_angle_alpha   75.96618108
_cell_angle_beta   60.50391443
_cell_angle_gamma   60.50525975
_symmetry_Int_Tables_number   1
_chemical_formula_structural   AlH4C8O5
_chemical_formula_sum   'Al4 H16 C32 O20'
_cell_volume   1322.49788468
_cell_formula_units_Z   4
loop_
 _symmetry_equiv_pos_site_id
 _symmetry_equiv_pos_as_xyz
  1  'x, y, z'
loop_
 _atom_site_type_symbol
 _atom_site_label
 _atom_site_symmetry_multiplicity
 _atom_site_fract_x
 _atom_site_fract_y
 _atom_site_fract_z
 _atom_site_occupancy
  Al  Al1  1  0.19188000  0.61605000  0.99999000  1.0
  Al  Al2  1  0.80812000  0.38385000  0.99997000  1.0
  Al  Al3  1  0.44194000  0.49993000  0.11614000  1.0
  Al  Al4  1  0.05801000  0.50008000  0.88377000  1.0
  H  H1  1  0.48991000  0.80350000  0.05901000  1.0
  H  H2  1  0.35247000  0.19655000  0.94105000  1.0
  H  H3  1  0.79898000  0.44094000  0.30362000  1.0
  H  H4  1  0.54360000  0.55874000  0.69660000  1.0
  H  H5  1  0.76001000  0.44106000  0.69649000  1.0
  H  H6  1  0.89751000  0.55887000  0.30349000  1.0
  H  H7  1  0.45097000  0.19647000  0.05913000  1.0
  H  H8  1  0.70635000  0.80345000  0.94112000  1.0
  H  H9  1  0.43901000  0.43600000  0.93580000  1.0
  H  H10  1  0.81114000  0.56401000  0.06398000  1.0
  H  H11  1  0.62517000  0.56395000  0.93581000  1.0
  H  H12  1  0.12481000  0.43594000  0.06388000  1.0
  H  H13  1  0.11031000  0.99988000  0.99983000  1.0
  H  H14  1  0.36030000  0.49998000  0.49984000  1.0
  H  H15  1  0.13962000  0.50020000  0.50011000  1.0
  H  H16  1  0.88968000  0.00015000  0.99999000  1.0
  C  C1  1  0.29447000  0.76568000  0.04871000  1.0
  C  C2  1  0.30267000  0.88869000  0.02744000  1.0
  C  C3  1  0.41740000  0.89001000  0.03107000  1.0
  C  C4  1  0.10900000  0.23424000  0.95112000  1.0
  C  C5  1  0.21891000  0.11124000  0.97241000  1.0
  C  C6  1  0.33855000  0.10999000  0.96884000  1.0
  C  C7  1  0.59337000  0.45112000  0.26573000  1.0
  C  C8  1  0.58022000  0.47237000  0.38877000  1.0
  C  C9  1  0.69854000  0.46883000  0.39008000  1.0
  C  C10  1  0.31027000  0.54877000  0.73421000  1.0
  C  C11  1  0.44144000  0.52740000  0.61125000  1.0
  C  C12  1  0.55750000  0.53100000  0.61000000  1.0
  C  C13  1  0.95549000  0.45122000  0.73422000  1.0
  C  C14  1  0.94727000  0.47259000  0.61125000  1.0
  C  C15  1  0.83251000  0.46898000  0.60998000  1.0
  C  C16  1  0.14098000  0.54878000  0.26577000  1.0
  C  C17  1  0.03105000  0.52758000  0.38877000  1.0
  C  C18  1  0.91139000  0.53115000  0.39005000  1.0
  C  C19  1  0.65676000  0.23423000  0.04885000  1.0
  C  C20  1  0.66976000  0.11125000  0.02762000  1.0
  C  C21  1  0.55141000  0.10997000  0.03120000  1.0
  C  C22  1  0.93976000  0.76581000  0.95103000  1.0
  C  C23  1  0.80855000  0.88877000  0.97247000  1.0
  C  C24  1  0.69247000  0.89004000  0.96890000  1.0
  C  C25  1  0.20133000  0.99993000  0.99992000  1.0
  C  C26  1  0.43812000  0.00002000  0.00000000  1.0
  C  C27  1  0.45141000  0.49984000  0.49995000  1.0
  C  C28  1  0.68818000  0.49990000  0.50008000  1.0
  C  C29  1  0.04861000  0.50010000  0.50005000  1.0
  C  C30  1  0.81179000  0.50004000  0.50001000  1.0
  C  C31  1  0.79859000  0.00004000  0.00011000  1.0
  C  C32  1  0.56175000  0.99996000  0.00011000  1.0
  O  O1  1  0.36001000  0.68036000  0.11037000  1.0
  O  O2  1  0.22700000  0.75467000  0.00045000  1.0
  O  O3  1  0.15092000  0.31954000  0.88941000  1.0
  O  O4  1  0.98231000  0.24524000  0.99938000  1.0
  O  O5  1  0.72055000  0.38940000  0.18053000  1.0
  O  O6  1  0.47771000  0.49942000  0.25466000  1.0
  O  O7  1  0.29074000  0.61032000  0.81951000  1.0
  O  O8  1  0.23159000  0.50068000  0.74525000  1.0
  O  O9  1  0.88992000  0.38954000  0.81945000  1.0
  O  O10  1  0.02305000  0.49942000  0.74523000  1.0
  O  O11  1  0.09902000  0.61048000  0.18051000  1.0
  O  O12  1  0.26768000  0.50048000  0.25479000  1.0
  O  O13  1  0.52967000  0.31946000  0.11069000  1.0
  O  O14  1  0.77247000  0.24525000  0.00042000  1.0
  O  O15  1  0.95940000  0.68059000  0.88928000  1.0
  O  O16  1  0.01831000  0.75467000  0.99929000  1.0
  O  O17  1  0.37382000  0.50070000  0.00108000  1.0
  O  O18  1  0.87615000  0.49899000  0.99902000  1.0
  O  O19  1  0.62507000  0.49913000  0.00099000  1.0
  O  O20  1  0.12468000  0.50109000  0.99904000  1.0
