# generated using pymatgen
data_H8C17N3O
_symmetry_space_group_name_H-M   'P 1'
_cell_length_a   28.73750000
_cell_length_b   35.64795000
_cell_length_c   35.64790000
_cell_angle_alpha   60.00013919
_cell_angle_beta   89.99870000
_cell_angle_gamma   89.99740000
_symmetry_Int_Tables_number   1
_chemical_formula_structural   H8C17N3O
_chemical_formula_sum   'H96 C204 N36 O12'
_cell_volume   31626.32543795
_cell_formula_units_Z   12
loop_
 _symmetry_equiv_pos_site_id
 _symmetry_equiv_pos_as_xyz
  1  'x, y, z'
loop_
 _atom_site_type_symbol
 _atom_site_label
 _atom_site_symmetry_multiplicity
 _atom_site_fract_x
 _atom_site_fract_y
 _atom_site_fract_z
 _atom_site_occupancy
  H  9  1  0.10698000  0.52968400  0.11975700  1
  H  17  1  0.87083000  0.53412300  0.28878300  1
  H  19  1  0.95284500  0.42616500  0.27599500  1
  H  20  1  0.01352700  0.42488100  0.23322200  1
  H  21  1  0.97188300  0.64175700  0.18098500  1
  H  22  1  0.02973600  0.64100800  0.13529700  1
  H  27  1  0.09537800  0.63499700  0.10194800  1
  H  28  1  0.90217900  0.63987500  0.21421000  1
  H  29  1  0.86665200  0.44691500  0.28603100  1
  H  30  1  0.05093100  0.43578300  0.16783800  1
  H  39  1  0.44030700  0.09468000  0.29764600  1
  H  47  1  0.20411100  0.26365000  0.12421000  1
  H  49  1  0.28613200  0.25088500  0.24493700  1
  H  50  1  0.34684400  0.20814500  0.28897200  1
  H  51  1  0.30522200  0.15587900  0.12435300  1
  H  52  1  0.36309400  0.11021100  0.17078100  1
  H  57  1  0.42882400  0.07691000  0.21013400  1
  H  58  1  0.23558500  0.18912200  0.09295800  1
  H  59  1  0.19989300  0.26090700  0.21413200  1
  H  60  1  0.38425100  0.14274800  0.34345700  1
  H  69  1  0.77365400  0.27253400  0.55474000  1
  H  77  1  0.53739900  0.09915300  0.55921500  1
  H  79  1  0.61938600  0.21991300  0.45125500  1
  H  80  1  0.68011500  0.26392800  0.44996000  1
  H  81  1  0.63851500  0.09927500  0.66683700  1
  H  82  1  0.69639000  0.14568700  0.66608300  1
  H  87  1  0.76187900  0.18508300  0.66015200  1
  H  88  1  0.56876600  0.06792600  0.66497200  1
  H  89  1  0.53316800  0.18911400  0.47201900  1
  H  90  1  0.71762100  0.31840600  0.46088800  1
  H  99  1  0.10702500  0.40160700  0.86164200  1
  H  107  1  0.87081900  0.39715800  0.69268600  1
  H  109  1  0.95286200  0.50511300  0.70543000  1
  H  110  1  0.01356500  0.50640100  0.74818300  1
  H  111  1  0.97190700  0.28951600  0.80047200  1
  H  112  1  0.02975700  0.29027000  0.84615400  1
  H  117  1  0.09541600  0.29629500  0.87948800  1
  H  118  1  0.90238300  0.29132900  0.76719000  1
  H  119  1  0.86663100  0.48433700  0.69543700  1
  H  120  1  0.05100100  0.49545800  0.81363400  1
  H  129  1  0.44032400  0.83660200  0.68379600  1
  H  137  1  0.20417700  0.66758200  0.85724900  1
  H  139  1  0.28619800  0.68036300  0.73651900  1
  H  140  1  0.34687900  0.72313500  0.69246400  1
  H  141  1  0.30523300  0.77538000  0.85709600  1
  H  142  1  0.36308400  0.82106600  0.81065900  1
  H  147  1  0.42873700  0.85440900  0.77129600  1
  H  148  1  0.23555000  0.74216600  0.88844000  1
  H  149  1  0.19997700  0.67033600  0.76732000  1
  H  150  1  0.38427600  0.78853000  0.63797700  1
  H  159  1  0.77364100  0.65872200  0.42668400  1
  H  167  1  0.53742000  0.83215000  0.42219800  1
  H  169  1  0.61944500  0.71142400  0.53017200  1
  H  170  1  0.68017300  0.66739700  0.53147100  1
  H  171  1  0.63852800  0.83199800  0.31458000  1
  H  172  1  0.69640200  0.78556800  0.31534400  1
  H  177  1  0.76211600  0.74621200  0.32138700  1
  H  178  1  0.56887000  0.86339400  0.31643600  1
  H  179  1  0.53318500  0.74223500  0.50936600  1
  H  180  1  0.71761900  0.61291500  0.52057500  1
  H  187  1  0.13511000  0.57391400  0.02276800  1
  H  188  1  0.18275500  0.60520300  0.95931200  1
  H  192  1  0.16951100  0.76351100  0.99740300  1
  H  201  1  0.46860100  0.99777800  0.35036600  1
  H  202  1  0.51628800  0.93434900  0.38251100  1
  H  206  1  0.50253200  0.97213300  0.18624600  1
  H  215  1  0.80183400  0.32529600  0.59897200  1
  H  216  1  0.84945300  0.35746200  0.63027800  1
  H  220  1  0.83607400  0.16109100  0.78862500  1
  H  229  1  0.13499900  0.35733000  0.95874300  1
  H  230  1  0.18266500  0.32604100  0.02218500  1
  H  234  1  0.16967800  0.16784300  0.98391100  1
  H  243  1  0.46835700  0.93365100  0.63101000  1
  H  244  1  0.51600200  0.99710600  0.59884200  1
  H  248  1  0.50297100  0.95887400  0.79530100  1
  H  257  1  0.80203400  0.60601300  0.38255400  1
  H  258  1  0.84973400  0.57386200  0.35128300  1
  H  262  1  0.83572200  0.77005100  0.19268600  1
  H  271  1  0.79554600  0.42571100  0.33708700  1
  H  272  1  0.75148400  0.36656200  0.39176700  1
  H  276  1  0.95328300  0.32925800  0.48245900  1
  H  285  1  0.12881900  0.31206900  0.18407100  1
  H  286  1  0.08474400  0.36676100  0.18850900  1
  H  290  1  0.28672000  0.45716600  0.13578700  1
  H  299  1  0.46207600  0.15888300  0.45101600  1
  H  300  1  0.41800200  0.16329600  0.39189900  1
  H  304  1  0.62007900  0.11091700  0.35403100  1
  H  313  1  0.79553000  0.50551400  0.64432800  1
  H  314  1  0.75146200  0.56465700  0.58964000  1
  H  318  1  0.95334100  0.60211700  0.49907600  1
  H  327  1  0.12888100  0.61920200  0.79732900  1
  H  328  1  0.08481400  0.56452900  0.79285800  1
  H  332  1  0.28676200  0.47406400  0.84566400  1
  H  341  1  0.46213500  0.77232300  0.53047400  1
  H  342  1  0.41806800  0.76788700  0.58960500  1
  H  346  1  0.62008600  0.82045200  0.62737000  1
  C  1  1  0.01000500  0.53349400  0.19212200  1
  C  2  1  0.02479800  0.49315300  0.19655300  1
  C  3  1  0.06089700  0.49195300  0.16994800  1
  C  4  1  0.08117000  0.53126000  0.13881900  1
  C  5  1  0.06719900  0.57223600  0.13231900  1
  C  6  1  0.03157300  0.57292000  0.16018600  1
  C  7  1  0.00333500  0.45452600  0.22822600  1
  C  8  1  0.01583100  0.61184000  0.15745300  1
  C  10  1  0.97329100  0.53415500  0.21925100  1
  C  11  1  0.95104200  0.49460200  0.24963600  1
  C  12  1  0.91337300  0.49490500  0.27519600  1
  C  13  1  0.89918200  0.53453700  0.27104000  1
  C  14  1  0.92128100  0.57448200  0.24281200  1
  C  15  1  0.95811600  0.57406600  0.21581700  1
  C  16  1  0.96707300  0.45525500  0.25382800  1
  C  18  1  0.98086600  0.61232300  0.18478100  1
  C  23  1  0.09004400  0.60905100  0.09912800  1
  C  24  1  0.90318500  0.61184900  0.24176400  1
  C  25  1  0.88612300  0.45882100  0.30073800  1
  C  26  1  0.07503900  0.45421900  0.17063200  1
  C  31  1  0.34334000  0.16704000  0.22146200  1
  C  32  1  0.35813200  0.17147700  0.25737000  1
  C  33  1  0.39424200  0.14488800  0.28516700  1
  C  34  1  0.41449400  0.11373700  0.27701000  1
  C  35  1  0.40053300  0.10723600  0.24253300  1
  C  36  1  0.36491800  0.13510700  0.21397400  1
  C  37  1  0.33666200  0.20315000  0.26432000  1
  C  38  1  0.34918200  0.13237100  0.17778700  1
  C  40  1  0.30661100  0.19415300  0.19368100  1
  C  41  1  0.28434700  0.22452800  0.20285700  1
  C  42  1  0.24665100  0.25005100  0.17701500  1
  C  43  1  0.23245700  0.24589900  0.14154200  1
  C  44  1  0.25457400  0.21768400  0.12981300  1
  C  45  1  0.29143900  0.19071700  0.15720400  1
  C  46  1  0.30038500  0.22873800  0.23799900  1
  C  48  1  0.31421700  0.15969800  0.14997200  1
  C  53  1  0.42336400  0.07404000  0.23890400  1
  C  54  1  0.23650400  0.21665500  0.09347500  1
  C  55  1  0.21941100  0.27560500  0.18754900  1
  C  56  1  0.40836600  0.14555800  0.32222700  1
  C  61  1  0.67663800  0.19639400  0.55857100  1
  C  62  1  0.69143000  0.23230000  0.51822700  1
  C  63  1  0.72753800  0.26010000  0.51702100  1
  C  64  1  0.74783000  0.25190800  0.55632300  1
  C  65  1  0.73386100  0.21743700  0.59730400  1
  C  66  1  0.69822300  0.18889500  0.59799400  1
  C  67  1  0.66994500  0.23926500  0.47960600  1
  C  68  1  0.68248100  0.15270700  0.63691500  1
  C  70  1  0.63990000  0.16862300  0.55923700  1
  C  71  1  0.61761900  0.17781300  0.51969100  1
  C  72  1  0.57989400  0.15199200  0.52001600  1
  C  73  1  0.56574200  0.11648800  0.55963400  1
  C  74  1  0.58787700  0.10474800  0.59957200  1
  C  75  1  0.62473500  0.13214000  0.59914900  1
  C  76  1  0.63365000  0.21296400  0.48034000  1
  C  78  1  0.64751300  0.12489700  0.63740100  1
  C  83  1  0.75672500  0.21381500  0.63411000  1
  C  84  1  0.56983400  0.06840200  0.63694600  1
  C  85  1  0.55268300  0.16252300  0.48391500  1
  C  86  1  0.74170700  0.29711100  0.47926200  1
  C  91  1  0.01003700  0.39778500  0.78929800  1
  C  92  1  0.02484300  0.43813200  0.78485000  1
  C  93  1  0.06096000  0.43933900  0.81143400  1
  C  94  1  0.08121200  0.40003100  0.84258300  1
  C  95  1  0.06722300  0.35905200  0.84910900  1
  C  96  1  0.03160100  0.35836000  0.82124300  1
  C  97  1  0.00337300  0.47675300  0.75318300  1
  C  98  1  0.01585100  0.31943900  0.82399100  1
  C  100  1  0.97331700  0.39712200  0.76217900  1
  C  101  1  0.95106600  0.43667300  0.73179500  1
  C  102  1  0.91338100  0.43637000  0.70625400  1
  C  103  1  0.89918100  0.39673900  0.71042200  1
  C  104  1  0.92129700  0.35678900  0.73863300  1
  C  105  1  0.95813500  0.35720600  0.76562600  1
  C  106  1  0.96710900  0.47602500  0.72758400  1
  C  108  1  0.98088500  0.31895000  0.79666800  1
  C  113  1  0.09005800  0.32223500  0.88231100  1
  C  114  1  0.90314300  0.31942900  0.73970500  1
  C  115  1  0.88612500  0.47245200  0.68072100  1
  C  116  1  0.07509800  0.47708100  0.81072900  1
  C  121  1  0.34335700  0.76423500  0.75997800  1
  C  122  1  0.35815300  0.75980300  0.72406500  1
  C  123  1  0.39424500  0.78640900  0.69625800  1
  C  124  1  0.41451500  0.81753800  0.70443700  1
  C  125  1  0.40054700  0.82404100  0.73891000  1
  C  126  1  0.36492500  0.79617400  0.76746200  1
  C  127  1  0.33669000  0.72813000  0.71711200  1
  C  128  1  0.34918200  0.79890800  0.80364900  1
  C  130  1  0.30664500  0.73710700  0.78776700  1
  C  131  1  0.28439600  0.70672200  0.77859700  1
  C  132  1  0.24672700  0.68116500  0.80445700  1
  C  133  1  0.23253300  0.68532300  0.83992900  1
  C  134  1  0.25462600  0.71355400  0.85164900  1
  C  135  1  0.29146700  0.74054400  0.82423900  1
  C  136  1  0.30043100  0.70252500  0.74344800  1
  C  138  1  0.31421400  0.77158200  0.83145900  1
  C  143  1  0.42338500  0.85723600  0.74253200  1
  C  144  1  0.23651100  0.71461700  0.88795600  1
  C  145  1  0.21947700  0.65562600  0.79391300  1
  C  146  1  0.40838300  0.78572600  0.65920900  1
  C  151  1  0.67665800  0.73489500  0.42285400  1
  C  152  1  0.69145900  0.69899500  0.46320000  1
  C  153  1  0.72757800  0.67120100  0.46441400  1
  C  154  1  0.74782400  0.67935300  0.42510500  1
  C  155  1  0.73385400  0.71382200  0.38412400  1
  C  156  1  0.69823200  0.74238000  0.38343400  1
  C  157  1  0.66998800  0.69204500  0.50182300  1
  C  158  1  0.68249300  0.77856300  0.34450900  1
  C  160  1  0.63992400  0.76267400  0.42218600  1
  C  161  1  0.61766000  0.75349900  0.46173300  1
  C  162  1  0.57995700  0.77933900  0.46141200  1
  C  163  1  0.56576300  0.81481200  0.42178300  1
  C  164  1  0.58789100  0.82654000  0.38184400  1
  C  165  1  0.62475200  0.79914700  0.38227100  1
  C  166  1  0.63370200  0.71836100  0.50108600  1
  C  168  1  0.64752700  0.80637900  0.34401900  1
  C  173  1  0.75668000  0.71744700  0.34729900  1
  C  174  1  0.56983100  0.86288800  0.34448000  1
  C  175  1  0.55271700  0.76880800  0.49749800  1
  C  176  1  0.74172300  0.63416000  0.50215000  1
  C  181  1  0.13395500  0.62883100  0.03111500  1
  C  182  1  0.15120100  0.67152000  0.01305500  1
  C  183  1  0.17912900  0.68961700  0.97586700  1
  C  184  1  0.19197700  0.66624500  0.95510100  1
  C  185  1  0.17495000  0.62345300  0.97335600  1
  C  186  1  0.14653800  0.60510400  0.01061100  1
  C  191  1  0.16772300  0.73518400  0.99685200  1
  C  195  1  0.46736200  0.00608100  0.28711900  1
  C  196  1  0.48451700  0.98796700  0.26251100  1
  C  197  1  0.51246300  0.95078900  0.28159300  1
  C  198  1  0.52546700  0.93011400  0.32568800  1
  C  199  1  0.50844800  0.94837400  0.35022600  1
  C  200  1  0.48000800  0.98561100  0.33133600  1
  C  205  1  0.50084400  0.97164500  0.21509700  1
  C  209  1  0.80062700  0.26204100  0.65390800  1
  C  210  1  0.81785600  0.23741300  0.69660200  1
  C  211  1  0.84577000  0.25650400  0.71470700  1
  C  212  1  0.85866100  0.30062700  0.69132500  1
  C  213  1  0.84165200  0.32516500  0.64852300  1
  C  214  1  0.81324500  0.30626500  0.63016600  1
  C  219  1  0.83431400  0.18996500  0.76028900  1
  C  223  1  0.13389900  0.30243600  0.95035300  1
  C  224  1  0.15119700  0.25976800  0.96837700  1
  C  225  1  0.17915000  0.24167700  0.00554700  1
  C  226  1  0.19198700  0.26503700  0.02632600  1
  C  227  1  0.17488400  0.30780500  0.00812000  1
  C  228  1  0.14645800  0.32615200  0.97087600  1
  C  233  1  0.16782700  0.19614400  0.98450500  1
  C  237  1  0.46726500  0.92526400  0.69428900  1
  C  238  1  0.48454500  0.94329800  0.71892900  1
  C  239  1  0.51247700  0.98048500  0.69983800  1
  C  240  1  0.52528600  0.00127800  0.65569000  1
  C  241  1  0.50822200  0.98304500  0.63114400  1
  C  242  1  0.47980900  0.94579200  0.65004800  1
  C  247  1  0.50114000  0.95945300  0.76641100  1
  C  251  1  0.80071300  0.66923200  0.32757200  1
  C  252  1  0.81782200  0.69382600  0.28483300  1
  C  253  1  0.84577600  0.67474300  0.26674300  1
  C  254  1  0.85883200  0.63066100  0.29018800  1
  C  255  1  0.84185600  0.60613800  0.33300300  1
  C  256  1  0.81340700  0.62503000  0.35134300  1
  C  261  1  0.83407400  0.74121300  0.22106600  1
  C  265  1  0.85996200  0.40838800  0.37084000  1
  C  266  1  0.88053100  0.37781600  0.41032500  1
  C  267  1  0.85463400  0.34357300  0.44202800  1
  C  268  1  0.80695100  0.33816800  0.43687000  1
  C  269  1  0.78596300  0.36893800  0.39730900  1
  C  270  1  0.81201700  0.40358300  0.36489100  1
  C  275  1  0.92460800  0.34025000  0.46298100  1
  C  279  1  0.19329500  0.34571200  0.16789200  1
  C  280  1  0.21390300  0.38513900  0.15911700  1
  C  281  1  0.18799600  0.41685400  0.16163000  1
  C  282  1  0.14027800  0.41176100  0.17204700  1
  C  283  1  0.11925300  0.37225700  0.18070500  1
  C  284  1  0.14531300  0.33982500  0.17850800  1
  C  289  1  0.25803300  0.43771200  0.14422500  1
  C  293  1  0.52660500  0.14291100  0.43343700  1
  C  294  1  0.54723300  0.13418700  0.40275700  1
  C  295  1  0.52133700  0.13671800  0.36851700  1
  C  296  1  0.47359100  0.14703000  0.36324900  1
  C  297  1  0.45253100  0.15558200  0.39415700  1
  C  298  1  0.47859100  0.15339800  0.42878000  1
  C  303  1  0.59140500  0.11942500  0.36500500  1
  C  307  1  0.85997400  0.52290300  0.61062700  1
  C  308  1  0.88055900  0.55350300  0.57116200  1
  C  309  1  0.85465900  0.58774200  0.53945600  1
  C  310  1  0.80696300  0.59312100  0.54458800  1
  C  311  1  0.78595600  0.56231400  0.58412300  1
  C  312  1  0.81201700  0.52768300  0.61655500  1
  C  317  1  0.92465600  0.59110800  0.51853700  1
  C  321  1  0.19334400  0.58552800  0.81356400  1
  C  322  1  0.21394100  0.54608700  0.82236400  1
  C  323  1  0.18804100  0.51438600  0.81982400  1
  C  324  1  0.14033000  0.51950200  0.80936700  1
  C  325  1  0.11931500  0.55901800  0.80069000  1
  C  326  1  0.14536900  0.59143500  0.80292000  1
  C  331  1  0.25806400  0.49350400  0.83727100  1
  C  335  1  0.52662600  0.78845000  0.54796500  1
  C  336  1  0.54724400  0.79719500  0.57863100  1
  C  337  1  0.52134400  0.79468400  0.61286000  1
  C  338  1  0.47361500  0.78429700  0.61817000  1
  C  339  1  0.45258000  0.77566700  0.58730700  1
  C  340  1  0.47864000  0.77786300  0.55267800  1
  C  345  1  0.59139200  0.81203800  0.61634000  1
  N  189  1  0.18898700  0.72990400  0.96625300  1
  N  193  1  0.10848600  0.60784600  0.06679900  1
  N  194  1  0.21605700  0.68110300  0.91857600  1
  N  203  1  0.52220000  0.94110300  0.25094700  1
  N  207  1  0.44182800  0.04172900  0.27243800  1
  N  208  1  0.54945700  0.89353800  0.34738100  1
  N  217  1  0.85559000  0.22583800  0.75500900  1
  N  221  1  0.77520800  0.24733600  0.63290100  1
  N  222  1  0.88266800  0.32231000  0.70620400  1
  N  231  1  0.18907800  0.20141600  0.01511300  1
  N  235  1  0.10845500  0.32344300  0.91465400  1
  N  236  1  0.21603900  0.25017200  0.06286500  1
  N  245  1  0.52238100  0.99006600  0.73052700  1
  N  249  1  0.44180300  0.88957400  0.70899000  1
  N  250  1  0.54938000  0.03779200  0.63402800  1
  N  259  1  0.85546600  0.70536900  0.22639400  1
  N  263  1  0.77517000  0.68391500  0.34853300  1
  N  264  1  0.88283500  0.60896100  0.27532000  1
  N  273  1  0.88317800  0.32031800  0.47509600  1
  N  277  1  0.88531000  0.44158300  0.34217900  1
  N  278  1  0.78504700  0.30512000  0.46950900  1
  N  287  1  0.21657200  0.44987300  0.15193300  1
  N  291  1  0.21864600  0.31705100  0.16336100  1
  N  292  1  0.11837200  0.44442900  0.17240400  1
  N  301  1  0.54993000  0.12705800  0.34517600  1
  N  305  1  0.55193800  0.13834300  0.46665100  1
  N  306  1  0.45169300  0.14736800  0.33023400  1
  N  315  1  0.88321600  0.61102100  0.50640700  1
  N  319  1  0.88532900  0.48971000  0.63927700  1
  N  320  1  0.78505700  0.62614500  0.51193000  1
  N  329  1  0.21661300  0.48136500  0.82952000  1
  N  333  1  0.21869400  0.61418100  0.81810200  1
  N  334  1  0.11843200  0.48686200  0.80896000  1
  N  343  1  0.54993000  0.80434900  0.63620000  1
  N  347  1  0.55197300  0.79298100  0.51477100  1
  N  348  1  0.45171400  0.78394100  0.65119400  1
  O  190  1  0.14348900  0.69995600  0.02728700  1
  O  204  1  0.47666700  0.00211500  0.21987700  1
  O  218  1  0.81011200  0.19475300  0.72504600  1
  O  232  1  0.14355600  0.23136100  0.95409700  1
  O  246  1  0.47688300  0.92903600  0.76160900  1
  O  260  1  0.80991800  0.73644300  0.25632300  1
  O  274  1  0.92554200  0.37660600  0.42281100  1
  O  288  1  0.25894500  0.39757500  0.14795700  1
  O  302  1  0.59229300  0.12308800  0.40144900  1
  O  316  1  0.92558400  0.55473900  0.55869700  1
  O  330  1  0.25898300  0.53364400  0.83352400  1
  O  344  1  0.59229600  0.80832400  0.57992500  1
