# generated using pymatgen
data_PrH3C9(NO2)3
_symmetry_space_group_name_H-M   'P 1'
_cell_length_a   4.14658000
_cell_length_b   12.84853000
_cell_length_c   14.10777879
_cell_angle_alpha   63.53405343
_cell_angle_beta   87.73807763
_cell_angle_gamma   87.32951000
_symmetry_Int_Tables_number   1
_chemical_formula_structural   PrH3C9(NO2)3
_chemical_formula_sum   'Pr2 H6 C18 N6 O12'
_cell_volume   671.97791857
_cell_formula_units_Z   2
loop_
 _symmetry_equiv_pos_site_id
 _symmetry_equiv_pos_as_xyz
  1  'x, y, z'
loop_
 _atom_site_type_symbol
 _atom_site_label
 _atom_site_symmetry_multiplicity
 _atom_site_fract_x
 _atom_site_fract_y
 _atom_site_fract_z
 _atom_site_occupancy
  Pr  Pr0  1  0.54844000  0.66092000  0.68408000  1
  Pr  Pr1  1  0.47557000  0.34412000  0.30981000  1
  H  H2  1  0.15095000  0.92999000  0.65077000  1
  H  H3  1  0.89902000  0.42947000  0.90641000  1
  H  H4  1  0.89932000  0.65396000  0.45180000  1
  H  H5  1  0.87566000  0.07598000  0.34408000  1
  H  H6  1  0.11928000  0.57724000  0.08682000  1
  H  H7  1  0.11427000  0.35356000  0.54062000  1
  C  C8  1  0.74630000  0.92896000  0.49127000  1
  C  C9  1  0.31874000  0.96191000  0.58324000  1
  C  C10  1  0.29207000  0.58584000  0.93663000  1
  C  C11  1  0.72060000  0.46189000  0.94638000  1
  C  C12  1  0.30766000  0.48231000  0.58029000  1
  C  C13  1  0.72183000  0.58700000  0.47270000  1
  C  C14  1  0.02533000  0.85301000  0.48627000  1
  C  C15  1  0.02972000  0.66969000  0.87399000  1
  C  C16  1  0.05972000  0.46304000  0.66574000  1
  C  C17  1  0.27868000  0.07642000  0.50305000  1
  C  C18  1  0.70704000  0.04357000  0.41133000  1
  C  C19  1  0.72610000  0.42074000  0.05680000  1
  C  C20  1  0.29781000  0.54472000  0.04700000  1
  C  C21  1  0.70632000  0.52513000  0.41237000  1
  C  C22  1  0.29164000  0.42057000  0.51979000  1
  C  C23  1  0.99853000  0.15225000  0.50734000  1
  C  C24  1  0.98620000  0.33603000  0.12006000  1
  C  C25  1  0.95524000  0.54423000  0.32733000  1
  N  N26  1  0.54804000  0.88866000  0.57712000  1
  N  N27  1  0.50496000  0.54331000  0.88739000  1
  N  N28  1  0.51990000  0.56672000  0.55504000  1
  N  N29  1  0.47702000  0.11667000  0.41727000  1
  N  N30  1  0.51287000  0.46323000  0.10603000  1
  N  N31  1  0.49424000  0.44070000  0.43753000  1
  O  O32  1  0.03915000  0.75044000  0.56945000  1
  O  O33  1  0.04251000  0.69642000  0.77225000  1
  O  O34  1  0.06771000  0.53536000  0.70848000  1
  O  O35  1  0.85019000  0.39117000  0.68268000  1
  O  O36  1  0.22643000  0.89082000  0.41308000  1
  O  O37  1  0.81342000  0.69903000  0.92054000  1
  O  O38  1  0.98305000  0.25399000  0.42331000  1
  O  O39  1  0.96834000  0.30743000  0.22215000  1
  O  O40  1  0.95024000  0.47082000  0.28575000  1
  O  O41  1  0.16199000  0.61715000  0.30967000  1
  O  O42  1  0.79771000  0.11471000  0.58065000  1
  O  O43  1  0.20549000  0.30709000  0.07418000  1
