# generated using pymatgen
data_Zn6Cr3H60C90N6O43
_symmetry_space_group_name_H-M   'P 1'
_cell_length_a   19.58228008
_cell_length_b   19.58645000
_cell_length_c   35.56547000
_cell_angle_alpha   89.92302000
_cell_angle_beta   89.92709014
_cell_angle_gamma   60.09885196
_symmetry_Int_Tables_number   1
_chemical_formula_structural   Zn6Cr3H60C90N6O43
_chemical_formula_sum   'Zn12 Cr6 H120 C180 N12 O86'
_cell_volume   11825.22497065
_cell_formula_units_Z   2
loop_
 _symmetry_equiv_pos_site_id
 _symmetry_equiv_pos_as_xyz
  1  'x, y, z'
loop_
 _atom_site_type_symbol
 _atom_site_label
 _atom_site_symmetry_multiplicity
 _atom_site_fract_x
 _atom_site_fract_y
 _atom_site_fract_z
 _atom_site_occupancy
  Zn  Zn0  1  0.52148000  0.51932000  0.03328000  1
  Zn  Zn1  1  0.95938000  0.52148000  0.03327000  1
  Zn  Zn2  1  0.51905000  0.95934000  0.03350000  1
  Zn  Zn3  1  0.48078000  0.47826000  0.53258000  1
  Zn  Zn4  1  0.04078000  0.47882000  0.53257000  1
  Zn  Zn5  1  0.48087000  0.04059000  0.53266000  1
  Zn  Zn6  1  0.47890000  0.04112000  0.96706000  1
  Zn  Zn7  1  0.04062000  0.48109000  0.96674000  1
  Zn  Zn8  1  0.48090000  0.47839000  0.96674000  1
  Zn  Zn9  1  0.52119000  0.95915000  0.46733000  1
  Zn  Zn10  1  0.95944000  0.51919000  0.46687000  1
  Zn  Zn11  1  0.52157000  0.51934000  0.46743000  1
  Cr  Cr12  1  0.71898000  0.71899000  0.25033000  1
  Cr  Cr13  1  0.56242000  0.71857000  0.25036000  1
  Cr  Cr14  1  0.71850000  0.56216000  0.25030000  1
  Cr  Cr15  1  0.28083000  0.28106000  0.74965000  1
  Cr  Cr16  1  0.43768000  0.28117000  0.74970000  1
  Cr  Cr17  1  0.28099000  0.43777000  0.74965000  1
  H  H18  1  0.36551000  0.92820000  0.91618000  1
  H  H19  1  0.35384000  0.55845000  0.58861000  1
  H  H20  1  0.25104000  0.96540000  0.88479000  1
  H  H21  1  0.54135000  0.14380000  0.84541000  1
  H  H22  1  0.71153000  0.36066000  0.91515000  1
  H  H23  1  0.08790000  0.35286000  0.58888000  1
  H  H24  1  0.31483000  0.54161000  0.84556000  1
  H  H25  1  0.92162000  0.33405000  0.85338000  1
  H  H26  1  0.16665000  0.75609000  0.34180000  1
  H  H27  1  0.92683000  0.71259000  0.91505000  1
  H  H28  1  0.55993000  0.08752000  0.58920000  1
  H  H29  1  0.14374000  0.31473000  0.84573000  1
  H  H30  1  0.74378000  0.92233000  0.85343000  1
  H  H31  1  0.64023000  0.07121000  0.41548000  1
  H  H32  1  0.64755000  0.44128000  0.08957000  1
  H  H33  1  0.45829000  0.85605000  0.34628000  1
  H  H34  1  0.66632000  0.25459000  0.35356000  1
  H  H35  1  0.24400000  0.92256000  0.84145000  1
  H  H36  1  0.29435000  0.63474000  0.41671000  1
  H  H37  1  0.91195000  0.64762000  0.08962000  1
  H  H38  1  0.21768000  0.74920000  0.38473000  1
  H  H39  1  0.68526000  0.45796000  0.34609000  1
  H  H40  1  0.07241000  0.28805000  0.41562000  1
  H  H41  1  0.44053000  0.91204000  0.09001000  1
  H  H42  1  0.85643000  0.68515000  0.34595000  1
  H  H43  1  0.25521000  0.07929000  0.35372000  1
  H  H44  1  0.64028000  0.28795000  0.08498000  1
  H  H45  1  0.64701000  0.91209000  0.41114000  1
  H  H46  1  0.45885000  0.68560000  0.15443000  1
  H  H47  1  0.66642000  0.07798000  0.14674000  1
  H  H48  1  0.24388000  0.83331000  0.65822000  1
  H  H49  1  0.28806000  0.07234000  0.08480000  1
  H  H50  1  0.91230000  0.44029000  0.41077000  1
  H  H51  1  0.68560000  0.85609000  0.15447000  1
  H  H52  1  0.07821000  0.25579000  0.14654000  1
  H  H53  1  0.07206000  0.63976000  0.08489000  1
  H  H54  1  0.44134000  0.64637000  0.41145000  1
  H  H55  1  0.85552000  0.45892000  0.15460000  1
  H  H56  1  0.25563000  0.66623000  0.14659000  1
  H  H57  1  0.36507000  0.70588000  0.58334000  1
  H  H58  1  0.35206000  0.08883000  0.91075000  1
  H  H59  1  0.25082000  0.78241000  0.61527000  1
  H  H60  1  0.54174000  0.31475000  0.65414000  1
  H  H61  1  0.71168000  0.92760000  0.58428000  1
  H  H62  1  0.08851000  0.55954000  0.91006000  1
  H  H63  1  0.31468000  0.14335000  0.65367000  1
  H  H64  1  0.92042000  0.74490000  0.64619000  1
  H  H65  1  0.92860000  0.36007000  0.58424000  1
  H  H66  1  0.55908000  0.35211000  0.91023000  1
  H  H67  1  0.14372000  0.54182000  0.65359000  1
  H  H68  1  0.74534000  0.33383000  0.64643000  1
  H  H69  1  0.92384000  0.83212000  0.65828000  1
  H  H70  1  0.63443000  0.07047000  0.08401000  1
  H  H71  1  0.65080000  0.43503000  0.41186000  1
  H  H72  1  0.74970000  0.03220000  0.11562000  1
  H  H73  1  0.46651000  0.85351000  0.15534000  1
  H  H74  1  0.29535000  0.63413000  0.08396000  1
  H  H75  1  0.91396000  0.65033000  0.41160000  1
  H  H76  1  0.21847000  0.74953000  0.11551000  1
  H  H77  1  0.67984000  0.46678000  0.15499000  1
  H  H78  1  0.83250000  0.24340000  0.65858000  1
  H  H79  1  0.07047000  0.29508000  0.08370000  1
  H  H80  1  0.43580000  0.91294000  0.41207000  1
  H  H81  1  0.03238000  0.21831000  0.11544000  1
  H  H82  1  0.85364000  0.68016000  0.15498000  1
  H  H83  1  0.07521000  0.16836000  0.15879000  1
  H  H84  1  0.36093000  0.92849000  0.58350000  1
  H  H85  1  0.34950000  0.56364000  0.91130000  1
  H  H86  1  0.53344000  0.14677000  0.65431000  1
  H  H87  1  0.33428000  0.74631000  0.64613000  1
  H  H88  1  0.75668000  0.07536000  0.15886000  1
  H  H89  1  0.70536000  0.36534000  0.58348000  1
  H  H90  1  0.08732000  0.34929000  0.91167000  1
  H  H91  1  0.78200000  0.25050000  0.61541000  1
  H  H92  1  0.32026000  0.53303000  0.65398000  1
  H  H93  1  0.16824000  0.75645000  0.15878000  1
  H  H94  1  0.92928000  0.70485000  0.58308000  1
  H  H95  1  0.56384000  0.08708000  0.91122000  1
  H  H96  1  0.96759000  0.78140000  0.61520000  1
  H  H97  1  0.14656000  0.32003000  0.65411000  1
  H  H98  1  0.36096000  0.70993000  0.91578000  1
  H  H99  1  0.34978000  0.08592000  0.58806000  1
  H  H100  1  0.53299000  0.31987000  0.84494000  1
  H  H101  1  0.33418000  0.91997000  0.85366000  1
  H  H102  1  0.75702000  0.16782000  0.34134000  1
  H  H103  1  0.70414000  0.93010000  0.91703000  1
  H  H104  1  0.08685000  0.56410000  0.58778000  1
  H  H105  1  0.78130000  0.96819000  0.88453000  1
  H  H106  1  0.31941000  0.14716000  0.84538000  1
  H  H107  1  0.16795000  0.07587000  0.34167000  1
  H  H108  1  0.92947000  0.36574000  0.91600000  1
  H  H109  1  0.56504000  0.34888000  0.58835000  1
  H  H110  1  0.96756000  0.25067000  0.88444000  1
  H  H111  1  0.14670000  0.53347000  0.84472000  1
  H  H112  1  0.92432000  0.24380000  0.84119000  1
  H  H113  1  0.63533000  0.29428000  0.41648000  1
  H  H114  1  0.65108000  0.91283000  0.08860000  1
  H  H115  1  0.74972000  0.21825000  0.38454000  1
  H  H116  1  0.46692000  0.67970000  0.34604000  1
  H  H117  1  0.29523000  0.07044000  0.41693000  1
  H  H118  1  0.91221000  0.43658000  0.08874000  1
  H  H119  1  0.21874000  0.03219000  0.38476000  1
  H  H120  1  0.68010000  0.85349000  0.34591000  1
  H  H121  1  0.83156000  0.92477000  0.84134000  1
  H  H122  1  0.07159000  0.63911000  0.41656000  1
  H  H123  1  0.43665000  0.65165000  0.08850000  1
  H  H124  1  0.85309000  0.46643000  0.34560000  1
  H  H125  1  0.25381000  0.66575000  0.35387000  1
  H  H126  1  0.51442000  0.24339000  0.99798000  1
  H  H127  1  0.24250000  0.51423000  0.99786000  1
  H  H128  1  0.24328000  0.24241000  0.99753000  1
  H  H129  1  0.48635000  0.75693000  0.49702000  1
  H  H130  1  0.75821000  0.48547000  0.49730000  1
  H  H131  1  0.75612000  0.75761000  0.49721000  1
  H  H132  1  0.48526000  0.75662000  0.00273000  1
  H  H133  1  0.75828000  0.75642000  0.00301000  1
  H  H134  1  0.75686000  0.48593000  0.00214000  1
  H  H135  1  0.51444000  0.24153000  0.50233000  1
  H  H136  1  0.24253000  0.24379000  0.50263000  1
  H  H137  1  0.24317000  0.51361000  0.50305000  1
  C  C138  1  0.61215000  0.48772000  0.39577000  1
  C  C139  1  0.71752000  0.08074000  0.13566000  1
  C  C140  1  0.84833000  0.72580000  0.96055000  1
  C  C141  1  0.54862000  0.35473000  0.02402000  1
  C  C142  1  0.86769000  0.50157000  0.14111000  1
  C  C143  1  0.25336000  0.12710000  0.42883000  1
  C  C144  1  0.89973000  0.61176000  0.39555000  1
  C  C145  1  0.20195000  0.71733000  0.13554000  1
  C  C146  1  0.42701000  0.84788000  0.96098000  1
  C  C147  1  0.09707000  0.54804000  0.02403000  1
  C  C148  1  0.63079000  0.86818000  0.14110000  1
  C  C149  1  0.62046000  0.25237000  0.42843000  1
  C  C150  1  0.48841000  0.89912000  0.39590000  1
  C  C151  1  0.08081000  0.20202000  0.13554000  1
  C  C152  1  0.72555000  0.42618000  0.96026000  1
  C  C153  1  0.35473000  0.09723000  0.02390000  1
  C  C154  1  0.50142000  0.63091000  0.14097000  1
  C  C155  1  0.12838000  0.62124000  0.42934000  1
  C  C156  1  0.38803000  0.51101000  0.89519000  1
  C  C157  1  0.15174000  0.27435000  0.46073000  1
  C  C158  1  0.45432000  0.64408000  0.52250000  1
  C  C159  1  0.13195000  0.49893000  0.64016000  1
  C  C160  1  0.74606000  0.87343000  0.92895000  1
  C  C161  1  0.10104000  0.38801000  0.89536000  1
  C  C162  1  0.79880000  0.28254000  0.63535000  1
  C  C163  1  0.57455000  0.15080000  0.46039000  1
  C  C164  1  0.90312000  0.45191000  0.52326000  1
  C  C165  1  0.36942000  0.13162000  0.64029000  1
  C  C166  1  0.37884000  0.74882000  0.92864000  1
  C  C167  1  0.51120000  0.10084000  0.89515000  1
  C  C168  1  0.91856000  0.79830000  0.63506000  1
  C  C169  1  0.27588000  0.57240000  0.46137000  1
  C  C170  1  0.64506000  0.90243000  0.52344000  1
  C  C171  1  0.49924000  0.36927000  0.64054000  1
  C  C172  1  0.87289000  0.38054000  0.92811000  1
  C  C173  1  0.38830000  0.10018000  0.60416000  1
  C  C174  1  0.15148000  0.57422000  0.03978000  1
  C  C175  1  0.45360000  0.90153000  0.97713000  1
  C  C176  1  0.13182000  0.36946000  0.85910000  1
  C  C177  1  0.74731000  0.38008000  0.57147000  1
  C  C178  1  0.10077000  0.51152000  0.60399000  1
  C  C179  1  0.79754000  0.91958000  0.86456000  1
  C  C180  1  0.57469000  0.27422000  0.03983000  1
  C  C181  1  0.90279000  0.64508000  0.97605000  1
  C  C182  1  0.36941000  0.49864000  0.85897000  1
  C  C183  1  0.37887000  0.87168000  0.57071000  1
  C  C184  1  0.51232000  0.38760000  0.60438000  1
  C  C185  1  0.91894000  0.28288000  0.86443000  1
  C  C186  1  0.27407000  0.15159000  0.03954000  1
  C  C187  1  0.64481000  0.45278000  0.97598000  1
  C  C188  1  0.49856000  0.13184000  0.85891000  1
  C  C189  1  0.87264000  0.74668000  0.57113000  1
  C  C190  1  0.61219000  0.89925000  0.10489000  1
  C  C191  1  0.71784000  0.20126000  0.36459000  1
  C  C192  1  0.84913000  0.42543000  0.53918000  1
  C  C193  1  0.54787000  0.09687000  0.47614000  1
  C  C194  1  0.86821000  0.63051000  0.35944000  1
  C  C195  1  0.25353000  0.61937000  0.07188000  1
  C  C196  1  0.89865000  0.48909000  0.10486000  1
  C  C197  1  0.20181000  0.08118000  0.36487000  1
  C  C198  1  0.42749000  0.72427000  0.53869000  1
  C  C199  1  0.09767000  0.35495000  0.47635000  1
  C  C200  1  0.63067000  0.50062000  0.35961000  1
  C  C201  1  0.61968000  0.12707000  0.07196000  1
  C  C202  1  0.48901000  0.61266000  0.10470000  1
  C  C203  1  0.72551000  0.84832000  0.53916000  1
  C  C204  1  0.35608000  0.54555000  0.47754000  1
  C  C205  1  0.50112000  0.86790000  0.35974000  1
  C  C206  1  0.12703000  0.25325000  0.07168000  1
  C  C207  1  0.39306000  0.50559000  0.60446000  1
  C  C208  1  0.28315000  0.91700000  0.86468000  1
  C  C209  1  0.15159000  0.27593000  0.03919000  1
  C  C210  1  0.45318000  0.64417000  0.97687000  1
  C  C211  1  0.13358000  0.49187000  0.85857000  1
  C  C212  1  0.75021000  0.87101000  0.57128000  1
  C  C213  1  0.10177000  0.39222000  0.60449000  1
  C  C214  1  0.57255000  0.15175000  0.03949000  1
  C  C215  1  0.90185000  0.45448000  0.97684000  1
  C  C216  1  0.37433000  0.13376000  0.85900000  1
  C  C217  1  0.38021000  0.74738000  0.57114000  1
  C  C218  1  0.50653000  0.10145000  0.60470000  1
  C  C219  1  0.27603000  0.57231000  0.03940000  1
  C  C220  1  0.64436000  0.90159000  0.97840000  1
  C  C221  1  0.49148000  0.37453000  0.85871000  1
  C  C222  1  0.87186000  0.37811000  0.57136000  1
  C  C223  1  0.60803000  0.49435000  0.10518000  1
  C  C224  1  0.84796000  0.72414000  0.53868000  1
  C  C225  1  0.54651000  0.35458000  0.47743000  1
  C  C226  1  0.86620000  0.50815000  0.35927000  1
  C  C227  1  0.24946000  0.12893000  0.07178000  1
  C  C228  1  0.89810000  0.60818000  0.10524000  1
  C  C229  1  0.20051000  0.71708000  0.36503000  1
  C  C230  1  0.42632000  0.84838000  0.53857000  1
  C  C231  1  0.09826000  0.54667000  0.47761000  1
  C  C232  1  0.62528000  0.86628000  0.35952000  1
  C  C233  1  0.62193000  0.24955000  0.07201000  1
  C  C234  1  0.49375000  0.89837000  0.10556000  1
  C  C235  1  0.72492000  0.42707000  0.53893000  1
  C  C236  1  0.35596000  0.09867000  0.47758000  1
  C  C237  1  0.50852000  0.62479000  0.35964000  1
  C  C238  1  0.12883000  0.62151000  0.07194000  1
  C  C239  1  0.60771000  0.89821000  0.39547000  1
  C  C240  1  0.84844000  0.42760000  0.96059000  1
  C  C241  1  0.54532000  0.09867000  0.02322000  1
  C  C242  1  0.86648000  0.62550000  0.14127000  1
  C  C243  1  0.25280000  0.61966000  0.42891000  1
  C  C244  1  0.89842000  0.49353000  0.39515000  1
  C  C245  1  0.42602000  0.72481000  0.96086000  1
  C  C246  1  0.09829000  0.35640000  0.02315000  1
  C  C247  1  0.62522000  0.50848000  0.14123000  1
  C  C248  1  0.62219000  0.12796000  0.42833000  1
  C  C249  1  0.49418000  0.60708000  0.39560000  1
  C  C250  1  0.72424000  0.84855000  0.96168000  1
  C  C251  1  0.35643000  0.54519000  0.02322000  1
  C  C252  1  0.50819000  0.86660000  0.14154000  1
  C  C253  1  0.12901000  0.24956000  0.42864000  1
  C  C254  1  0.39177000  0.10213000  0.89501000  1
  C  C255  1  0.28291000  0.79960000  0.63498000  1
  C  C256  1  0.15170000  0.57374000  0.46147000  1
  C  C257  1  0.45345000  0.90171000  0.52233000  1
  C  C258  1  0.13369000  0.37478000  0.64044000  1
  C  C259  1  0.75012000  0.37881000  0.92811000  1
  C  C260  1  0.10208000  0.50628000  0.89461000  1
  C  C261  1  0.57323000  0.27481000  0.46089000  1
  C  C262  1  0.90126000  0.64398000  0.52240000  1
  C  C263  1  0.37518000  0.49142000  0.64041000  1
  C  C264  1  0.38031000  0.87172000  0.92838000  1
  C  C265  1  0.50594000  0.39170000  0.89470000  1
  C  C266  1  0.27588000  0.15187000  0.46126000  1
  C  C267  1  0.64506000  0.45377000  0.52254000  1
  C  C268  1  0.49178000  0.13362000  0.64060000  1
  C  C269  1  0.87040000  0.75088000  0.92829000  1
  C  C270  1  0.35468000  0.82171000  0.58662000  1
  C  C271  1  0.82151000  0.35430000  0.58718000  1
  C  C272  1  0.82439000  0.82079000  0.58687000  1
  C  C273  1  0.64554000  0.17542000  0.08769000  1
  C  C274  1  0.17931000  0.64522000  0.08759000  1
  C  C275  1  0.17540000  0.17920000  0.08749000  1
  C  C276  1  0.64627000  0.17821000  0.41266000  1
  C  C277  1  0.17925000  0.17538000  0.41306000  1
  C  C278  1  0.17843000  0.64533000  0.41343000  1
  C  C279  1  0.35496000  0.82283000  0.91275000  1
  C  C280  1  0.81985000  0.82514000  0.91282000  1
  C  C281  1  0.82434000  0.35486000  0.91243000  1
  C  C282  1  0.42168000  0.42864000  0.84042000  1
  C  C283  1  0.22492000  0.22476000  0.47761000  1
  C  C284  1  0.14924000  0.42198000  0.84038000  1
  C  C285  1  0.55107000  0.22391000  0.47728000  1
  C  C286  1  0.42840000  0.14943000  0.84046000  1
  C  C287  1  0.22515000  0.55030000  0.47803000  1
  C  C288  1  0.57829000  0.57086000  0.34121000  1
  C  C289  1  0.77552000  0.77544000  0.97782000  1
  C  C290  1  0.85028000  0.57818000  0.34101000  1
  C  C291  1  0.44898000  0.77511000  0.97759000  1
  C  C292  1  0.57129000  0.85027000  0.34120000  1
  C  C293  1  0.77554000  0.44946000  0.97707000  1
  C  C294  1  0.57819000  0.85069000  0.15973000  1
  C  C295  1  0.77592000  0.44894000  0.52238000  1
  C  C296  1  0.85042000  0.57153000  0.15963000  1
  C  C297  1  0.44969000  0.77493000  0.52205000  1
  C  C298  1  0.57123000  0.57820000  0.15959000  1
  C  C299  1  0.77511000  0.77516000  0.52226000  1
  C  C300  1  0.42166000  0.14960000  0.65882000  1
  C  C301  1  0.22481000  0.55068000  0.02294000  1
  C  C302  1  0.14965000  0.42879000  0.65874000  1
  C  C303  1  0.55096000  0.22458000  0.02303000  1
  C  C304  1  0.42899000  0.42171000  0.65889000  1
  C  C305  1  0.22436000  0.22484000  0.02265000  1
  C  C306  1  0.59757000  0.81075000  0.19672000  1
  C  C307  1  0.59158000  0.59723000  0.19670000  1
  C  C308  1  0.81072000  0.59197000  0.19670000  1
  C  C309  1  0.40190000  0.18971000  0.69579000  1
  C  C310  1  0.40840000  0.40213000  0.69586000  1
  C  C311  1  0.18955000  0.40843000  0.69577000  1
  C  C312  1  0.40247000  0.40825000  0.80334000  1
  C  C313  1  0.40790000  0.18899000  0.80334000  1
  C  C314  1  0.18884000  0.40266000  0.80330000  1
  C  C315  1  0.59777000  0.59141000  0.30419000  1
  C  C316  1  0.59172000  0.81028000  0.30419000  1
  C  C317  1  0.81011000  0.59794000  0.30408000  1
  N  N318  1  0.45471000  0.45830000  0.91273000  1
  N  N319  1  0.08687000  0.45491000  0.91276000  1
  N  N320  1  0.45867000  0.08660000  0.91286000  1
  N  N321  1  0.54543000  0.54009000  0.41334000  1
  N  N322  1  0.91413000  0.54478000  0.41299000  1
  N  N323  1  0.54089000  0.91358000  0.41336000  1
  N  N324  1  0.54519000  0.91364000  0.08752000  1
  N  N325  1  0.91307000  0.54161000  0.08728000  1
  N  N326  1  0.54149000  0.54585000  0.08717000  1
  N  N327  1  0.45529000  0.08589000  0.58674000  1
  N  N328  1  0.08637000  0.45899000  0.58655000  1
  N  N329  1  0.46004000  0.45426000  0.58674000  1
  O  O330  1  0.51501000  0.11471000  0.99044000  1
  O  O331  1  0.04067000  0.40428000  0.04380000  1
  O  O332  1  0.55400000  0.78267000  0.20765000  1
  O  O333  1  0.37106000  0.51470000  0.99050000  1
  O  O334  1  0.55484000  0.04089000  0.04373000  1
  O  O335  1  0.66298000  0.55336000  0.20768000  1
  O  O336  1  0.11405000  0.37104000  0.99037000  1
  O  O337  1  0.40438000  0.55504000  0.04379000  1
  O  O338  1  0.78330000  0.66335000  0.20769000  1
  O  O339  1  0.48416000  0.88543000  0.48962000  1
  O  O340  1  0.95909000  0.59599000  0.54290000  1
  O  O341  1  0.44519000  0.21805000  0.70672000  1
  O  O342  1  0.63118000  0.48355000  0.48966000  1
  O  O343  1  0.44419000  0.95931000  0.54280000  1
  O  O344  1  0.33678000  0.44526000  0.70670000  1
  O  O345  1  0.88553000  0.62949000  0.48963000  1
  O  O346  1  0.59655000  0.44437000  0.54295000  1
  O  O347  1  0.21791000  0.33683000  0.70668000  1
  O  O348  1  0.48381000  0.62956000  0.00959000  1
  O  O349  1  0.95964000  0.44481000  0.95627000  1
  O  O350  1  0.44633000  0.33692000  0.79231000  1
  O  O351  1  0.63006000  0.88546000  0.01119000  1
  O  O352  1  0.44402000  0.59605000  0.95618000  1
  O  O353  1  0.33654000  0.21627000  0.79230000  1
  O  O354  1  0.88602000  0.48468000  0.00962000  1
  O  O355  1  0.59620000  0.95962000  0.95804000  1
  O  O356  1  0.21651000  0.44650000  0.79226000  1
  O  O357  1  0.51708000  0.36811000  0.51037000  1
  O  O358  1  0.04081000  0.55581000  0.45708000  1
  O  O359  1  0.55486000  0.66310000  0.29340000  1
  O  O360  1  0.37028000  0.11451000  0.51037000  1
  O  O361  1  0.55560000  0.40333000  0.45704000  1
  O  O362  1  0.66336000  0.78186000  0.29334000  1
  O  O363  1  0.11438000  0.51611000  0.51038000  1
  O  O364  1  0.40409000  0.04088000  0.45712000  1
  O  O365  1  0.78140000  0.55492000  0.29327000  1
  O  O366  1  0.48136000  0.88743000  0.01044000  1
  O  O367  1  0.95831000  0.59709000  0.95449000  1
  O  O368  1  0.46004000  0.19736000  0.78486000  1
  O  O369  1  0.63039000  0.48095000  0.00925000  1
  O  O370  1  0.44628000  0.95771000  0.95605000  1
  O  O371  1  0.34221000  0.46027000  0.78481000  1
  O  O372  1  0.88925000  0.63050000  0.00935000  1
  O  O373  1  0.59660000  0.44539000  0.95452000  1
  O  O374  1  0.19700000  0.34230000  0.78486000  1
  O  O375  1  0.51885000  0.11152000  0.50921000  1
  O  O376  1  0.04157000  0.40299000  0.45514000  1
  O  O377  1  0.53949000  0.80248000  0.28558000  1
  O  O378  1  0.37045000  0.51521000  0.51033000  1
  O  O379  1  0.55587000  0.04056000  0.45512000  1
  O  O380  1  0.65742000  0.53908000  0.28548000  1
  O  O381  1  0.11190000  0.36959000  0.50944000  1
  O  O382  1  0.40424000  0.55530000  0.45702000  1
  O  O383  1  0.80255000  0.65790000  0.28548000  1
  O  O384  1  0.52114000  0.36870000  0.99064000  1
  O  O385  1  0.04124000  0.55560000  0.04547000  1
  O  O386  1  0.53954000  0.65741000  0.21525000  1
  O  O387  1  0.36921000  0.11076000  0.99058000  1
  O  O388  1  0.55569000  0.40318000  0.04548000  1
  O  O389  1  0.65775000  0.80281000  0.21524000  1
  O  O390  1  0.11078000  0.52003000  0.99075000  1
  O  O391  1  0.40282000  0.04172000  0.04545000  1
  O  O392  1  0.80228000  0.53990000  0.21519000  1
  O  O393  1  0.48461000  0.62979000  0.48969000  1
  O  O394  1  0.95900000  0.44452000  0.54452000  1
  O  O395  1  0.46064000  0.34210000  0.71440000  1
  O  O396  1  0.63056000  0.88817000  0.49033000  1
  O  O397  1  0.44465000  0.59586000  0.54299000  1
  O  O398  1  0.34177000  0.19751000  0.71436000  1
  O  O399  1  0.88886000  0.48011000  0.49001000  1
  O  O400  1  0.59696000  0.95865000  0.54465000  1
  O  O401  1  0.19720000  0.46072000  0.71438000  1
  O  O402  1  0.15043000  0.15552000  0.38211000  1
  O  O403  1  0.69490000  0.14950000  0.38165000  1
  O  O404  1  0.14916000  0.69405000  0.38250000  1
  O  O405  1  0.84839000  0.84485000  0.88164000  1
  O  O406  1  0.30677000  0.84210000  0.88162000  1
  O  O407  1  0.84417000  0.30628000  0.88146000  1
  O  O408  1  0.85023000  0.30589000  0.61826000  1
  O  O409  1  0.30590000  0.85101000  0.61754000  1
  O  O410  1  0.84425000  0.84967000  0.61778000  1
  O  O411  1  0.15068000  0.69376000  0.11857000  1
  O  O412  1  0.69399000  0.15558000  0.11870000  1
  O  O413  1  0.15567000  0.15072000  0.11866000  1
  O  O414  1  0.66682000  0.66651333  0.24981000  1
  O  O415  1  0.33322000  0.33330000  0.75015000  1
