# generated using pymatgen
data_H40C55N8
_symmetry_space_group_name_H-M   'P 1'
_cell_length_a   9.90133333
_cell_length_b   21.39750000
_cell_length_c   21.39745000
_cell_angle_alpha   89.99830000
_cell_angle_beta   90.00000000
_cell_angle_gamma   90.00000000
_symmetry_Int_Tables_number   1
_chemical_formula_structural   H40C55N8
_chemical_formula_sum   'H40 C55 N8'
_cell_volume   4533.34463737
_cell_formula_units_Z   1
loop_
 _symmetry_equiv_pos_site_id
 _symmetry_equiv_pos_as_xyz
  1  'x, y, z'
loop_
 _atom_site_type_symbol
 _atom_site_label
 _atom_site_symmetry_multiplicity
 _atom_site_fract_x
 _atom_site_fract_y
 _atom_site_fract_z
 _atom_site_occupancy
  C  1  1  0.95840600  0.10834300  0.98791400  1
  C  2  1  0.95890900  0.86735100  0.99156900  1
  C  3  1  0.85971500  0.98850800  0.04971300  1
  C  4  1  0.86009400  0.98683500  0.92875400  1
  C  5  1  0.92385900  0.98574400  0.86878250  1
  C  6  1  0.92315700  0.98935700  0.10976650  1
  C  7  1  0.94108200  0.98781500  0.98928100  1
  C  11  1  0.90545300  0.52411200  0.99725400  1
  C  12  1  0.88176800  0.65677500  0.99638050  1
  C  13  1  0.87713300  0.72195100  0.99302900  1
  C  14  1  0.90060300  0.94669900  0.62634800  1
  C  16  1  0.97642300  0.98105200  0.52524850  1
  C  17  1  0.94865400  0.97899200  0.45971300  1
  C  18  1  0.91186700  0.96621900  0.32882200  1
  C  19  1  0.88596900  0.95134000  0.26703650  1
  C  20  1  0.97040200  0.32764500  0.01155250  1
  C  21  1  0.93339700  0.45857400  0.99924650  1
  C  85  1  0.84796900  0.98408100  0.81259600  1
  C  86  1  0.84752200  0.98852100  0.16598300  1
  C  89  1  0.84369300  0.35600800  0.02091950  1
  C  105  1  0.02240800  0.92737700  0.99025550  1
  C  106  1  0.16588900  0.92901400  0.99024900  1
  C  107  1  0.16558300  0.04677500  0.98850500  1
  C  108  1  0.02210500  0.04833600  0.98857200  1
  C  109  1  0.03384200  0.16463200  0.98867400  1
  C  110  1  0.17595400  0.16071400  0.98710400  1
  C  111  1  0.24093500  0.10274900  0.98752350  1
  C  112  1  0.24144100  0.87307800  0.99165000  1
  C  113  1  0.17673100  0.81504700  0.99340950  1
  C  114  1  0.03501400  0.81124300  0.99330700  1
  C  115  1  0.71625300  0.98829100  0.04802800  1
  C  116  1  0.71659300  0.98660400  0.93026400  1
  C  117  1  0.64128500  0.98518500  0.87426000  1
  C  118  1  0.70624200  0.98371200  0.81628350  1
  C  119  1  0.70542300  0.98974100  0.16197000  1
  C  120  1  0.64067000  0.98913700  0.10394400  1
  C  131  1  0.63871900  0.98755300  0.98909550  1
  C  134  1  0.24343900  0.98792700  0.98906450  1
  C  141  1  0.06385700  0.43240500  0.98852600  1
  C  142  1  0.07954400  0.36692500  0.99516350  1
  C  144  1  0.79970800  0.55266200  0.96223150  1
  C  145  1  0.79034500  0.61895900  0.96241150  1
  C  146  1  0.98104600  0.62519200  0.03180200  1
  C  151  1  0.70455400  0.51541000  0.92347900  1
  C  155  1  0.18281200  0.47078300  0.96998950  1
  C  159  1  0.99642200  0.26574500  0.02594750  1
  C  162  1  0.00049300  0.98179100  0.65790000  1
  C  163  1  0.08270800  0.01575800  0.55374550  1
  C  164  1  0.09228800  0.01550100  0.62003600  1
  C  166  1  0.81859500  0.99030600  0.43337700  1
  C  167  1  0.80301000  0.98344100  0.36791400  1
  C  168  1  0.03817400  0.95623200  0.35737400  1
  C  173  1  0.70000900  0.00963100  0.47159800  1
  C  177  1  0.17824600  0.05425000  0.51642800  1
  C  181  1  0.00561300  0.98496900  0.72309300  1
  H  87  1  0.85529200  0.11116800  0.98754400  1
  H  88  1  0.85584300  0.86444100  0.99187850  1
  H  121  1  0.64751600  0.99120800  0.20158700  1
  H  122  1  0.53728900  0.98964300  0.10290800  1
  H  123  1  0.53789000  0.98488000  0.87520650  1
  H  124  1  0.64834500  0.98239500  0.77660100  1
  H  125  1  0.02693400  0.98562900  0.86595750  1
  H  126  1  0.02626100  0.98989600  0.11268500  1
  H  127  1  0.23374000  0.20036800  0.98553450  1
  H  128  1  0.34431900  0.10180500  0.98678750  1
  H  129  1  0.34483100  0.87411900  0.99178850  1
  H  130  1  0.23478300  0.77541300  0.99476100  1
  H  132  1  0.57390000  0.94612900  0.98968550  1
  H  133  1  0.57419300  0.02907200  0.98842450  1
  H  135  1  0.30749200  0.98730200  0.94738750  1
  H  136  1  0.30873400  0.98860600  0.03032700  1
  H  143  1  0.17341300  0.34753500  0.98931150  1
  H  148  1  0.71738600  0.64028300  0.93602100  1
  H  149  1  0.05035500  0.64912500  0.05791500  1
  H  150  1  0.76189600  0.33029700  0.03461800  1
  H  152  1  0.76094500  0.48602000  0.89095500  1
  H  153  1  0.63638700  0.54472500  0.89611400  1
  H  154  1  0.64268900  0.48577100  0.95349500  1
  H  156  1  0.15712300  0.50001800  0.92993200  1
  H  157  1  0.26976400  0.44227200  0.95683550  1
  H  158  1  0.21385800  0.50055300  0.00880150  1
  H  160  1  0.05633200  0.25800800  0.06258850  1
  H  161  1  0.79041600  0.74389300  0.98509350  1
  H  165  1  0.16568200  0.04166000  0.64131900  1
  H  170  1  0.70934600  0.98960600  0.34841150  1
  H  171  1  0.11963900  0.94180900  0.33183650  1
  H  172  1  0.83093600  0.92081500  0.65030550  1
  H  174  1  0.72654800  0.04974300  0.50059400  1
  H  175  1  0.66808500  0.97115300  0.50160400  1
  H  176  1  0.61339500  0.02301600  0.44297400  1
  H  178  1  0.12217300  0.08694400  0.48709300  1
  H  179  1  0.23960100  0.02407400  0.48672750  1
  H  180  1  0.24687400  0.08141000  0.54570050  1
  H  182  1  0.09251000  0.99280200  0.74492350  1
  H  183  1  0.82639100  0.91455800  0.25952700  1
  N  8  1  0.89563500  0.98191100  0.75468950  1
  N  9  1  0.97874500  0.22170700  0.98554550  1
  N  10  1  0.90259300  0.99185000  0.22302200  1
  N  15  1  0.89251300  0.94802900  0.56319050  1
  N  137  1  0.98743200  0.75333500  0.99582200  1
  N  139  1  0.83087600  0.41898000  0.01483800  1
  N  147  1  0.98895100  0.56203100  0.03052800  1
  N  169  1  0.05089800  0.96256400  0.42032000  1
