# generated using pymatgen
data_H24C45N8
_symmetry_space_group_name_H-M   'P 1'
_cell_length_a   25.12420000
_cell_length_b   52.19758896
_cell_length_c   52.19640000
_cell_angle_alpha   119.99973952
_cell_angle_beta   90.00000000
_cell_angle_gamma   89.67800240
_symmetry_Int_Tables_number   1
_chemical_formula_structural   H24C45N8
_chemical_formula_sum   'H144 C270 N48'
_cell_volume   59279.68167740
_cell_formula_units_Z   6
loop_
 _symmetry_equiv_pos_site_id
 _symmetry_equiv_pos_as_xyz
  1  'x, y, z'
loop_
 _atom_site_type_symbol
 _atom_site_label
 _atom_site_symmetry_multiplicity
 _atom_site_fract_x
 _atom_site_fract_y
 _atom_site_fract_z
 _atom_site_occupancy
  H  25  1  0.57698400  0.49702900  0.41515900  1
  H  26  1  0.63058900  0.49571800  0.37668400  1
  H  27  1  0.69061000  0.50239500  0.34382500  1
  H  28  1  0.75194700  0.51746600  0.31891700  1
  H  29  1  0.81109200  0.58422400  0.40116300  1
  H  30  1  0.66864200  0.56763300  0.47960800  1
  H  31  1  0.65695100  0.60387800  0.42356500  1
  H  32  1  0.71179900  0.68767700  0.48944200  1
  H  33  1  0.77904300  0.66437000  0.50367400  1
  H  34  1  0.80885400  0.52880000  0.44057200  1
  H  35  1  0.84080800  0.63274900  0.51176900  1
  H  36  1  0.89551900  0.59533800  0.51239800  1
  H  66  1  0.24303200  0.91927100  0.50774000  1
  H  67  1  0.29696200  0.88184800  0.50864800  1
  H  68  1  0.35766100  0.84240800  0.50173300  1
  H  69  1  0.42027200  0.80276200  0.48677500  1
  H  70  1  0.48149700  0.81954600  0.42113200  1
  H  71  1  0.33675700  0.91444700  0.43810400  1
  H  72  1  0.33173400  0.81949700  0.39963100  1
  H  73  1  0.38261800  0.80863100  0.31746900  1
  H  74  1  0.44551900  0.84781100  0.34233700  1
  H  75  1  0.47700300  0.91334300  0.47760600  1
  H  76  1  0.50528700  0.88726900  0.37493200  1
  H  77  1  0.55935200  0.92438300  0.41304400  1
  H  107  1  0.91293300  0.59579600  0.08856800  1
  H  108  1  0.96739300  0.63371300  0.12546200  1
  H  109  1  0.02910300  0.66600500  0.16444100  1
  H  110  1  0.09092900  0.69024000  0.20434600  1
  H  111  1  0.14519600  0.60737500  0.19033000  1
  H  112  1  0.00229900  0.53050500  0.09533400  1
  H  113  1  0.99067300  0.58566100  0.18680500  1
  H  114  1  0.04485300  0.51886300  0.20398000  1
  H  115  1  0.11278900  0.50480300  0.16687800  1
  H  116  1  0.14341700  0.56881900  0.09550100  1
  H  117  1  0.17516800  0.49684200  0.12749700  1
  H  118  1  0.23009600  0.49631000  0.08970700  1
  H  148  1  0.07704500  0.50988500  0.59415300  1
  H  149  1  0.13050100  0.51130400  0.63271900  1
  H  150  1  0.19062800  0.50478500  0.66568300  1
  H  151  1  0.25236600  0.48993200  0.69074100  1
  H  152  1  0.31273600  0.42270400  0.60864100  1
  H  153  1  0.17008900  0.43898300  0.52989300  1
  H  154  1  0.15768700  0.40312700  0.58558000  1
  H  155  1  0.21363800  0.31914100  0.51965100  1
  H  156  1  0.28163700  0.34220300  0.50592500  1
  H  157  1  0.30945600  0.47771200  0.56885000  1
  H  158  1  0.34355100  0.37363400  0.49803000  1
  H  159  1  0.39758800  0.41088300  0.49721700  1
  H  189  1  0.74285400  0.08768500  0.49789800  1
  H  190  1  0.79612200  0.12485500  0.49666600  1
  H  191  1  0.85606500  0.16434100  0.50337100  1
  H  192  1  0.91765600  0.20405400  0.51830800  1
  H  193  1  0.97778100  0.18819400  0.58481500  1
  H  194  1  0.83554000  0.09341800  0.56823100  1
  H  195  1  0.82328700  0.18556700  0.60476100  1
  H  196  1  0.87875900  0.20287500  0.68839100  1
  H  197  1  0.94635900  0.16548500  0.66490700  1
  H  198  1  0.97520000  0.09362100  0.52929100  1
  H  199  1  0.00827400  0.12588000  0.63310800  1
  H  200  1  0.06277600  0.08785000  0.59554100  1
  H  230  1  0.41229500  0.41601900  0.92300600  1
  H  231  1  0.46616900  0.37744900  0.88583000  1
  H  232  1  0.52621200  0.34450300  0.84618100  1
  H  233  1  0.58753200  0.31944300  0.80600500  1
  H  234  1  0.64654500  0.40152700  0.82105300  1
  H  235  1  0.50383800  0.48028500  0.91641000  1
  H  236  1  0.49198500  0.42432500  0.82458900  1
  H  237  1  0.54621700  0.49017600  0.80642300  1
  H  238  1  0.61393100  0.50417600  0.84346400  1
  H  239  1  0.64396500  0.44143700  0.91623200  1
  H  240  1  0.67590200  0.51222800  0.88292400  1
  H  241  1  0.73029000  0.51313200  0.92105100  1
  H  257  1  0.91344600  0.64481600  0.37551300  1
  H  258  1  0.96814600  0.65566100  0.34313100  1
  H  259  1  0.92047100  0.52195900  0.23173500  1
  H  260  1  0.86716300  0.51156400  0.26261800  1
  H  262  1  0.01600300  0.57334100  0.25546400  1
  H  264  1  0.84748200  0.52200300  0.31157800  1
  H  275  1  0.58316200  0.72973800  0.35999200  1
  H  276  1  0.63675700  0.68624600  0.35016900  1
  H  277  1  0.58952600  0.71401600  0.48597900  1
  H  278  1  0.53730900  0.75556700  0.49540800  1
  H  280  1  0.68430000  0.68340500  0.43382900  1
  H  282  1  0.51773000  0.79295200  0.48339000  1
  H  293  1  0.18179500  0.65021300  0.29917300  1
  H  294  1  0.22309900  0.68629800  0.34611200  1
  H  295  1  0.27312000  0.77227000  0.28998300  1
  H  296  1  0.23412000  0.73769900  0.24502600  1
  H  298  1  0.27745400  0.77035800  0.35833600  1
  H  300  1  0.19113700  0.69312600  0.21452300  1
  H  311  1  0.41926900  0.36330900  0.63505900  1
  H  312  1  0.47424500  0.35308900  0.66787500  1
  H  313  1  0.42021200  0.48672800  0.77852500  1
  H  314  1  0.36660100  0.49650200  0.74720500  1
  H  316  1  0.51800800  0.43550600  0.75533100  1
  H  318  1  0.34820000  0.48561300  0.69790600  1
  H  329  1  0.08372000  0.27282900  0.64446300  1
  H  330  1  0.13909400  0.31564700  0.65512700  1
  H  331  1  0.08604500  0.29528100  0.52253800  1
  H  332  1  0.03205200  0.25440600  0.51234000  1
  H  334  1  0.18363000  0.32185300  0.57339000  1
  H  336  1  0.01299000  0.21562500  0.52248900  1
  H  347  1  0.75327400  0.37563200  0.73559200  1
  H  348  1  0.80738000  0.34274800  0.69205200  1
  H  349  1  0.75268900  0.23125600  0.71316700  1
  H  350  1  0.69991700  0.26265500  0.75473500  1
  H  352  1  0.85033700  0.25427700  0.68527300  1
  H  354  1  0.68336900  0.31206600  0.79395400  1
  H  365  1  0.04092400  0.58878900  0.49689300  1
  H  366  1  0.11334600  0.58107900  0.52405400  1
  H  367  1  0.98969000  0.46367400  0.51013200  1
  H  368  1  0.91951100  0.47101800  0.48372200  1
  H  370  1  0.08660200  0.51827700  0.55223600  1
  H  372  1  0.88596000  0.49733700  0.45631500  1
  H  383  1  0.70587000  0.91201600  0.41676300  1
  H  384  1  0.77780000  0.94681200  0.42425700  1
  H  385  1  0.65655300  0.04908700  0.54454200  1
  H  386  1  0.58688300  0.01536300  0.53740500  1
  H  388  1  0.75220700  0.03728400  0.48902800  1
  H  390  1  0.55415700  0.96139700  0.51049900  1
  H  401  1  0.37652400  0.51238800  0.09911400  1
  H  402  1  0.44924400  0.48545300  0.06420000  1
  H  403  1  0.32397200  0.50011300  0.96116400  1
  H  404  1  0.25348900  0.52629200  0.99496500  1
  H  406  1  0.42235700  0.45792200  0.97341100  1
  H  408  1  0.22000200  0.55340100  0.04880100  1
  H  419  1  0.54226800  0.41682900  0.51108900  1
  H  420  1  0.61438700  0.42466700  0.48395300  1
  H  421  1  0.48897200  0.54300500  0.49956800  1
  H  422  1  0.41908200  0.53553900  0.52595700  1
  H  424  1  0.58674000  0.48829700  0.45684700  1
  H  426  1  0.38601700  0.50893300  0.55295700  1
  H  437  1  0.20796200  0.09611500  0.58905400  1
  H  438  1  0.28023200  0.06086400  0.58092400  1
  H  439  1  0.15567600  0.95869200  0.46296000  1
  H  440  1  0.08561100  0.99280600  0.47072400  1
  H  442  1  0.25266100  0.97009000  0.51732100  1
  H  444  1  0.05232800  0.04663400  0.49759600  1
  H  455  1  0.87532000  0.49881600  0.91278800  1
  H  456  1  0.94728800  0.52607300  0.94764800  1
  H  457  1  0.82341100  0.51148500  0.05098500  1
  H  458  1  0.75365600  0.48498100  0.01723900  1
  H  460  1  0.92048300  0.55373100  0.03850400  1
  H  462  1  0.72063000  0.45761500  0.96359700  1
  C  1  1  0.78295800  0.57283200  0.45522800  1
  C  2  1  0.79284000  0.60257700  0.47592900  1
  C  3  1  0.75704100  0.62055700  0.47186700  1
  C  4  1  0.72228800  0.60287000  0.44884500  1
  C  5  1  0.68248400  0.61660600  0.44038300  1
  C  6  1  0.67910800  0.64794900  0.45471300  1
  C  7  1  0.71448600  0.66506000  0.47822300  1
  C  8  1  0.75359800  0.65159200  0.48683300  1
  C  9  1  0.83387500  0.61098700  0.49683500  1
  C  10  1  0.86564100  0.58892900  0.49706200  1
  C  11  1  0.85700100  0.55864300  0.47674900  1
  C  12  1  0.81541900  0.55057000  0.45557500  1
  C  13  1  0.69230000  0.55179200  0.43514800  1
  C  14  1  0.68137400  0.53057900  0.40573000  1
  C  15  1  0.71602900  0.53404500  0.38700400  1
  C  16  1  0.75062900  0.55744800  0.40382200  1
  C  17  1  0.71697000  0.51894600  0.35594100  1
  C  18  1  0.75316500  0.52789500  0.34152200  1
  C  19  1  0.78932100  0.55137000  0.35760400  1
  C  20  1  0.78709700  0.56642300  0.38903900  1
  C  21  1  0.66077100  0.55234300  0.45806300  1
  C  22  1  0.61908000  0.53152200  0.45124300  1
  C  23  1  0.60805200  0.51147000  0.42099000  1
  C  24  1  0.63917200  0.51058800  0.39826200  1
  C  37  1  0.73716900  0.57098400  0.43596200  1
  C  42  1  0.45080900  0.88578900  0.43339800  1
  C  43  1  0.45958500  0.87873700  0.40404900  1
  C  44  1  0.42481700  0.85668400  0.38547500  1
  C  45  1  0.39215100  0.84904000  0.40230800  1
  C  46  1  0.35505400  0.82567100  0.38762100  1
  C  47  1  0.35146000  0.81046300  0.35623300  1
  C  48  1  0.38446100  0.81926200  0.34010700  1
  C  49  1  0.42128300  0.84222000  0.35448400  1
  C  50  1  0.49907400  0.89271200  0.39643100  1
  C  51  1  0.53049400  0.91444000  0.41890200  1
  C  52  1  0.52298000  0.92244900  0.44883300  1
  C  53  1  0.48278600  0.90795800  0.45610200  1
  C  54  1  0.36012900  0.88527900  0.45335700  1
  C  55  1  0.34870200  0.87663100  0.47418200  1
  C  56  1  0.38392700  0.85452800  0.47061200  1
  C  57  1  0.41938800  0.84840500  0.44751900  1
  C  58  1  0.38461600  0.83829100  0.48542200  1
  C  59  1  0.42156500  0.81512900  0.47654900  1
  C  60  1  0.45872500  0.80824100  0.45347500  1
  C  61  1  0.45673100  0.82487900  0.43866500  1
  C  62  1  0.32842200  0.90779000  0.45305200  1
  C  63  1  0.28603600  0.92147000  0.47373000  1
  C  64  1  0.27451700  0.91083700  0.49338600  1
  C  65  1  0.30581000  0.88882900  0.49401200  1
  C  78  1  0.40601800  0.86738700  0.43436400  1
  C  83  1  0.11734600  0.55390500  0.12452700  1
  C  84  1  0.12715800  0.53300700  0.13338100  1
  C  85  1  0.09120300  0.53709800  0.15530600  1
  C  86  1  0.05649100  0.56036800  0.16076500  1
  C  87  1  0.01628200  0.56873100  0.18270300  1
  C  88  1  0.01241300  0.55402800  0.19932900  1
  C  89  1  0.04789000  0.53035200  0.19288300  1
  C  90  1  0.08741800  0.52184700  0.17106400  1
  C  91  1  0.16825400  0.51192500  0.12081100  1
  C  92  1  0.20014500  0.51175600  0.09867200  1
  C  93  1  0.19154300  0.53228900  0.08891400  1
  C  94  1  0.14991300  0.55362800  0.10208100  1
  C  95  1  0.02700900  0.57469400  0.12362700  1
  C  96  1  0.01705800  0.60419500  0.13157800  1
  C  97  1  0.05204100  0.62254600  0.15369800  1
  C  98  1  0.08549200  0.60537400  0.16065100  1
  C  99  1  0.05446900  0.65358600  0.16920800  1
  C  100  1  0.09092500  0.66760300  0.19249100  1
  C  101  1  0.12564100  0.65109800  0.20031200  1
  C  102  1  0.12210300  0.61972200  0.18436500  1
  C  103  1  0.99507900  0.55210300  0.10139200  1
  C  104  1  0.95376800  0.55930800  0.08731900  1
  C  105  1  0.94369600  0.58965500  0.09723600  1
  C  106  1  0.97531100  0.61206400  0.11893200  1
  C  119  1  0.07160800  0.57339000  0.14199700  1
  C  124  1  0.28447100  0.43374200  0.55441700  1
  C  125  1  0.29495600  0.40395500  0.53382000  1
  C  126  1  0.25922800  0.38608500  0.53784200  1
  C  127  1  0.22393900  0.40389300  0.56074100  1
  C  128  1  0.18372200  0.39029600  0.56892200  1
  C  129  1  0.18033400  0.35896400  0.55440300  1
  C  130  1  0.21634000  0.34173600  0.53105400  1
  C  131  1  0.25592100  0.35506400  0.52274400  1
  C  132  1  0.33622700  0.39542200  0.51292000  1
  C  133  1  0.36758800  0.41738900  0.51258000  1
  C  134  1  0.35831800  0.44771600  0.53276700  1
  C  135  1  0.31653700  0.45591100  0.55395700  1
  C  136  1  0.19335800  0.45499300  0.57438200  1
  C  137  1  0.18189500  0.47626400  0.60377000  1
  C  138  1  0.21652300  0.47283700  0.62255600  1
  C  139  1  0.25145900  0.44929300  0.60581600  1
  C  140  1  0.21722000  0.48812400  0.65361700  1
  C  141  1  0.25368800  0.47931900  0.66812700  1
  C  142  1  0.29039000  0.45581600  0.65213700  1
  C  143  1  0.28832000  0.44052300  0.62069400  1
  C  144  1  0.16193000  0.45437400  0.55141400  1
  C  145  1  0.11981800  0.47521000  0.55815800  1
  C  146  1  0.10838200  0.49540900  0.58838100  1
  C  147  1  0.13939700  0.49634800  0.61116300  1
  C  160  1  0.23847100  0.43573000  0.57364900  1
  C  165  1  0.94965800  0.12287700  0.57338900  1
  C  166  1  0.95986400  0.13178000  0.60309200  1
  C  167  1  0.92409300  0.15381600  0.62116800  1
  C  168  1  0.88902100  0.15926400  0.60357900  1
  C  169  1  0.84907000  0.18140900  0.61742000  1
  C  170  1  0.84573100  0.19818400  0.64877000  1
  C  171  1  0.88142600  0.19166900  0.66578000  1
  C  172  1  0.92075100  0.16967600  0.65220600  1
  C  173  1  0.00110900  0.11915500  0.61137500  1
  C  174  1  0.03274900  0.09687500  0.58922600  1
  C  175  1  0.02376500  0.08703900  0.55897700  1
  C  176  1  0.98200500  0.10028500  0.55103200  1
  C  177  1  0.85870300  0.12212700  0.55250600  1
  C  178  1  0.84731800  0.13050700  0.53143800  1
  C  179  1  0.88191500  0.15264600  0.53490900  1
  C  180  1  0.91684300  0.15907100  0.55822100  1
  C  181  1  0.88262700  0.16866400  0.51986700  1
  C  182  1  0.91903300  0.19185100  0.52870700  1
  C  183  1  0.95559200  0.19904500  0.55205000  1
  C  184  1  0.95350100  0.18265700  0.56709800  1
  C  185  1  0.82738600  0.09975400  0.55300600  1
  C  186  1  0.78545400  0.08589000  0.53225900  1
  C  187  1  0.77406600  0.09620100  0.51229500  1
  C  188  1  0.80496600  0.11807000  0.51147400  1
  C  201  1  0.90369900  0.14039500  0.57167100  1
  C  206  1  0.61833000  0.45579700  0.88663100  1
  C  207  1  0.62817100  0.47640300  0.87744600  1
  C  208  1  0.59235200  0.47232100  0.85550600  1
  C  209  1  0.55763600  0.44937200  0.85037800  1
  C  210  1  0.51755400  0.44104900  0.82847800  1
  C  211  1  0.51379700  0.45546500  0.81156400  1
  C  212  1  0.54918600  0.47887800  0.81772600  1
  C  213  1  0.58859100  0.48734300  0.83950700  1
  C  214  1  0.66903200  0.49734300  0.88983200  1
  C  215  1  0.70060400  0.49773600  0.91217800  1
  C  216  1  0.69193100  0.47756900  0.92234300  1
  C  217  1  0.65059100  0.45632100  0.90931100  1
  C  218  1  0.52774400  0.43579100  0.88788700  1
  C  219  1  0.51685800  0.40640300  0.87977000  1
  C  220  1  0.55163000  0.38761900  0.85754200  1
  C  221  1  0.58617900  0.40435900  0.85078000  1
  C  222  1  0.55262500  0.35655700  0.84166200  1
  C  223  1  0.58879000  0.34204600  0.81816000  1
  C  224  1  0.62490600  0.35803400  0.81058000  1
  C  225  1  0.62263700  0.38947600  0.82689300  1
  C  226  1  0.49607300  0.45876000  0.91025300  1
  C  227  1  0.45429900  0.45200500  0.92434100  1
  C  228  1  0.44338500  0.42178500  0.91429000  1
  C  229  1  0.47465900  0.39900500  0.89243800  1
  C  242  1  0.57263000  0.43652400  0.86936400  1
  C  247  1  0.93976800  0.56615300  0.26398700  1
  C  248  1  0.93204600  0.58753000  0.29426500  1
  C  249  1  0.90018500  0.58119300  0.31311200  1
  C  250  1  0.87627700  0.55305100  0.30214400  1
  C  251  1  0.88318900  0.53230500  0.27164600  1
  C  252  1  0.91423900  0.53857900  0.25307800  1
  C  254  1  0.91844500  0.62953000  0.35365500  1
  C  255  1  0.94975300  0.63571500  0.33515300  1
  C  261  1  0.97953800  0.56889800  0.24686700  1
  C  263  1  0.84850100  0.54376100  0.31932200  1
  C  265  1  0.60862300  0.70033700  0.44124900  1
  C  266  1  0.60120900  0.70833200  0.41918700  1
  C  267  1  0.57000300  0.73367600  0.42493000  1
  C  268  1  0.54649100  0.75192100  0.45313600  1
  C  269  1  0.55317800  0.74311200  0.47461500  1
  C  270  1  0.58359200  0.71812600  0.46893400  1
  C  272  1  0.58802600  0.72386000  0.37580000  1
  C  273  1  0.61870300  0.69901800  0.37019800  1
  C  279  1  0.64764500  0.68013800  0.43887500  1
  C  281  1  0.51891600  0.77843200  0.46173800  1
  C  283  1  0.26205000  0.74841200  0.31280000  1
  C  284  1  0.24020200  0.72160400  0.30884300  1
  C  285  1  0.21623700  0.70052500  0.28144700  1
  C  286  1  0.21358600  0.70562500  0.25714800  1
  C  287  1  0.23554900  0.73247300  0.26151600  1
  C  288  1  0.25885400  0.75319800  0.28841700  1
  C  290  1  0.19754900  0.66940700  0.30189200  1
  C  291  1  0.22114500  0.69001300  0.32869300  1
  C  297  1  0.28580500  0.76965000  0.33939900  1
  C  299  1  0.18813600  0.68733400  0.23001800  1
  C  301  1  0.44169000  0.44263600  0.74655400  1
  C  302  1  0.43499500  0.42106900  0.71628100  1
  C  303  1  0.40295300  0.42702700  0.69717700  1
  C  304  1  0.37777800  0.45497100  0.70787600  1
  C  305  1  0.38366500  0.47590800  0.73835800  1
  C  306  1  0.41492200  0.47000700  0.75717300  1
  C  308  1  0.42351600  0.37872500  0.65690700  1
  C  309  1  0.45496000  0.37289200  0.67566000  1
  C  315  1  0.48142500  0.44017100  0.76389800  1
  C  317  1  0.34970900  0.46390200  0.69043500  1
  C  319  1  0.10717200  0.30657100  0.56636800  1
  C  320  1  0.10018700  0.29744500  0.58760300  1
  C  321  1  0.06791500  0.27250700  0.58138100  1
  C  322  1  0.04277900  0.25580500  0.55349100  1
  C  323  1  0.04895200  0.26579300  0.53290900  1
  C  324  1  0.08042500  0.29040000  0.53907200  1
  C  326  1  0.08814700  0.27957700  0.62929400  1
  C  327  1  0.11983800  0.30403000  0.63537700  1
  C  333  1  0.14719000  0.32615500  0.56892800  1
  C  335  1  0.01461000  0.22952000  0.54425800  1
  C  337  1  0.77421600  0.26350300  0.70157100  1
  C  338  1  0.76790100  0.29394500  0.71075800  1
  C  339  1  0.73637600  0.31308800  0.73611200  1
  C  340  1  0.71134200  0.30222800  0.75313600  1
  C  341  1  0.71680800  0.27159500  0.74311200  1
  C  342  1  0.74757900  0.25274800  0.71812000  1
  C  344  1  0.75721500  0.35365800  0.72878800  1
  C  345  1  0.78817700  0.33487100  0.70392200  1
  C  351  1  0.81370100  0.24598400  0.68154200  1
  C  353  1  0.68409100  0.31966400  0.77981100  1
  C  355  1  0.03709900  0.49990000  0.51649500  1
  C  356  1  0.03796700  0.52383900  0.51080300  1
  C  357  1  0.99572800  0.52842200  0.49521600  1
  C  358  1  0.95092400  0.50935200  0.48510500  1
  C  359  1  0.95124800  0.48511200  0.49020100  1
  C  360  1  0.99307300  0.48057400  0.50563700  1
  C  362  1  0.04046600  0.57141200  0.50070100  1
  C  363  1  0.08173000  0.56702700  0.51620300  1
  C  369  1  0.07361400  0.49878400  0.53624300  1
  C  371  1  0.90668700  0.51425700  0.47154900  1
  C  373  1  0.70313000  0.01963300  0.50731500  1
  C  374  1  0.70369600  0.99023000  0.48291200  1
  C  375  1  0.66175300  0.97009300  0.47845900  1
  C  376  1  0.61754000  0.97883600  0.49814200  1
  C  377  1  0.61816700  0.00791200  0.52281900  1
  C  378  1  0.65966300  0.02787200  0.52720700  1
  C  380  1  0.70561400  0.93302500  0.43445500  1
  C  381  1  0.74660100  0.95287100  0.43872000  1
  C  387  1  0.73938700  0.04056200  0.50851200  1
  C  389  1  0.57364900  0.96038900  0.49346400  1
  C  391  1  0.37185900  0.49350000  0.99087800  1
  C  392  1  0.37298600  0.49901600  0.02044700  1
  C  393  1  0.33059100  0.51447000  0.04063800  1
  C  394  1  0.28540300  0.52462800  0.03176300  1
  C  395  1  0.28551000  0.51977800  0.00251700  1
  C  396  1  0.32746300  0.50443800  0.98250500  1
  C  398  1  0.37592300  0.50873200  0.07798200  1
  C  399  1  0.41735000  0.49335600  0.05807100  1
  C  405  1  0.40865700  0.47388800  0.96995200  1
  C  407  1  0.24103400  0.53800000  0.05023300  1
  C  409  1  0.53685500  0.50644200  0.49260200  1
  C  410  1  0.53813700  0.48230600  0.49799800  1
  C  411  1  0.49607300  0.47765200  0.51357300  1
  C  412  1  0.45102800  0.49686700  0.52401000  1
  C  413  1  0.45096400  0.52130800  0.51922300  1
  C  414  1  0.49258600  0.52589600  0.50376200  1
  C  416  1  0.54150000  0.43434600  0.50749900  1
  C  417  1  0.58258900  0.43880400  0.49201100  1
  C  423  1  0.57334200  0.50774400  0.47294000  1
  C  425  1  0.40698900  0.49198200  0.53765500  1
  C  427  1  0.20333700  0.98810700  0.49934100  1
  C  428  1  0.20441900  0.01760900  0.52351400  1
  C  429  1  0.16226400  0.03799300  0.52833800  1
  C  430  1  0.11733400  0.02938000  0.50928500  1
  C  431  1  0.11744600  0.00017500  0.48482100  1
  C  432  1  0.15917900  0.97998600  0.48004400  1
  C  434  1  0.20734500  0.07502200  0.57151900  1
  C  435  1  0.24852500  0.05491700  0.56689200  1
  C  441  1  0.23978800  0.96699200  0.49792100  1
  C  443  1  0.07314900  0.04802700  0.51441700  1
  C  445  1  0.87078000  0.51815500  0.02119700  1
  C  446  1  0.87180600  0.51255300  0.99159300  1
  C  447  1  0.82983500  0.49690000  0.97142400  1
  C  448  1  0.78511700  0.48661200  0.98034100  1
  C  449  1  0.78528200  0.49163500  0.00965500  1
  C  450  1  0.82682000  0.50715800  0.02963700  1
  C  452  1  0.87471100  0.50258200  0.93395800  1
  C  453  1  0.91571500  0.51813800  0.95383800  1
  C  459  1  0.90725400  0.53779400  0.04203000  1
  C  461  1  0.74118700  0.47287000  0.96184800  1
  N  38  1  0.82099000  0.56041500  0.34290800  1
  N  39  1  0.89116300  0.54073000  0.47965900  1
  N  40  1  0.64102200  0.66253900  0.44928200  1
  N  41  1  0.58830400  0.53110000  0.47223700  1
  N  79  1  0.49097400  0.78461900  0.44470000  1
  N  80  1  0.55694800  0.94285500  0.46712400  1
  N  81  1  0.31961000  0.78805300  0.33945100  1
  N  82  1  0.25528000  0.94308200  0.47441500  1
  N  120  1  0.15638100  0.66574700  0.22437700  1
  N  121  1  0.22585300  0.52948400  0.06827000  1
  N  122  1  0.97372200  0.55927400  0.21893800  1
  N  123  1  0.92267300  0.53852700  0.06607000  1
  N  161  1  0.32242400  0.44701900  0.66698800  1
  N  162  1  0.39204300  0.46554100  0.52967400  1
  N  163  1  0.14153800  0.34463200  0.55947700  1
  N  164  1  0.08905400  0.47550900  0.53710800  1
  N  202  1  0.98753700  0.22261000  0.56098500  1
  N  203  1  0.05784800  0.06621200  0.54096500  1
  N  204  1  0.80739000  0.21807100  0.66338500  1
  N  205  1  0.75486100  0.06449200  0.53184600  1
  N  243  1  0.65638400  0.34319200  0.78666700  1
  N  244  1  0.72578500  0.48072100  0.94329700  1
  N  245  1  0.47530300  0.45015300  0.79189000  1
  N  246  1  0.42336800  0.47302900  0.94574700  1
  N  253  1  0.89530200  0.60260500  0.34203400  1
  N  256  1  0.95551100  0.61456200  0.30635600  1
  N  271  1  0.56527400  0.74023300  0.40284300  1
  N  274  1  0.62426700  0.69229600  0.39201000  1
  N  289  1  0.19609300  0.67543800  0.27948500  1
  N  292  1  0.24141200  0.71513100  0.33109700  1
  N  307  1  0.39914400  0.40546900  0.66828100  1
  N  310  1  0.45966100  0.39420400  0.70443300  1
  N  325  1  0.06384300  0.26474000  0.60262400  1
  N  328  1  0.12480100  0.31191600  0.61438000  1
  N  343  1  0.73293700  0.34214900  0.74394300  1
  N  346  1  0.79250400  0.30592500  0.69597100  1
  N  361  1  0.99950100  0.55208100  0.49095500  1
  N  364  1  0.07882100  0.54358100  0.52056800  1
  N  379  1  0.66520200  0.94240900  0.45434800  1
  N  382  1  0.74398800  0.98044400  0.46260500  1
  N  397  1  0.33458000  0.51854300  0.06848800  1
  N  400  1  0.41421800  0.48917700  0.03032900  1
  N  415  1  0.50027600  0.45380200  0.51753200  1
  N  418  1  0.57925700  0.46244000  0.48794600  1
  N  433  1  0.16624800  0.06577300  0.55220300  1
  N  436  1  0.24541300  0.02724100  0.54324100  1
  N  451  1  0.83380300  0.49270900  0.94352500  1
  N  454  1  0.91261600  0.52242800  0.98162500  1
