# generated using pymatgen
data_CuH6(C2N)6
_symmetry_space_group_name_H-M   'P 1'
_cell_length_a   11.51148000
_cell_length_b   11.51148000
_cell_length_c   12.78635000
_cell_angle_alpha   89.99955000
_cell_angle_beta   89.99955000
_cell_angle_gamma   89.99355000
_symmetry_Int_Tables_number   1
_chemical_formula_structural   CuH6(C2N)6
_chemical_formula_sum   'Cu4 H24 C48 N24'
_cell_volume   1694.37256963
_cell_formula_units_Z   4
loop_
 _symmetry_equiv_pos_site_id
 _symmetry_equiv_pos_as_xyz
  1  'x, y, z'
loop_
 _atom_site_type_symbol
 _atom_site_label
 _atom_site_symmetry_multiplicity
 _atom_site_fract_x
 _atom_site_fract_y
 _atom_site_fract_z
 _atom_site_occupancy
  Cu  Cu0  1  0.64900000  0.64915000  0.74961000  1
  Cu  Cu1  1  0.35085000  0.35100000  0.25039000  1
  Cu  Cu2  1  0.85109000  0.14890000  0.50000000  1
  Cu  Cu3  1  0.14894000  0.85106000  0.99999000  1
  H  H4  1  0.48365000  0.83148000  0.71126000  1
  H  H5  1  0.30045000  0.91048000  0.78857000  1
  H  H6  1  0.72503000  0.37179000  0.92343000  1
  H  H7  1  0.51631000  0.16857000  0.21128000  1
  H  H8  1  0.69955000  0.08953000  0.28857000  1
  H  H9  1  0.27501000  0.62823000  0.42341000  1
  H  H10  1  0.66856000  0.98352000  0.46116000  1
  H  H11  1  0.58946000  0.80046000  0.53861000  1
  H  H12  1  0.12826000  0.22487000  0.67333000  1
  H  H13  1  0.33141000  0.01649000  0.96119000  1
  H  H14  1  0.41051000  0.19956000  0.03867000  1
  H  H15  1  0.87175000  0.77515000  0.17333000  1
  H  H16  1  0.98350000  0.66859000  0.03881000  1
  H  H17  1  0.80044000  0.58949000  0.96133000  1
  H  H18  1  0.22485000  0.12826000  0.82667000  1
  H  H19  1  0.01648000  0.33143000  0.53884000  1
  H  H20  1  0.19954000  0.41054000  0.46138000  1
  H  H21  1  0.77513000  0.87175000  0.32667000  1
  H  H22  1  0.16852000  0.51635000  0.28874000  1
  H  H23  1  0.08951000  0.69955000  0.21143000  1
  H  H24  1  0.62821000  0.27497000  0.07657000  1
  H  H25  1  0.83143000  0.48369000  0.78872000  1
  H  H26  1  0.91047000  0.30045000  0.71143000  1
  H  H27  1  0.37177000  0.72499000  0.57659000  1
  C  C28  1  0.44566000  0.79262000  0.78075000  1
  C  C29  1  0.34517000  0.83719000  0.82421000  1
  C  C30  1  0.35194000  0.69841000  0.95344000  1
  C  C31  1  0.34867000  0.54624000  0.09113000  1
  C  C32  1  0.45112000  0.49490000  0.04383000  1
  C  C33  1  0.59217000  0.35391000  0.04234000  1
  C  C34  1  0.55433000  0.20739000  0.28078000  1
  C  C35  1  0.65481000  0.16280000  0.32423000  1
  C  C36  1  0.64808000  0.30156000  0.45346000  1
  C  C37  1  0.65131000  0.45371000  0.59110000  1
  C  C38  1  0.54885000  0.50506000  0.54385000  1
  C  C39  1  0.40781000  0.64605000  0.54237000  1
  C  C40  1  0.70742000  0.94555000  0.53066000  1
  C  C41  1  0.66283000  0.84511000  0.57416000  1
  C  C42  1  0.80162000  0.85188000  0.70340000  1
  C  C43  1  0.95365000  0.84873000  0.84116000  1
  C  C44  1  0.00499000  0.95114000  0.79387000  1
  C  C45  1  0.14596000  0.09218000  0.79241000  1
  C  C46  1  0.29256000  0.05444000  0.03071000  1
  C  C47  1  0.33716000  0.15488000  0.07424000  1
  C  C48  1  0.19839000  0.14810000  0.20345000  1
  C  C49  1  0.04634000  0.15128000  0.34120000  1
  C  C50  1  0.99498000  0.04888000  0.29390000  1
  C  C51  1  0.85402000  0.90783000  0.29241000  1
  C  C52  1  0.94555000  0.70744000  0.96929000  1
  C  C53  1  0.84512000  0.66284000  0.92576000  1
  C  C54  1  0.85190000  0.80160000  0.79655000  1
  C  C55  1  0.84871000  0.95366000  0.65880000  1
  C  C56  1  0.95113000  0.00501000  0.70610000  1
  C  C57  1  0.09217000  0.14597000  0.70759000  1
  C  C58  1  0.05444000  0.29257000  0.46933000  1
  C  C59  1  0.15489000  0.33716000  0.42583000  1
  C  C60  1  0.14812000  0.19838000  0.29660000  1
  C  C61  1  0.15127000  0.04634000  0.15883000  1
  C  C62  1  0.04886000  0.99500000  0.20613000  1
  C  C63  1  0.90782000  0.85404000  0.20759000  1
  C  C64  1  0.20738000  0.55434000  0.21925000  1
  C  C65  1  0.16280000  0.65482000  0.17579000  1
  C  C66  1  0.30159000  0.64806000  0.04655000  1
  C  C67  1  0.45376000  0.65132000  0.90887000  1
  C  C68  1  0.50510000  0.54888000  0.95617000  1
  C  C69  1  0.64609000  0.40783000  0.95765000  1
  C  C70  1  0.79261000  0.44567000  0.71922000  1
  C  C71  1  0.83720000  0.34519000  0.67576000  1
  C  C72  1  0.69844000  0.35192000  0.54653000  1
  C  C73  1  0.54628000  0.34869000  0.40890000  1
  C  C74  1  0.49494000  0.45115000  0.45614000  1
  C  C75  1  0.35395000  0.59219000  0.45762000  1
  N  N76  1  0.50306000  0.69929000  0.82167000  1
  N  N77  1  0.29628000  0.79241000  0.91197000  1
  N  N78  1  0.49464000  0.39610000  0.08600000  1
  N  N79  1  0.49694000  0.30070000  0.32176000  1
  N  N80  1  0.70368000  0.20752000  0.41203000  1
  N  N81  1  0.50530000  0.60381000  0.58612000  1
  N  N82  1  0.80076000  0.00294000  0.57159000  1
  N  N83  1  0.70766000  0.79618000  0.66191000  1
  N  N84  1  0.10369000  0.99472000  0.83614000  1
  N  N85  1  0.19924000  0.99705000  0.07164000  1
  N  N86  1  0.29237000  0.20376000  0.16200000  1
  N  N87  1  0.89627000  0.00529000  0.33616000  1
  N  N88  1  0.00295000  0.80076000  0.92836000  1
  N  N89  1  0.79623000  0.70763000  0.83800000  1
  N  N90  1  0.99471000  0.10373000  0.66384000  1
  N  N91  1  0.99706000  0.19924000  0.42841000  1
  N  N92  1  0.20381000  0.29234000  0.33809000  1
  N  N93  1  0.00528000  0.89630000  0.16386000  1
  N  N94  1  0.30071000  0.49694000  0.17833000  1
  N  N95  1  0.20759000  0.70372000  0.08803000  1
  N  N96  1  0.60390000  0.50536000  0.91400000  1
  N  N97  1  0.69930000  0.50306000  0.67824000  1
  N  N98  1  0.79248000  0.29632000  0.58796000  1
  N  N99  1  0.39619000  0.49470000  0.41388000  1
