# generated using pymatgen
data_ZnH5C8N3O2
_symmetry_space_group_name_H-M   'P 1'
_cell_length_a   9.23030000
_cell_length_b   10.15068000
_cell_length_c   27.32707000
_cell_angle_alpha   90.00000000
_cell_angle_beta   90.00000000
_cell_angle_gamma   90.00000000
_symmetry_Int_Tables_number   1
_chemical_formula_structural   ZnH5C8N3O2
_chemical_formula_sum   'Zn8 H40 C64 N24 O16'
_cell_volume   2560.37762154
_cell_formula_units_Z   8
loop_
 _symmetry_equiv_pos_site_id
 _symmetry_equiv_pos_as_xyz
  1  'x, y, z'
loop_
 _atom_site_type_symbol
 _atom_site_label
 _atom_site_symmetry_multiplicity
 _atom_site_fract_x
 _atom_site_fract_y
 _atom_site_fract_z
 _atom_site_occupancy
  Zn  Zn0  1  0.08018000  0.89123000  0.55146000  1
  Zn  Zn1  1  0.58017000  0.60877000  0.44855000  1
  Zn  Zn2  1  0.91982000  0.10877000  0.05146000  1
  Zn  Zn3  1  0.41982000  0.39123000  0.94855000  1
  Zn  Zn4  1  0.91982000  0.10877000  0.44855000  1
  Zn  Zn5  1  0.41982000  0.39123000  0.55146000  1
  Zn  Zn6  1  0.08018000  0.89123000  0.94855000  1
  Zn  Zn7  1  0.58017000  0.60877000  0.05146000  1
  H  H8  1  0.97461000  0.64242000  0.65906000  1
  H  H9  1  0.86102000  0.45853000  0.70436000  1
  H  H10  1  0.25434000  0.02131000  0.70458000  1
  H  H11  1  0.31350000  0.81713000  0.45708000  1
  H  H12  1  0.19948000  0.61445000  0.58601000  1
  H  H13  1  0.47461000  0.85758000  0.34094000  1
  H  H14  1  0.36102000  0.04147000  0.29564000  1
  H  H15  1  0.75434000  0.47869000  0.29542000  1
  H  H16  1  0.81350000  0.68288000  0.54292000  1
  H  H17  1  0.69948000  0.88555000  0.41399000  1
  H  H18  1  0.02539000  0.35758000  0.15906000  1
  H  H19  1  0.13898000  0.54148000  0.20436000  1
  H  H20  1  0.74565000  0.97869000  0.20458000  1
  H  H21  1  0.68649000  0.18288000  0.95708000  1
  H  H22  1  0.80052000  0.38555000  0.08601000  1
  H  H23  1  0.52539000  0.14242000  0.84094000  1
  H  H24  1  0.63898000  0.95853000  0.79564000  1
  H  H25  1  0.24565000  0.52132000  0.79542000  1
  H  H26  1  0.18650000  0.31712000  0.04292000  1
  H  H27  1  0.30052000  0.11445000  0.91399000  1
  H  H28  1  0.02539000  0.35758000  0.34094000  1
  H  H29  1  0.13898000  0.54148000  0.29564000  1
  H  H30  1  0.74565000  0.97869000  0.29542000  1
  H  H31  1  0.68649000  0.18288000  0.54292000  1
  H  H32  1  0.80052000  0.38555000  0.41399000  1
  H  H33  1  0.52539000  0.14242000  0.65906000  1
  H  H34  1  0.63898000  0.95853000  0.70436000  1
  H  H35  1  0.24566000  0.52132000  0.70458000  1
  H  H36  1  0.18650000  0.31712000  0.45708000  1
  H  H37  1  0.30052000  0.11445000  0.58601000  1
  H  H38  1  0.97461000  0.64242000  0.84094000  1
  H  H39  1  0.86102000  0.45853000  0.79564000  1
  H  H40  1  0.25434000  0.02131000  0.79542000  1
  H  H41  1  0.31350000  0.81713000  0.04292000  1
  H  H42  1  0.19948000  0.61445000  0.91399000  1
  H  H43  1  0.47461000  0.85758000  0.15906000  1
  H  H44  1  0.36102000  0.04147000  0.20436000  1
  H  H45  1  0.75434000  0.47869000  0.20458000  1
  H  H46  1  0.81350000  0.68288000  0.95708000  1
  H  H47  1  0.69948000  0.88555000  0.08601000  1
  C  C48  1  0.12233000  0.86795000  0.64356000  1
  C  C49  1  0.11885000  0.85149000  0.69801000  1
  C  C50  1  0.04384000  0.74815000  0.72349000  1
  C  C51  1  0.97476000  0.64199000  0.69875000  1
  C  C52  1  0.91065000  0.53988000  0.72417000  1
  C  C53  1  0.19484000  0.94586000  0.72437000  1
  C  C54  1  0.30902000  0.74565000  0.48650000  1
  C  C55  1  0.25041000  0.64307000  0.55191000  1
  C  C56  1  0.62233000  0.63206000  0.35644000  1
  C  C57  1  0.61885000  0.64851000  0.30199000  1
  C  C58  1  0.54384000  0.75186000  0.27651000  1
  C  C59  1  0.47476000  0.85801000  0.30125000  1
  C  C60  1  0.41065000  0.96012000  0.27583000  1
  C  C61  1  0.69484000  0.55414000  0.27563000  1
  C  C62  1  0.80902000  0.75436000  0.51350000  1
  C  C63  1  0.75040000  0.85694000  0.44809000  1
  C  C64  1  0.87766000  0.13205000  0.14356000  1
  C  C65  1  0.88115000  0.14851000  0.19801000  1
  C  C66  1  0.95616000  0.25185000  0.22349000  1
  C  C67  1  0.02524000  0.35801000  0.19875000  1
  C  C68  1  0.08935000  0.46012000  0.22417000  1
  C  C69  1  0.80516000  0.05414000  0.22437000  1
  C  C70  1  0.69098000  0.25436000  0.98650000  1
  C  C71  1  0.74959000  0.35693000  0.05191000  1
  C  C72  1  0.37767000  0.36795000  0.85644000  1
  C  C73  1  0.38115000  0.35149000  0.80199000  1
  C  C74  1  0.45616000  0.24815000  0.77651000  1
  C  C75  1  0.52523000  0.14199000  0.80125000  1
  C  C76  1  0.58934000  0.03988000  0.77583000  1
  C  C77  1  0.30516000  0.44586000  0.77563000  1
  C  C78  1  0.19098000  0.24565000  0.01350000  1
  C  C79  1  0.24959000  0.14307000  0.94809000  1
  C  C80  1  0.87767000  0.13206000  0.35644000  1
  C  C81  1  0.88114000  0.14851000  0.30199000  1
  C  C82  1  0.95616000  0.25185000  0.27651000  1
  C  C83  1  0.02524000  0.35801000  0.30125000  1
  C  C84  1  0.08935000  0.46012000  0.27583000  1
  C  C85  1  0.80516000  0.05414000  0.27563000  1
  C  C86  1  0.69098000  0.25435000  0.51350000  1
  C  C87  1  0.74959000  0.35693000  0.44809000  1
  C  C88  1  0.37767000  0.36795000  0.64356000  1
  C  C89  1  0.38115000  0.35149000  0.69801000  1
  C  C90  1  0.45616000  0.24815000  0.72349000  1
  C  C91  1  0.52523000  0.14199000  0.69875000  1
  C  C92  1  0.58934000  0.03988000  0.72417000  1
  C  C93  1  0.30516000  0.44586000  0.72437000  1
  C  C94  1  0.19098000  0.24565000  0.48650000  1
  C  C95  1  0.24959000  0.14307000  0.55191000  1
  C  C96  1  0.12233000  0.86795000  0.85644000  1
  C  C97  1  0.11885000  0.85149000  0.80199000  1
  C  C98  1  0.04384000  0.74815000  0.77651000  1
  C  C99  1  0.97476000  0.64199000  0.80125000  1
  C  C100  1  0.91065000  0.53988000  0.77583000  1
  C  C101  1  0.19484000  0.94586000  0.77563000  1
  C  C102  1  0.30902000  0.74565000  0.01350000  1
  C  C103  1  0.25041000  0.64307000  0.94809000  1
  C  C104  1  0.62233000  0.63205000  0.14356000  1
  C  C105  1  0.61885000  0.64851000  0.19801000  1
  C  C106  1  0.54384000  0.75186000  0.22349000  1
  C  C107  1  0.47476000  0.85801000  0.19875000  1
  C  C108  1  0.41065000  0.96012000  0.22417000  1
  C  C109  1  0.69484000  0.55414000  0.22437000  1
  C  C110  1  0.80902000  0.75436000  0.98650000  1
  C  C111  1  0.75041000  0.85693000  0.05191000  1
  N  N112  1  0.21795000  0.75172000  0.52532000  1
  N  N113  1  0.35574000  0.57333000  0.53077000  1
  N  N114  1  0.39356000  0.63920000  0.48857000  1
  N  N115  1  0.71795000  0.74829000  0.47468000  1
  N  N116  1  0.85574000  0.92668000  0.46923000  1
  N  N117  1  0.89356000  0.86081000  0.51143000  1
  N  N118  1  0.78205000  0.24828000  0.02532000  1
  N  N119  1  0.64426000  0.42667000  0.03077000  1
  N  N120  1  0.60643000  0.36081000  0.98857000  1
  N  N121  1  0.28205000  0.25172000  0.97468000  1
  N  N122  1  0.14426000  0.07333000  0.96923000  1
  N  N123  1  0.10643000  0.13919000  0.01143000  1
  N  N124  1  0.78205000  0.24828000  0.47468000  1
  N  N125  1  0.64426000  0.42667000  0.46923000  1
  N  N126  1  0.60643000  0.36081000  0.51143000  1
  N  N127  1  0.28205000  0.25172000  0.52532000  1
  N  N128  1  0.14426000  0.07333000  0.53077000  1
  N  N129  1  0.10643000  0.13920000  0.48857000  1
  N  N130  1  0.21795000  0.75172000  0.97468000  1
  N  N131  1  0.35574000  0.57333000  0.96923000  1
  N  N132  1  0.39356000  0.63920000  0.01143000  1
  N  N133  1  0.71795000  0.74828000  0.02532000  1
  N  N134  1  0.85574000  0.92668000  0.03077000  1
  N  N135  1  0.89356000  0.86081000  0.98857000  1
  O  O136  1  0.01401000  0.82616000  0.61696000  1
  O  O137  1  0.22799000  0.92638000  0.62377000  1
  O  O138  1  0.51400000  0.67385000  0.38304000  1
  O  O139  1  0.72799000  0.57363000  0.37623000  1
  O  O140  1  0.98599000  0.17385000  0.11696000  1
  O  O141  1  0.77201000  0.07362000  0.12377000  1
  O  O142  1  0.48599000  0.32616000  0.88304000  1
  O  O143  1  0.27201000  0.42638000  0.87623000  1
  O  O144  1  0.98599000  0.17385000  0.38304000  1
  O  O145  1  0.77200000  0.07362000  0.37623000  1
  O  O146  1  0.48599000  0.32616000  0.61696000  1
  O  O147  1  0.27201000  0.42638000  0.62377000  1
  O  O148  1  0.01400000  0.82616000  0.88304000  1
  O  O149  1  0.22799000  0.92638000  0.87623000  1
  O  O150  1  0.51400000  0.67385000  0.11696000  1
  O  O151  1  0.72799000  0.57363000  0.12377000  1
