# generated using pymatgen
data_H7C13N2O
_symmetry_space_group_name_H-M   'P 1'
_cell_length_a   26.84830000
_cell_length_b   26.84830000
_cell_length_c   26.84830000
_cell_angle_alpha   90.00000000
_cell_angle_beta   90.00000000
_cell_angle_gamma   90.00000000
_symmetry_Int_Tables_number   1
_chemical_formula_structural   H7C13N2O
_chemical_formula_sum   'H224 C416 N64 O32'
_cell_volume   19353.09265303
_cell_formula_units_Z   32
loop_
 _symmetry_equiv_pos_site_id
 _symmetry_equiv_pos_as_xyz
  1  'x, y, z'
loop_
 _atom_site_type_symbol
 _atom_site_label
 _atom_site_symmetry_multiplicity
 _atom_site_fract_x
 _atom_site_fract_y
 _atom_site_fract_z
 _atom_site_occupancy
  H  7  1  0.08705100  0.03112400  0.97585000  1
  H  16  1  0.93030200  0.98617800  0.04120200  1
  H  17  1  0.03858500  0.85070600  0.13763100  1
  H  18  1  0.97808900  0.85097400  0.13777500  1
  H  19  1  0.97815600  0.16511300  0.87827600  1
  H  20  1  0.03864800  0.16540500  0.87848400  1
  H  21  1  0.93033500  0.02993400  0.97487800  1
  H  22  1  0.08702000  0.98515800  0.04051800  1
  H  29  1  0.42914500  0.98508000  0.47576200  1
  H  38  1  0.58584400  0.02992900  0.54132000  1
  H  39  1  0.47753900  0.16531300  0.63787700  1
  H  40  1  0.53800800  0.16504700  0.63823800  1
  H  41  1  0.53810500  0.85110800  0.37805000  1
  H  42  1  0.47763200  0.85082200  0.37840400  1
  H  43  1  0.58586600  0.98627900  0.47492800  1
  H  44  1  0.42912200  0.03115100  0.54034000  1
  H  51  1  0.23573500  0.83587500  0.22529600  1
  H  60  1  0.28080600  0.67914200  0.29059300  1
  H  61  1  0.41580700  0.78783100  0.38722800  1
  H  62  1  0.41548300  0.72738400  0.38780900  1
  H  63  1  0.10078100  0.72739100  0.12822900  1
  H  64  1  0.10044400  0.78783400  0.12881500  1
  H  65  1  0.23541000  0.67914600  0.22551100  1
  H  66  1  0.28046600  0.83587500  0.29083100  1
  H  73  1  0.28035400  0.18037300  0.72527900  1
  H  82  1  0.23535900  0.33709900  0.79065000  1
  H  83  1  0.10045900  0.22835700  0.88716700  1
  H  84  1  0.10072900  0.28884000  0.88769500  1
  H  85  1  0.41550100  0.28884100  0.62862100  1
  H  86  1  0.41577700  0.22835700  0.62915800  1
  H  87  1  0.28084900  0.33710200  0.72562900  1
  H  88  1  0.23583900  0.18037000  0.79097800  1
  H  95  1  0.78151400  0.17915400  0.79005400  1
  H  104  1  0.73641200  0.33586600  0.72477600  1
  H  105  1  0.60000900  0.22774500  0.62952300  1
  H  106  1  0.60079800  0.28822300  0.62856900  1
  H  107  1  0.91536200  0.28823700  0.88764700  1
  H  108  1  0.91614800  0.22776000  0.88671200  1
  H  109  1  0.77979700  0.33587100  0.79136500  1
  H  110  1  0.73469500  0.17915100  0.72611000  1
  H  117  1  0.73458000  0.83695900  0.28999600  1
  H  126  1  0.77966600  0.68023700  0.22474000  1
  H  127  1  0.91594700  0.78827800  0.12917800  1
  H  128  1  0.91512400  0.72783100  0.12801600  1
  H  129  1  0.60098800  0.72784200  0.38807300  1
  H  130  1  0.60014300  0.78828900  0.38688500  1
  H  131  1  0.73656800  0.68024500  0.29153900  1
  H  132  1  0.78162500  0.83695900  0.22623800  1
  H  139  1  0.58704700  0.53112500  0.47587000  1
  H  148  1  0.43031400  0.48639200  0.54135700  1
  H  149  1  0.53838100  0.34911900  0.63549300  1
  H  150  1  0.47793400  0.34950000  0.63574300  1
  H  151  1  0.47815700  0.66678000  0.38060200  1
  H  152  1  0.53860800  0.66707100  0.38081400  1
  H  153  1  0.43034800  0.52986300  0.47483500  1
  H  154  1  0.58701300  0.48496200  0.54039200  1
  H  161  1  0.92919900  0.48507000  0.97571600  1
  H  170  1  0.08586300  0.52994400  0.04130200  1
  H  171  1  0.97751500  0.66714500  0.13503200  1
  H  172  1  0.03800700  0.66689200  0.13519900  1
  H  173  1  0.03822200  0.34943400  0.88053700  1
  H  174  1  0.97775700  0.34913700  0.88087900  1
  H  175  1  0.08589900  0.48629200  0.97490800  1
  H  176  1  0.92916600  0.53101300  0.04040500  1
  H  183  1  0.87978400  0.87937500  0.22336400  1
  H  184  1  0.93437600  0.93736300  0.18470100  1
  H  188  1  0.84284700  0.82623200  0.99371300  1
  H  195  1  0.63672200  0.13655700  0.72354000  1
  H  196  1  0.58196600  0.07856900  0.68491500  1
  H  200  1  0.67154800  0.19112400  0.49412500  1
  H  207  1  0.38659800  0.62834900  0.47286800  1
  H  208  1  0.32861100  0.68272500  0.43390100  1
  H  212  1  0.44358500  0.59444000  0.24372200  1
  H  219  1  0.12968200  0.38804000  0.97304500  1
  H  220  1  0.18769800  0.33350800  0.93410100  1
  H  224  1  0.07176700  0.42047400  0.74412900  1
  H  231  1  0.63655800  0.87946000  0.29278200  1
  H  232  1  0.58197000  0.93749400  0.33136800  1
  H  236  1  0.67295900  0.82618700  0.52248400  1
  H  243  1  0.87953900  0.13661400  0.79264700  1
  H  244  1  0.93429400  0.07863100  0.83128200  1
  H  248  1  0.84453100  0.19105900  0.02206000  1
  H  255  1  0.12962800  0.62828200  0.04324300  1
  H  256  1  0.18765300  0.68265100  0.08221300  1
  H  260  1  0.07252000  0.59462600  0.27243800  1
  H  267  1  0.38649400  0.38803200  0.54323000  1
  H  268  1  0.32851800  0.33348500  0.58218200  1
  H  272  1  0.44443800  0.42055200  0.77209000  1
  H  279  1  0.13764600  0.13732100  0.79331700  1
  H  280  1  0.08319600  0.07916900  0.83193400  1
  H  284  1  0.17321700  0.19145800  0.02296100  1
  H  291  1  0.37849700  0.87896500  0.29306800  1
  H  292  1  0.43302600  0.93712500  0.33173700  1
  H  296  1  0.34444400  0.82364300  0.52241300  1
  H  303  1  0.62998400  0.38656100  0.54286200  1
  H  304  1  0.68783900  0.33202400  0.58187700  1
  H  308  1  0.57408900  0.42185200  0.77212400  1
  H  315  1  0.88584100  0.62911700  0.04273300  1
  H  316  1  0.82797800  0.68377900  0.08171200  1
  H  320  1  0.94329300  0.59599700  0.27165300  1
  H  327  1  0.37849700  0.13727100  0.72294000  1
  H  328  1  0.43292900  0.07911900  0.68431200  1
  H  332  1  0.34308700  0.19155200  0.49331300  1
  H  339  1  0.13768300  0.87889800  0.22310800  1
  H  340  1  0.08310900  0.93706900  0.18449900  1
  H  344  1  0.17177600  0.82381100  0.99370200  1
  H  351  1  0.88619400  0.38665400  0.97326100  1
  H  352  1  0.82835500  0.33208900  0.93427900  1
  H  356  1  0.94212400  0.42181800  0.74401000  1
  H  363  1  0.63023400  0.62923200  0.47351600  1
  H  364  1  0.68812600  0.68388000  0.43454500  1
  H  368  1  0.57305300  0.59589700  0.24454700  1
  H  375  1  0.08705100  0.03112400  0.31106700  1
  H  384  1  0.93030200  0.98617800  0.37641900  1
  H  385  1  0.03858500  0.85070600  0.47284800  1
  H  386  1  0.97808900  0.85097400  0.47299200  1
  H  387  1  0.97815600  0.16511300  0.21349300  1
  H  388  1  0.03864800  0.16540500  0.21370100  1
  H  389  1  0.93033500  0.02993400  0.31009500  1
  H  390  1  0.08702000  0.98515800  0.37573500  1
  H  397  1  0.42914500  0.98508000  0.81097900  1
  H  406  1  0.58584400  0.02992900  0.87653700  1
  H  407  1  0.47753900  0.16531300  0.97309400  1
  H  408  1  0.53800800  0.16504700  0.97345500  1
  H  409  1  0.53810500  0.85110800  0.71326700  1
  H  410  1  0.47763200  0.85082200  0.71362100  1
  H  411  1  0.58586600  0.98627900  0.81014500  1
  H  412  1  0.42912200  0.03115100  0.87555700  1
  H  419  1  0.23573500  0.83587500  0.56051300  1
  H  428  1  0.28080600  0.67914200  0.62581000  1
  H  429  1  0.41580700  0.78783100  0.72244500  1
  H  430  1  0.41548300  0.72738400  0.72302600  1
  H  431  1  0.10078100  0.72739100  0.46344600  1
  H  432  1  0.10044400  0.78783400  0.46403200  1
  H  433  1  0.23541000  0.67914600  0.56072800  1
  H  434  1  0.28046600  0.83587500  0.62604800  1
  H  441  1  0.28035400  0.18037300  0.06049580  1
  H  450  1  0.23535900  0.33709900  0.12586700  1
  H  451  1  0.10045900  0.22835700  0.22238400  1
  H  452  1  0.10072900  0.28884000  0.22291200  1
  H  453  1  0.41550100  0.28884100  0.96383800  1
  H  454  1  0.41577700  0.22835700  0.96437500  1
  H  455  1  0.28084900  0.33710200  0.06084580  1
  H  456  1  0.23583900  0.18037000  0.12619500  1
  H  463  1  0.78151400  0.17915400  0.12527100  1
  H  472  1  0.73641200  0.33586600  0.05999280  1
  H  473  1  0.60000900  0.22774500  0.96474000  1
  H  474  1  0.60079800  0.28822300  0.96378600  1
  H  475  1  0.91536200  0.28823700  0.22286400  1
  H  476  1  0.91614800  0.22776000  0.22192900  1
  H  477  1  0.77979700  0.33587100  0.12658200  1
  H  478  1  0.73469500  0.17915100  0.06132680  1
  H  485  1  0.73458000  0.83695900  0.62521300  1
  H  494  1  0.77966600  0.68023700  0.55995700  1
  H  495  1  0.91594700  0.78827800  0.46439500  1
  H  496  1  0.91512400  0.72783100  0.46323300  1
  H  497  1  0.60098800  0.72784200  0.72329000  1
  H  498  1  0.60014300  0.78828900  0.72210200  1
  H  499  1  0.73656800  0.68024500  0.62675600  1
  H  500  1  0.78162500  0.83695900  0.56145500  1
  H  507  1  0.58704700  0.53112500  0.81108700  1
  H  516  1  0.43031400  0.48639200  0.87657400  1
  H  517  1  0.53838100  0.34911900  0.97071000  1
  H  518  1  0.47793400  0.34950000  0.97096000  1
  H  519  1  0.47815700  0.66678000  0.71581900  1
  H  520  1  0.53860800  0.66707100  0.71603100  1
  H  521  1  0.43034800  0.52986300  0.81005200  1
  H  522  1  0.58701300  0.48496200  0.87560900  1
  H  529  1  0.92919900  0.48507000  0.31093300  1
  H  538  1  0.08586300  0.52994400  0.37651900  1
  H  539  1  0.97751500  0.66714500  0.47024900  1
  H  540  1  0.03800700  0.66689200  0.47041600  1
  H  541  1  0.03822200  0.34943400  0.21575400  1
  H  542  1  0.97775700  0.34913700  0.21609600  1
  H  543  1  0.08589900  0.48629200  0.31012500  1
  H  544  1  0.92916600  0.53101300  0.37562200  1
  H  551  1  0.87978400  0.87937500  0.55858100  1
  H  552  1  0.93437600  0.93736300  0.51991800  1
  H  556  1  0.84284700  0.82623200  0.32893000  1
  H  563  1  0.63672200  0.13655700  0.05875680  1
  H  564  1  0.58196600  0.07856900  0.02013180  1
  H  568  1  0.67154800  0.19112400  0.82934200  1
  H  575  1  0.38659800  0.62834900  0.80808500  1
  H  576  1  0.32861100  0.68272500  0.76911800  1
  H  580  1  0.44358500  0.59444000  0.57893900  1
  H  587  1  0.12968200  0.38804000  0.30826200  1
  H  588  1  0.18769800  0.33350800  0.26931800  1
  H  592  1  0.07176700  0.42047400  0.07934580  1
  H  599  1  0.63655800  0.87946000  0.62799900  1
  H  600  1  0.58197000  0.93749400  0.66658500  1
  H  604  1  0.67295900  0.82618700  0.85770100  1
  H  611  1  0.87953900  0.13661400  0.12786400  1
  H  612  1  0.93429400  0.07863100  0.16649900  1
  H  616  1  0.84453100  0.19105900  0.35727700  1
  H  623  1  0.12962800  0.62828200  0.37846000  1
  H  624  1  0.18765300  0.68265100  0.41743000  1
  H  628  1  0.07252000  0.59462600  0.60765500  1
  H  635  1  0.38649400  0.38803200  0.87844700  1
  H  636  1  0.32851800  0.33348500  0.91739900  1
  H  640  1  0.44443800  0.42055200  0.10730700  1
  H  647  1  0.13764600  0.13732100  0.12853400  1
  H  648  1  0.08319600  0.07916900  0.16715100  1
  H  652  1  0.17321700  0.19145800  0.35817800  1
  H  659  1  0.37849700  0.87896500  0.62828500  1
  H  660  1  0.43302600  0.93712500  0.66695400  1
  H  664  1  0.34444400  0.82364300  0.85763000  1
  H  671  1  0.62998400  0.38656100  0.87807900  1
  H  672  1  0.68783900  0.33202400  0.91709400  1
  H  676  1  0.57408900  0.42185200  0.10734100  1
  H  683  1  0.88584100  0.62911700  0.37795000  1
  H  684  1  0.82797800  0.68377900  0.41692900  1
  H  688  1  0.94329300  0.59599700  0.60687000  1
  H  695  1  0.37849700  0.13727100  0.05815680  1
  H  696  1  0.43292900  0.07911900  0.01952880  1
  H  700  1  0.34308700  0.19155200  0.82853000  1
  H  707  1  0.13768300  0.87889800  0.55832500  1
  H  708  1  0.08310900  0.93706900  0.51971600  1
  H  712  1  0.17177600  0.82381100  0.32891900  1
  H  719  1  0.88619400  0.38665400  0.30847800  1
  H  720  1  0.82835500  0.33208900  0.26949600  1
  H  724  1  0.94212400  0.42181800  0.07922680  1
  H  731  1  0.63023400  0.62923200  0.80873300  1
  H  732  1  0.68812600  0.68388000  0.76976200  1
  H  736  1  0.57305300  0.59589700  0.57976400  1
  C  1  1  0.00864800  0.02625300  0.98742600  1
  C  2  1  0.05333000  0.04463900  0.96510800  1
  C  3  1  0.05431000  0.08161100  0.92743400  1
  C  4  1  0.00855600  0.10363400  0.91190200  1
  C  5  1  0.96290300  0.08115300  0.92707600  1
  C  6  1  0.96396800  0.04405500  0.96462800  1
  C  9  1  0.00863300  0.98992900  0.02878100  1
  C  10  1  0.05329500  0.97158200  0.05117100  1
  C  11  1  0.05424400  0.93457400  0.08880900  1
  C  12  1  0.00848500  0.91250200  0.10425300  1
  C  13  1  0.96284000  0.93498700  0.08905700  1
  C  14  1  0.96393500  0.97208400  0.05150400  1
  C  23  1  0.50754100  0.98997000  0.48739400  1
  C  24  1  0.46287500  0.97156300  0.46505400  1
  C  25  1  0.46193300  0.93458500  0.42738700  1
  C  26  1  0.50770100  0.91257200  0.41188900  1
  C  27  1  0.55333500  0.93506500  0.42708900  1
  C  28  1  0.55224000  0.97215900  0.46464400  1
  C  31  1  0.50752600  0.02623700  0.52879400  1
  C  32  1  0.46284500  0.04464300  0.55109700  1
  C  33  1  0.46186900  0.08160500  0.58877900  1
  C  34  1  0.50763000  0.10360700  0.60432900  1
  C  35  1  0.55327900  0.08113300  0.58914400  1
  C  36  1  0.55220700  0.04404500  0.55158100  1
  C  45  1  0.23988300  0.75752300  0.23744800  1
  C  46  1  0.22175500  0.80221900  0.21495300  1
  C  47  1  0.18457800  0.80327700  0.17749300  1
  C  48  1  0.16219700  0.75757900  0.16230200  1
  C  49  1  0.18446000  0.71186700  0.17757500  1
  C  50  1  0.22164300  0.71284600  0.21502000  1
  C  53  1  0.27633600  0.75752300  0.27865500  1
  C  54  1  0.29445800  0.80221500  0.30115800  1
  C  55  1  0.33164200  0.80326900  0.33861100  1
  C  56  1  0.35403900  0.75757500  0.35378100  1
  C  57  1  0.33177000  0.71186300  0.33851600  1
  C  58  1  0.29458000  0.71284300  0.30107800  1
  C  67  1  0.27633000  0.25871900  0.73753700  1
  C  68  1  0.29439800  0.21402300  0.71499500  1
  C  69  1  0.33157300  0.21296200  0.67753300  1
  C  70  1  0.35399300  0.25864600  0.66236300  1
  C  71  1  0.33176600  0.30436800  0.67766300  1
  C  72  1  0.29460500  0.30339800  0.71513300  1
  C  75  1  0.23987500  0.25871700  0.77873900  1
  C  76  1  0.22180200  0.21402000  0.80127700  1
  C  77  1  0.18463400  0.21295700  0.83874300  1
  C  78  1  0.16222500  0.25864300  0.85392800  1
  C  79  1  0.18445000  0.30436500  0.83862300  1
  C  80  1  0.22160400  0.30339500  0.80114600  1
  C  89  1  0.77635100  0.25756600  0.77866400  1
  C  90  1  0.79497800  0.21289100  0.80078500  1
  C  91  1  0.83207600  0.21194500  0.83832200  1
  C  92  1  0.85408100  0.25774200  0.85376400  1
  C  93  1  0.83138600  0.30335100  0.83879800  1
  C  94  1  0.79409200  0.30225800  0.80146300  1
  C  97  1  0.73985000  0.25756300  0.73750000  1
  C  98  1  0.72122300  0.21288600  0.71538700  1
  C  99  1  0.68411400  0.21193500  0.67786100  1
  C  100  1  0.66209400  0.25773000  0.66243300  1
  C  101  1  0.68480400  0.30333900  0.67736900  1
  C  102  1  0.72210600  0.30225300  0.71469700  1
  C  111  1  0.73988300  0.75853600  0.27872800  1
  C  112  1  0.72118200  0.80321300  0.30078000  1
  C  113  1  0.68411400  0.80415200  0.33834500  1
  C  114  1  0.66218800  0.75834600  0.35385900  1
  C  115  1  0.68490800  0.71274600  0.33891600  1
  C  116  1  0.72220300  0.71384500  0.30157800  1
  C  119  1  0.77632900  0.75853600  0.23751700  1
  C  120  1  0.79501500  0.80321000  0.21544800  1
  C  121  1  0.83205700  0.80414100  0.17785900  1
  C  122  1  0.85397300  0.75833500  0.16232500  1
  C  123  1  0.83128600  0.71273500  0.17731500  1
  C  124  1  0.79401700  0.71384100  0.21467800  1
  C  133  1  0.50864700  0.52643200  0.48764400  1
  C  134  1  0.55334300  0.54495800  0.46548600  1
  C  135  1  0.55428900  0.58239100  0.42830300  1
  C  136  1  0.50853900  0.60478000  0.41336300  1
  C  137  1  0.46290100  0.58191400  0.42794200  1
  C  138  1  0.46395500  0.54433300  0.46497200  1
  C  141  1  0.50862100  0.48974500  0.52859200  1
  C  142  1  0.55328700  0.47117400  0.55076100  1
  C  143  1  0.55417300  0.43374100  0.58794800  1
  C  144  1  0.50839000  0.41142700  0.60290300  1
  C  145  1  0.46278600  0.43433700  0.58829800  1
  C  146  1  0.46389900  0.47189200  0.55124600  1
  C  155  1  0.00758400  0.48974100  0.98760500  1
  C  156  1  0.96291400  0.47121800  0.96539500  1
  C  157  1  0.96201700  0.43377800  0.92821900  1
  C  158  1  0.00778900  0.41142700  0.91328400  1
  C  159  1  0.05340600  0.43430000  0.92791000  1
  C  160  1  0.05230400  0.47183600  0.96498900  1
  C  163  1  0.00755800  0.52642800  0.02855000  1
  C  164  1  0.96285900  0.54490600  0.05074100  1
  C  165  1  0.96190100  0.58235000  0.08791300  1
  C  166  1  0.00764000  0.60479800  0.10280900  1
  C  167  1  0.05328800  0.58195500  0.08822200  1
  C  168  1  0.05225000  0.54438500  0.05118000  1
  C  177  1  0.84829300  0.85060600  0.15689000  1
  C  178  1  0.84868700  0.85729500  0.10452100  1
  C  179  1  0.88350200  0.88883100  0.08208200  1
  C  180  1  0.91628200  0.91896400  0.11001300  1
  C  181  1  0.90962200  0.91866600  0.16252600  1
  C  182  1  0.87720300  0.88410500  0.18561600  1
  C  187  1  0.84928700  0.84268300  0.02738700  1
  C  189  1  0.66782300  0.16544000  0.65697700  1
  C  190  1  0.66732800  0.15882800  0.60458600  1
  C  191  1  0.63267700  0.12705900  0.58219700  1
  C  192  1  0.59980700  0.09708000  0.61022500  1
  C  193  1  0.60654900  0.09745900  0.66270200  1
  C  194  1  0.63918800  0.13179600  0.68579100  1
  C  199  1  0.66666667  0.17334900  0.52738900  1
  C  201  1  0.41652600  0.59769600  0.40651400  1
  C  202  1  0.41064100  0.59857800  0.35406000  1
  C  203  1  0.37900700  0.63323200  0.33152000  1
  C  204  1  0.34803600  0.66536100  0.35931100  1
  C  205  1  0.34782500  0.65832500  0.41176900  1
  C  206  1  0.38237800  0.62603300  0.43504500  1
  C  211  1  0.42648900  0.60025400  0.27718800  1
  C  213  1  0.09984100  0.41848500  0.90658700  1
  C  214  1  0.10575600  0.41768800  0.85412500  1
  C  215  1  0.13759800  0.38320100  0.83159500  1
  C  216  1  0.16822500  0.35086100  0.85952200  1
  C  217  1  0.16836200  0.35782000  0.91196500  1
  C  218  1  0.13402800  0.39032700  0.93523700  1
  C  223  1  0.09012400  0.41620500  0.77715600  1
  C  225  1  0.66787100  0.85061300  0.35930500  1
  C  226  1  0.66736900  0.85728400  0.41167200  1
  C  227  1  0.63255100  0.88886500  0.43404600  1
  C  228  1  0.59987400  0.91910200  0.40607100  1
  C  229  1  0.60666400  0.91877000  0.35358200  1
  C  230  1  0.63907600  0.88416800  0.33053700  1
  C  235  1  0.66659800  0.84264600  0.48879800  1
  C  237  1  0.84837100  0.16544900  0.85919800  1
  C  238  1  0.84883600  0.15881400  0.91158500  1
  C  239  1  0.88347900  0.12704200  0.93398500  1
  C  240  1  0.91637900  0.09708600  0.90596900  1
  C  241  1  0.90968200  0.09749900  0.85348500  1
  C  242  1  0.87704700  0.13183200  0.83038800  1
  C  247  1  0.84938800  0.17329900  0.98879300  1
  C  249  1  0.09966600  0.59777400  0.10965900  1
  C  250  1  0.10549700  0.59863400  0.16211000  1
  C  251  1  0.13715900  0.63328400  0.18461900  1
  C  252  1  0.16817400  0.66535700  0.15680700  1
  C  253  1  0.16840300  0.65828400  0.10434700  1
  C  254  1  0.13384100  0.62600300  0.08107200  1
  C  259  1  0.08963000  0.60039600  0.23897000  1
  C  261  1  0.41635400  0.41855900  0.60962900  1
  C  262  1  0.41042500  0.41770600  0.66209800  1
  C  263  1  0.37860100  0.38322000  0.68465800  1
  C  264  1  0.34798400  0.35086100  0.65675300  1
  C  265  1  0.34784200  0.35780800  0.60431100  1
  C  266  1  0.38216600  0.39033000  0.58104300  1
  C  271  1  0.42607600  0.41625800  0.73907100  1
  C  273  1  0.16868500  0.16645800  0.85986100  1
  C  274  1  0.16810500  0.15995800  0.91224500  1
  C  275  1  0.13334000  0.12832000  0.93462200  1
  C  276  1  0.10084100  0.09792900  0.90664300  1
  C  277  1  0.10773900  0.09808300  0.85415900  1
  C  278  1  0.14008800  0.13272800  0.83109200  1
  C  283  1  0.16703900  0.17484600  0.98931500  1
  C  285  1  0.34766700  0.84979400  0.35964200  1
  C  286  1  0.34819700  0.85627800  0.41203800  1
  C  287  1  0.38275800  0.88815000  0.43441900  1
  C  288  1  0.41544600  0.91836800  0.40643200  1
  C  289  1  0.40859600  0.91804700  0.35395800  1
  C  290  1  0.37607600  0.88362400  0.33083200  1
  C  295  1  0.34909000  0.84154000  0.48918600  1
  C  297  1  0.60050800  0.41760600  0.60924600  1
  C  298  1  0.60656400  0.41700600  0.66167700  1
  C  299  1  0.63810400  0.38229600  0.68424900  1
  C  300  1  0.66876500  0.34987900  0.65645500  1
  C  301  1  0.66884700  0.35664100  0.60395700  1
  C  302  1  0.63437600  0.38901200  0.58065900  1
  C  307  1  0.59102100  0.41578800  0.73861700  1
  C  309  1  0.91551100  0.59843300  0.10913800  1
  C  310  1  0.90952200  0.59919300  0.16159800  1
  C  311  1  0.87775100  0.63372400  0.18415300  1
  C  312  1  0.84721200  0.66621000  0.15628100  1
  C  313  1  0.84717900  0.65934200  0.10382400  1
  C  314  1  0.88144200  0.62677400  0.08053200  1
  C  319  1  0.92502700  0.60043300  0.23860100  1
  C  321  1  0.34751000  0.16646600  0.65639900  1
  C  322  1  0.34811700  0.15999300  0.60401600  1
  C  323  1  0.38288100  0.12834600  0.58164600  1
  C  324  1  0.41535200  0.09788600  0.60960300  1
  C  325  1  0.40840600  0.09805700  0.66208300  1
  C  326  1  0.37606900  0.13270200  0.68516100  1
  C  331  1  0.34923900  0.17492400  0.52695400  1
  C  333  1  0.16852600  0.84980900  0.15650100  1
  C  334  1  0.16799200  0.85634200  0.10410800  1
  C  335  1  0.13341900  0.88821700  0.08174800  1
  C  336  1  0.10072500  0.91836400  0.10980000  1
  C  337  1  0.10756000  0.91802900  0.16226700  1
  C  338  1  0.14010000  0.88359800  0.18534900  1
  C  343  1  0.16711900  0.84167800  0.02694300  1
  C  345  1  0.91569000  0.41769900  0.90688500  1
  C  346  1  0.90962600  0.41702500  0.85445300  1
  C  347  1  0.87809300  0.38230000  0.83188900  1
  C  348  1  0.84743200  0.34989900  0.85969400  1
  C  349  1  0.84734700  0.35669400  0.91218900  1
  C  350  1  0.88181400  0.38908300  0.93546000  1
  C  355  1  0.92518400  0.41576600  0.77751700  1
  C  357  1  0.60067200  0.59850000  0.40707600  1
  C  358  1  0.60672000  0.59917100  0.35462900  1
  C  359  1  0.63849900  0.63370200  0.33208700  1
  C  360  1  0.66898500  0.66622900  0.35997000  1
  C  361  1  0.66896300  0.65941600  0.41243600  1
  C  362  1  0.63468100  0.62685900  0.43572600  1
  C  367  1  0.59128900  0.60035500  0.27761400  1
  C  369  1  0.00864800  0.02625300  0.32264300  1
  C  370  1  0.05333000  0.04463900  0.30032500  1
  C  371  1  0.05431000  0.08161100  0.26265100  1
  C  372  1  0.00855600  0.10363400  0.24711900  1
  C  373  1  0.96290300  0.08115300  0.26229300  1
  C  374  1  0.96396800  0.04405500  0.29984500  1
  C  377  1  0.00863300  0.98992900  0.36399800  1
  C  378  1  0.05329500  0.97158200  0.38638800  1
  C  379  1  0.05424400  0.93457400  0.42402600  1
  C  380  1  0.00848500  0.91250200  0.43947000  1
  C  381  1  0.96284000  0.93498700  0.42427400  1
  C  382  1  0.96393500  0.97208400  0.38672100  1
  C  391  1  0.50754100  0.98997000  0.82261100  1
  C  392  1  0.46287500  0.97156300  0.80027100  1
  C  393  1  0.46193300  0.93458500  0.76260400  1
  C  394  1  0.50770100  0.91257200  0.74710600  1
  C  395  1  0.55333500  0.93506500  0.76230600  1
  C  396  1  0.55224000  0.97215900  0.79986100  1
  C  399  1  0.50752600  0.02623700  0.86401100  1
  C  400  1  0.46284500  0.04464300  0.88631400  1
  C  401  1  0.46186900  0.08160500  0.92399600  1
  C  402  1  0.50763000  0.10360700  0.93954600  1
  C  403  1  0.55327900  0.08113300  0.92436100  1
  C  404  1  0.55220700  0.04404500  0.88679800  1
  C  413  1  0.23988300  0.75752300  0.57266500  1
  C  414  1  0.22175500  0.80221900  0.55017000  1
  C  415  1  0.18457800  0.80327700  0.51271000  1
  C  416  1  0.16219700  0.75757900  0.49751900  1
  C  417  1  0.18446000  0.71186700  0.51279200  1
  C  418  1  0.22164300  0.71284600  0.55023700  1
  C  421  1  0.27633600  0.75752300  0.61387200  1
  C  422  1  0.29445800  0.80221500  0.63637500  1
  C  423  1  0.33164200  0.80326900  0.67382800  1
  C  424  1  0.35403900  0.75757500  0.68899800  1
  C  425  1  0.33177000  0.71186300  0.67373300  1
  C  426  1  0.29458000  0.71284300  0.63629500  1
  C  435  1  0.27633000  0.25871900  0.07275380  1
  C  436  1  0.29439800  0.21402300  0.05021180  1
  C  437  1  0.33157300  0.21296200  0.01274980  1
  C  438  1  0.35399300  0.25864600  0.99758000  1
  C  439  1  0.33176600  0.30436800  0.01287980  1
  C  440  1  0.29460500  0.30339800  0.05034980  1
  C  443  1  0.23987500  0.25871700  0.11395600  1
  C  444  1  0.22180200  0.21402000  0.13649400  1
  C  445  1  0.18463400  0.21295700  0.17396000  1
  C  446  1  0.16222500  0.25864300  0.18914500  1
  C  447  1  0.18445000  0.30436500  0.17384000  1
  C  448  1  0.22160400  0.30339500  0.13636300  1
  C  457  1  0.77635100  0.25756600  0.11388100  1
  C  458  1  0.79497800  0.21289100  0.13600200  1
  C  459  1  0.83207600  0.21194500  0.17353900  1
  C  460  1  0.85408100  0.25774200  0.18898100  1
  C  461  1  0.83138600  0.30335100  0.17401500  1
  C  462  1  0.79409200  0.30225800  0.13668000  1
  C  465  1  0.73985000  0.25756300  0.07271680  1
  C  466  1  0.72122300  0.21288600  0.05060380  1
  C  467  1  0.68411400  0.21193500  0.01307780  1
  C  468  1  0.66209400  0.25773000  0.99765000  1
  C  469  1  0.68480400  0.30333900  0.01258580  1
  C  470  1  0.72210600  0.30225300  0.04991380  1
  C  479  1  0.73988300  0.75853600  0.61394500  1
  C  480  1  0.72118200  0.80321300  0.63599700  1
  C  481  1  0.68411400  0.80415200  0.67356200  1
  C  482  1  0.66218800  0.75834600  0.68907600  1
  C  483  1  0.68490800  0.71274600  0.67413300  1
  C  484  1  0.72220300  0.71384500  0.63679500  1
  C  487  1  0.77632900  0.75853600  0.57273400  1
  C  488  1  0.79501500  0.80321000  0.55066500  1
  C  489  1  0.83205700  0.80414100  0.51307600  1
  C  490  1  0.85397300  0.75833500  0.49754200  1
  C  491  1  0.83128600  0.71273500  0.51253200  1
  C  492  1  0.79401700  0.71384100  0.54989500  1
  C  501  1  0.50864700  0.52643200  0.82286100  1
  C  502  1  0.55334300  0.54495800  0.80070300  1
  C  503  1  0.55428900  0.58239100  0.76352000  1
  C  504  1  0.50853900  0.60478000  0.74858000  1
  C  505  1  0.46290100  0.58191400  0.76315900  1
  C  506  1  0.46395500  0.54433300  0.80018900  1
  C  509  1  0.50862100  0.48974500  0.86380900  1
  C  510  1  0.55328700  0.47117400  0.88597800  1
  C  511  1  0.55417300  0.43374100  0.92316500  1
  C  512  1  0.50839000  0.41142700  0.93812000  1
  C  513  1  0.46278600  0.43433700  0.92351500  1
  C  514  1  0.46389900  0.47189200  0.88646300  1
  C  523  1  0.00758400  0.48974100  0.32282200  1
  C  524  1  0.96291400  0.47121800  0.30061200  1
  C  525  1  0.96201700  0.43377800  0.26343600  1
  C  526  1  0.00778900  0.41142700  0.24850100  1
  C  527  1  0.05340600  0.43430000  0.26312700  1
  C  528  1  0.05230400  0.47183600  0.30020600  1
  C  531  1  0.00755800  0.52642800  0.36376700  1
  C  532  1  0.96285900  0.54490600  0.38595800  1
  C  533  1  0.96190100  0.58235000  0.42313000  1
  C  534  1  0.00764000  0.60479800  0.43802600  1
  C  535  1  0.05328800  0.58195500  0.42343900  1
  C  536  1  0.05225000  0.54438500  0.38639700  1
  C  545  1  0.84829300  0.85060600  0.49210700  1
  C  546  1  0.84868700  0.85729500  0.43973800  1
  C  547  1  0.88350200  0.88883100  0.41729900  1
  C  548  1  0.91628200  0.91896400  0.44523000  1
  C  549  1  0.90962200  0.91866600  0.49774300  1
  C  550  1  0.87720300  0.88410500  0.52083300  1
  C  555  1  0.84928700  0.84268300  0.36260400  1
  C  557  1  0.66782300  0.16544000  0.99219400  1
  C  558  1  0.66732800  0.15882800  0.93980300  1
  C  559  1  0.63267700  0.12705900  0.91741400  1
  C  560  1  0.59980700  0.09708000  0.94544200  1
  C  561  1  0.60654900  0.09745900  0.99791900  1
  C  562  1  0.63918800  0.13179600  0.02100780  1
  C  567  1  0.66666667  0.17334900  0.86260600  1
  C  569  1  0.41652600  0.59769600  0.74173100  1
  C  570  1  0.41064100  0.59857800  0.68927700  1
  C  571  1  0.37900700  0.63323200  0.66673700  1
  C  572  1  0.34803600  0.66536100  0.69452800  1
  C  573  1  0.34782500  0.65832500  0.74698600  1
  C  574  1  0.38237800  0.62603300  0.77026200  1
  C  579  1  0.42648900  0.60025400  0.61240500  1
  C  581  1  0.09984100  0.41848500  0.24180400  1
  C  582  1  0.10575600  0.41768800  0.18934200  1
  C  583  1  0.13759800  0.38320100  0.16681200  1
  C  584  1  0.16822500  0.35086100  0.19473900  1
  C  585  1  0.16836200  0.35782000  0.24718200  1
  C  586  1  0.13402800  0.39032700  0.27045400  1
  C  591  1  0.09012400  0.41620500  0.11237300  1
  C  593  1  0.66787100  0.85061300  0.69452200  1
  C  594  1  0.66736900  0.85728400  0.74688900  1
  C  595  1  0.63255100  0.88886500  0.76926300  1
  C  596  1  0.59987400  0.91910200  0.74128800  1
  C  597  1  0.60666400  0.91877000  0.68879900  1
  C  598  1  0.63907600  0.88416800  0.66575400  1
  C  603  1  0.66659800  0.84264600  0.82401500  1
  C  605  1  0.84837100  0.16544900  0.19441500  1
  C  606  1  0.84883600  0.15881400  0.24680200  1
  C  607  1  0.88347900  0.12704200  0.26920200  1
  C  608  1  0.91637900  0.09708600  0.24118600  1
  C  609  1  0.90968200  0.09749900  0.18870200  1
  C  610  1  0.87704700  0.13183200  0.16560500  1
  C  615  1  0.84938800  0.17329900  0.32401000  1
  C  617  1  0.09966600  0.59777400  0.44487600  1
  C  618  1  0.10549700  0.59863400  0.49732700  1
  C  619  1  0.13715900  0.63328400  0.51983600  1
  C  620  1  0.16817400  0.66535700  0.49202400  1
  C  621  1  0.16840300  0.65828400  0.43956400  1
  C  622  1  0.13384100  0.62600300  0.41628900  1
  C  627  1  0.08963000  0.60039600  0.57418700  1
  C  629  1  0.41635400  0.41855900  0.94484600  1
  C  630  1  0.41042500  0.41770600  0.99731500  1
  C  631  1  0.37860100  0.38322000  0.01987480  1
  C  632  1  0.34798400  0.35086100  0.99197000  1
  C  633  1  0.34784200  0.35780800  0.93952800  1
  C  634  1  0.38216600  0.39033000  0.91626000  1
  C  639  1  0.42607600  0.41625800  0.07428780  1
  C  641  1  0.16868500  0.16645800  0.19507800  1
  C  642  1  0.16810500  0.15995800  0.24746200  1
  C  643  1  0.13334000  0.12832000  0.26983900  1
  C  644  1  0.10084100  0.09792900  0.24186000  1
  C  645  1  0.10773900  0.09808300  0.18937600  1
  C  646  1  0.14008800  0.13272800  0.16630900  1
  C  651  1  0.16703900  0.17484600  0.32453200  1
  C  653  1  0.34766700  0.84979400  0.69485900  1
  C  654  1  0.34819700  0.85627800  0.74725500  1
  C  655  1  0.38275800  0.88815000  0.76963600  1
  C  656  1  0.41544600  0.91836800  0.74164900  1
  C  657  1  0.40859600  0.91804700  0.68917500  1
  C  658  1  0.37607600  0.88362400  0.66604900  1
  C  663  1  0.34909000  0.84154000  0.82440300  1
  C  665  1  0.60050800  0.41760600  0.94446300  1
  C  666  1  0.60656400  0.41700600  0.99689400  1
  C  667  1  0.63810400  0.38229600  0.01946580  1
  C  668  1  0.66876500  0.34987900  0.99167200  1
  C  669  1  0.66884700  0.35664100  0.93917400  1
  C  670  1  0.63437600  0.38901200  0.91587600  1
  C  675  1  0.59102100  0.41578800  0.07383380  1
  C  677  1  0.91551100  0.59843300  0.44435500  1
  C  678  1  0.90952200  0.59919300  0.49681500  1
  C  679  1  0.87775100  0.63372400  0.51937000  1
  C  680  1  0.84721200  0.66621000  0.49149800  1
  C  681  1  0.84717900  0.65934200  0.43904100  1
  C  682  1  0.88144200  0.62677400  0.41574900  1
  C  687  1  0.92502700  0.60043300  0.57381800  1
  C  689  1  0.34751000  0.16646600  0.99161600  1
  C  690  1  0.34811700  0.15999300  0.93923300  1
  C  691  1  0.38288100  0.12834600  0.91686300  1
  C  692  1  0.41535200  0.09788600  0.94482000  1
  C  693  1  0.40840600  0.09805700  0.99730000  1
  C  694  1  0.37606900  0.13270200  0.02037780  1
  C  699  1  0.34923900  0.17492400  0.86217100  1
  C  701  1  0.16852600  0.84980900  0.49171800  1
  C  702  1  0.16799200  0.85634200  0.43932500  1
  C  703  1  0.13341900  0.88821700  0.41696500  1
  C  704  1  0.10072500  0.91836400  0.44501700  1
  C  705  1  0.10756000  0.91802900  0.49748400  1
  C  706  1  0.14010000  0.88359800  0.52056600  1
  C  711  1  0.16711900  0.84167800  0.36216000  1
  C  713  1  0.91569000  0.41769900  0.24210200  1
  C  714  1  0.90962600  0.41702500  0.18967000  1
  C  715  1  0.87809300  0.38230000  0.16710600  1
  C  716  1  0.84743200  0.34989900  0.19491100  1
  C  717  1  0.84734700  0.35669400  0.24740600  1
  C  718  1  0.88181400  0.38908300  0.27067700  1
  C  723  1  0.92518400  0.41576600  0.11273400  1
  C  725  1  0.60067200  0.59850000  0.74229300  1
  C  726  1  0.60672000  0.59917100  0.68984600  1
  C  727  1  0.63849900  0.63370200  0.66730400  1
  C  728  1  0.66898500  0.66622900  0.69518700  1
  C  729  1  0.66896300  0.65941600  0.74765300  1
  C  730  1  0.63468100  0.62685900  0.77094300  1
  C  735  1  0.59128900  0.60035500  0.61283100  1
  N  8  1  0.00847300  0.14679100  0.88465600  1
  N  15  1  0.00839300  0.86932200  0.13146100  1
  N  30  1  0.50783500  0.86940000  0.38467300  1
  N  37  1  0.50773800  0.14675400  0.63158200  1
  N  52  1  0.11895700  0.75762000  0.13522200  1
  N  59  1  0.39729500  0.75762000  0.38083600  1
  N  74  1  0.39720600  0.25858300  0.63522100  1
  N  81  1  0.11902300  0.25858200  0.88108800  1
  N  96  1  0.89732700  0.25787600  0.88085000  1
  N  103  1  0.61883700  0.25786100  0.63536300  1
  N  118  1  0.61895900  0.75817100  0.38097000  1
  N  125  1  0.89715600  0.75816800  0.13514400  1
  N  140  1  0.50844200  0.64846200  0.38702700  1
  N  147  1  0.50824800  0.36776400  0.62927700  1
  N  162  1  0.00793800  0.36777700  0.88688000  1
  N  169  1  0.00771800  0.64847700  0.12917500  1
  N  185  1  0.88382600  0.87820900  0.03363200  1
  N  197  1  0.63193200  0.13809400  0.53384000  1
  N  209  1  0.39039000  0.63423400  0.28325000  1
  N  221  1  0.12587800  0.38189400  0.78340900  1
  N  233  1  0.63212600  0.87822700  0.48249300  1
  N  245  1  0.88418300  0.13805600  0.98235000  1
  N  257  1  0.12576200  0.63433800  0.23288600  1
  N  269  1  0.39033400  0.38193100  0.73284000  1
  N  281  1  0.13272200  0.13911100  0.98303100  1
  N  293  1  0.38367800  0.87698700  0.48274600  1
  N  305  1  0.62690400  0.38157700  0.73256800  1
  N  317  1  0.88939400  0.63487100  0.23236500  1
  N  329  1  0.38352900  0.13916300  0.53324100  1
  N  341  1  0.13250800  0.87709900  0.03341200  1
  N  353  1  0.88930100  0.38155900  0.78357300  1
  N  365  1  0.62690000  0.63481500  0.28386300  1
  N  376  1  0.00847300  0.14679100  0.21987300  1
  N  383  1  0.00839300  0.86932200  0.46667800  1
  N  398  1  0.50783500  0.86940000  0.71989000  1
  N  405  1  0.50773800  0.14675400  0.96679900  1
  N  420  1  0.11895700  0.75762000  0.47043900  1
  N  427  1  0.39729500  0.75762000  0.71605300  1
  N  442  1  0.39720600  0.25858300  0.97043800  1
  N  449  1  0.11902300  0.25858200  0.21630500  1
  N  464  1  0.89732700  0.25787600  0.21606700  1
  N  471  1  0.61883700  0.25786100  0.97058000  1
  N  486  1  0.61895900  0.75817100  0.71618700  1
  N  493  1  0.89715600  0.75816800  0.47036100  1
  N  508  1  0.50844200  0.64846200  0.72224400  1
  N  515  1  0.50824800  0.36776400  0.96449400  1
  N  530  1  0.00793800  0.36777700  0.22209700  1
  N  537  1  0.00771800  0.64847700  0.46439200  1
  N  553  1  0.88382600  0.87820900  0.36884900  1
  N  565  1  0.63193200  0.13809400  0.86905700  1
  N  577  1  0.39039000  0.63423400  0.61846700  1
  N  589  1  0.12587800  0.38189400  0.11862600  1
  N  601  1  0.63212600  0.87822700  0.81771000  1
  N  613  1  0.88418300  0.13805600  0.31756700  1
  N  625  1  0.12576200  0.63433800  0.56810300  1
  N  637  1  0.39033400  0.38193100  0.06805680  1
  N  649  1  0.13272200  0.13911100  0.31824800  1
  N  661  1  0.38367800  0.87698700  0.81796300  1
  N  673  1  0.62690400  0.38157700  0.06778480  1
  N  685  1  0.88939400  0.63487100  0.56758200  1
  N  697  1  0.38352900  0.13916300  0.86845800  1
  N  709  1  0.13250800  0.87709900  0.36862900  1
  N  721  1  0.88930100  0.38155900  0.11879000  1
  N  733  1  0.62690000  0.63481500  0.61908000  1
  O  186  1  0.82735600  0.82635800  0.07032600  1
  O  198  1  0.68822300  0.19005800  0.57039400  1
  O  210  1  0.44241200  0.57805600  0.32013400  1
  O  222  1  0.07377600  0.43789400  0.82020500  1
  O  234  1  0.68859500  0.82631400  0.44590200  1
  O  246  1  0.82790800  0.19002300  0.94577700  1
  O  258  1  0.07369300  0.57817100  0.19604200  1
  O  270  1  0.44240100  0.43793900  0.69600700  1
  O  282  1  0.18907900  0.19115000  0.94642500  1
  O  294  1  0.32756300  0.82483100  0.44618900  1
  O  306  1  0.57505400  0.43788300  0.69563500  1
  O  318  1  0.94134900  0.57876300  0.19553300  1
  O  330  1  0.32718100  0.19121500  0.56983900  1
  O  342  1  0.18864700  0.82493900  0.06992800  1
  O  354  1  0.94114400  0.43788300  0.82049200  1
  O  366  1  0.57492700  0.57871100  0.32068000  1
  O  554  1  0.82735600  0.82635800  0.40554300  1
  O  566  1  0.68822300  0.19005800  0.90561100  1
  O  578  1  0.44241200  0.57805600  0.65535100  1
  O  590  1  0.07377600  0.43789400  0.15542200  1
  O  602  1  0.68859500  0.82631400  0.78111900  1
  O  614  1  0.82790800  0.19002300  0.28099400  1
  O  626  1  0.07369300  0.57817100  0.53125900  1
  O  638  1  0.44240100  0.43793900  0.03122380  1
  O  650  1  0.18907900  0.19115000  0.28164200  1
  O  662  1  0.32756300  0.82483100  0.78140600  1
  O  674  1  0.57505400  0.43788300  0.03085180  1
  O  686  1  0.94134900  0.57876300  0.53075000  1
  O  698  1  0.32718100  0.19121500  0.90505600  1
  O  710  1  0.18864700  0.82493900  0.40514500  1
  O  722  1  0.94114400  0.43788300  0.15570900  1
  O  734  1  0.57492700  0.57871100  0.65589700  1
