# generated using pymatgen
data_H14C20N7O6
_symmetry_space_group_name_H-M   'P 1'
_cell_length_a   24.57410000
_cell_length_b   24.57410000
_cell_length_c   38.09780000
_cell_angle_alpha   90.00000000
_cell_angle_beta   90.00000000
_cell_angle_gamma   120.00000000
_symmetry_Int_Tables_number   1
_chemical_formula_structural   H14C20N7O6
_chemical_formula_sum   'H84 C120 N42 O36'
_cell_volume   19924.42384421
_cell_formula_units_Z   6
loop_
 _symmetry_equiv_pos_site_id
 _symmetry_equiv_pos_as_xyz
  1  'x, y, z'
loop_
 _atom_site_type_symbol
 _atom_site_label
 _atom_site_symmetry_multiplicity
 _atom_site_fract_x
 _atom_site_fract_y
 _atom_site_fract_z
 _atom_site_occupancy
  C  1  1  0.61145150  0.55578850  0.01840300  1
  C  2  1  0.65372650  0.60881150  0.03823100  1
  C  3  1  0.66011150  0.60645450  0.07497600  1
  C  4  1  0.61010150  0.55567150  0.09395600  1
  C  5  1  0.56135600  0.50445500  0.07457200  1
  C  6  1  0.56888300  0.50243400  0.03791400  1
  C  9  1  0.61178500  0.55607200  0.98050800  1
  C  10  1  0.66572200  0.59731300  0.96097900  1
  C  11  1  0.66411900  0.60481200  0.92428800  1
  C  12  1  0.61200050  0.55693150  0.90496900  1
  C  13  1  0.56023600  0.50803300  0.92400600  1
  C  14  1  0.55814400  0.51505700  0.96070800  1
  C  31  1  0.10914500  0.55470100  0.35164500  1
  C  32  1  0.12058700  0.51283000  0.37141800  1
  C  33  1  0.11317950  0.50708450  0.40825800  1
  C  34  1  0.11348700  0.55774100  0.42713800  1
  C  35  1  0.10932800  0.60553300  0.40773300  1
  C  36  1  0.09848850  0.59732450  0.37119000  1
  C  39  1  0.10934000  0.55445800  0.31375300  1
  C  40  1  0.09698650  0.50058650  0.29424100  1
  C  41  1  0.10966300  0.50350300  0.25791600  1
  C  42  1  0.11924150  0.55769650  0.23865500  1
  C  43  1  0.11654450  0.60726550  0.25698900  1
  C  44  1  0.12199200  0.60813600  0.29393900  1
  C  61  1  0.61347800  0.05826700  0.68470100  1
  C  62  1  0.56004600  0.04674900  0.70436600  1
  C  63  1  0.56207850  0.05582550  0.74107400  1
  C  64  1  0.61340700  0.05809400  0.76025400  1
  C  65  1  0.66452250  0.05995450  0.74106200  1
  C  66  1  0.66671833  0.06925633  0.70436900  1
  C  69  1  0.61293250  0.05733250  0.64680900  1
  C  70  1  0.57118950  0.06911350  0.62711500  1
  C  71  1  0.56136900  0.05577400  0.59085300  1
  C  72  1  0.60601550  0.04593750  0.57182100  1
  C  73  1  0.65870000  0.04967400  0.59019700  1
  C  74  1  0.65429150  0.04489950  0.62717300  1
  C  91  1  0.48349350  0.14189750  0.76780700  1
  C  92  1  0.51647500  0.20869200  0.76683400  1
  C  93  1  0.50362800  0.24214300  0.79246500  1
  C  94  1  0.46013350  0.21104450  0.81973900  1
  C  95  1  0.42607900  0.14432800  0.82074300  1
  C  96  1  0.43789350  0.11092550  0.79434300  1
  C  98  1  0.46137600  0.24924800  0.84800700  1
  C  99  1  0.42213750  0.27604750  0.84893300  1
  C  100  1  0.43402850  0.32285550  0.87426500  1
  C  101  1  0.48553700  0.34500500  0.89760600  1
  C  102  1  0.52585550  0.31883950  0.89617100  1
  C  103  1  0.51175300  0.27006000  0.87192200  1
  C  119  1  0.49722150  0.39449650  0.92116500  1
  C  120  1  0.49933450  0.10685050  0.74420400  1
  C  123  1  0.82523750  0.68277450  0.10199100  1
  C  124  1  0.85954250  0.65028050  0.10100100  1
  C  125  1  0.90611150  0.66365250  0.12655100  1
  C  126  1  0.91850650  0.70740250  0.15367300  1
  C  127  1  0.88548950  0.74110050  0.15464500  1
  C  128  1  0.83984550  0.72859550  0.12839600  1
  C  130  1  0.95685150  0.70765850  0.18158600  1
  C  131  1  0.02285700  0.74740700  0.18146500  1
  C  132  1  0.05928100  0.73713400  0.20653200  1
  C  133  1  0.03128450  0.68702450  0.23080400  1
  C  134  1  0.96486100  0.64636500  0.23061700  1
  C  135  1  0.92874750  0.65849950  0.20635400  1
  C  151  1  0.07083850  0.67641350  0.25353500  1
  C  152  1  0.77408850  0.66636950  0.07847000  1
  C  155  1  0.02613050  0.34221750  0.43560800  1
  C  156  1  0.95934350  0.30855950  0.43478100  1
  C  157  1  0.92600000  0.26224100  0.46042600  1
  C  158  1  0.95725450  0.24947750  0.48745100  1
  C  159  1  0.02397700  0.28203500  0.48831700  1
  C  160  1  0.05724850  0.32751350  0.46201400  1
  C  162  1  0.91907950  0.21066750  0.51520300  1
  C  163  1  0.89305100  0.14469400  0.51474100  1
  C  164  1  0.84629950  0.10774450  0.53966400  1
  C  165  1  0.82400300  0.13520900  0.56416100  1
  C  166  1  0.84959750  0.20160350  0.56436600  1
  C  167  1  0.89780350  0.23823650  0.54018600  1
  C  183  1  0.77374100  0.09514200  0.58669600  1
  C  184  1  0.06111700  0.39290500  0.41188000  1
  C  187  1  0.73931000  0.96993500  0.76776400  1
  C  188  1  0.70619750  0.90313650  0.76657300  1
  C  189  1  0.71898900  0.86929100  0.79198600  1
  C  190  1  0.76264700  0.89995800  0.81924900  1
  C  191  1  0.79698750  0.96666450  0.82040600  1
  C  192  1  0.78517400  0.00045700  0.79423900  1
  C  194  1  0.76142350  0.86143550  0.84735900  1
  C  195  1  0.80181850  0.83597450  0.84862800  1
  C  196  1  0.79067900  0.78956700  0.87409600  1
  C  197  1  0.73891200  0.76659300  0.89729800  1
  C  198  1  0.69731900  0.79123000  0.89543500  1
  C  199  1  0.71060450  0.83959450  0.87104000  1
  C  215  1  0.72849300  0.71801200  0.92125000  1
  C  216  1  0.72345450  0.00530250  0.74436100  1
  C  219  1  0.39655050  0.42736650  0.10100600  1
  C  220  1  0.36281350  0.46043350  0.10011100  1
  C  221  1  0.31642650  0.44746850  0.12571100  1
  C  222  1  0.30382250  0.40373350  0.15287800  1
  C  223  1  0.33628150  0.36947150  0.15375000  1
  C  224  1  0.38159650  0.38142850  0.12738300  1
  C  226  1  0.26681850  0.40481550  0.18117900  1
  C  227  1  0.20091750  0.36472450  0.18244400  1
  C  228  1  0.16589400  0.37596700  0.20801500  1
  C  229  1  0.19498600  0.42756600  0.23131000  1
  C  230  1  0.26127450  0.46881750  0.22948600  1
  C  231  1  0.29610650  0.45540850  0.20498100  1
  C  247  1  0.15704200  0.43836600  0.25520200  1
  C  248  1  0.44764400  0.44345400  0.07749300  1
  C  251  1  0.19787000  0.77010200  0.43403900  1
  C  252  1  0.26468100  0.80336800  0.43318000  1
  C  253  1  0.29834650  0.84965950  0.45879100  1
  C  254  1  0.26746400  0.86265900  0.48592900  1
  C  255  1  0.20074900  0.83072000  0.48674200  1
  C  256  1  0.16716100  0.78547500  0.46038400  1
  C  258  1  0.30569500  0.89973000  0.51418000  1
  C  259  1  0.33066550  0.96549750  0.51572800  1
  C  260  1  0.37682200  0.00067100  0.54132600  1
  C  261  1  0.39993950  0.97185650  0.56440600  1
  C  262  1  0.37577850  0.90573950  0.56230800  1
  C  263  1  0.32769400  0.87073200  0.53775300  1
  C  279  1  0.44858050  0.01007550  0.58827800  1
  C  280  1  0.16251300  0.71905600  0.41054900  1
  H  7  1  0.68396850  0.64965450  0.02570600  1
  H  16  1  0.51690150  0.48610650  0.97326100  1
  H  17  1  0.64507450  0.59071550  0.85540400  1
  H  18  1  0.57665850  0.52765150  0.85521200  1
  H  19  1  0.57514900  0.52336500  0.14341600  1
  H  20  1  0.64028550  0.59021650  0.14373300  1
  H  21  1  0.53917150  0.46163750  0.02517300  1
  H  22  1  0.70686700  0.62590300  0.97372400  1
  H  24  1  0.50361350  0.45459250  0.88433100  1
  H  26  1  0.72290050  0.65710850  0.88506600  1
  H  28  1  0.50821350  0.44564550  0.11334000  1
  H  30  1  0.71346450  0.66359250  0.11431200  1
  H  37  1  0.13139400  0.48283100  0.35879300  1
  H  46  1  0.13427250  0.64920150  0.30657200  1
  H  47  1  0.14010150  0.53280350  0.19125000  1
  H  48  1  0.14872000  0.60276100  0.19131600  1
  H  49  1  0.12084750  0.59562050  0.47626700  1
  H  50  1  0.12357650  0.53103450  0.47681000  1
  H  51  1  0.08736300  0.62704600  0.35848600  1
  H  52  1  0.08358200  0.45916100  0.30690800  1
  H  54  1  0.10808250  0.65270350  0.21483400  1
  H  56  1  0.10195900  0.44461500  0.21872700  1
  H  58  1  0.10334100  0.65870400  0.44632300  1
  H  60  1  0.11645500  0.45415300  0.44804200  1
  H  67  1  0.51909400  0.03532500  0.69170400  1
  H  76  1  0.68319100  0.03297900  0.63995600  1
  H  77  1  0.55952350  0.02267250  0.52457400  1
  H  78  1  0.62116550  0.01454550  0.52505200  1
  H  79  1  0.64755550  0.06033050  0.80989500  1
  H  80  1  0.58040450  0.05796350  0.80994300  1
  H  81  1  0.70758250  0.08015050  0.69172300  1
  H  82  1  0.54304350  0.08253150  0.63961700  1
  H  84  1  0.71282650  0.05998250  0.54788200  1
  H  86  1  0.51059350  0.06302450  0.55136300  1
  H  88  1  0.72235750  0.06404550  0.78013000  1
  H  90  1  0.50375750  0.05005650  0.78020100  1
  H  97  1  0.41391700  0.06281600  0.79511800  1
  H  104  1  0.40550150  0.34214850  0.87486100  1
  H  105  1  0.54169050  0.25245650  0.86988500  1
  H  106  1  0.52984950  0.29027550  0.79241700  1
  H  109  1  0.36089050  0.06604850  0.84684400  1
  H  110  1  0.37402050  0.13293750  0.86489100  1
  H  112  1  0.60705150  0.32281450  0.91266600  1
  H  113  1  0.59594600  0.37824000  0.92957600  1
  H  129  1  0.81555150  0.75241050  0.12912900  1
  H  136  1  0.10712500  0.76561400  0.20619400  1
  H  137  1  0.88117550  0.62822850  0.20516200  1
  H  138  1  0.92850400  0.63789100  0.12645400  1
  H  141  1  0.87227350  0.80640650  0.18052000  1
  H  142  1  0.92655050  0.79397850  0.19849200  1
  H  144  1  0.88905650  0.56653350  0.24963200  1
  H  145  1  0.95672550  0.58034850  0.26638900  1
  H  161  1  0.10536600  0.35154900  0.46265400  1
  H  168  1  0.82704800  0.05992000  0.53905200  1
  H  169  1  0.91498350  0.28580250  0.53926500  1
  H  170  1  0.87786150  0.24014250  0.46038400  1
  H  173  1  0.10240800  0.29465800  0.51404800  1
  H  174  1  0.03561850  0.24083650  0.53216000  1
  H  176  1  0.84538700  0.27691700  0.58403400  1
  H  177  1  0.79180950  0.20887650  0.60057300  1
  H  193  1  0.80945100  0.04855200  0.79513300  1
  H  200  1  0.82010750  0.77133050  0.87498200  1
  H  201  1  0.67993850  0.85629250  0.86881800  1
  H  202  1  0.69265400  0.82116900  0.79178200  1
  H  205  1  0.86256900  0.04460800  0.84659200  1
  H  206  1  0.84923350  0.97748050  0.86439500  1
  H  208  1  0.61495550  0.78518750  0.91144500  1
  H  209  1  0.62750050  0.73090950  0.92867900  1
  H  225  1  0.40555650  0.35728250  0.12807900  1
  H  232  1  0.11817650  0.34681750  0.20887100  1
  H  233  1  0.34350500  0.48589400  0.20273700  1
  H  234  1  0.29459800  0.47376600  0.12573200  1
  H  237  1  0.34905750  0.30389850  0.17963800  1
  H  238  1  0.29539250  0.31707350  0.19776800  1
  H  240  1  0.33792950  0.55081750  0.24560800  1
  H  241  1  0.27128750  0.53857350  0.26294700  1
  H  257  1  0.11905500  0.76187800  0.46105300  1
  H  264  1  0.39487350  0.04830650  0.54235200  1
  H  265  1  0.31132000  0.82345400  0.53535100  1
  H  266  1  0.34645400  0.87117600  0.45881200  1
  H  269  1  0.12259150  0.81863350  0.51256300  1
  H  270  1  0.18957600  0.87186500  0.53075300  1
  H  272  1  0.38233300  0.82960900  0.57810700  1
  H  273  1  0.43598300  0.89637400  0.59571700  1
  N  8  1  0.60875500  0.55614800  0.12983700  1
  N  15  1  0.61154550  0.55808550  0.86907100  1
  N  23  1  0.51341400  0.45306400  0.90878500  1
  N  25  1  0.71209000  0.65920100  0.90928200  1
  N  27  1  0.50597600  0.45792300  0.08947000  1
  N  29  1  0.71566250  0.65190050  0.09031600  1
  N  38  1  0.11837600  0.56100300  0.46293000  1
  N  45  1  0.13345900  0.56334900  0.20366100  1
  N  53  1  0.10525450  0.65112150  0.24023000  1
  N  55  1  0.11494700  0.45497600  0.24304300  1
  N  57  1  0.11816100  0.66094000  0.42250500  1
  N  59  1  0.10357550  0.45181250  0.42383300  1
  N  68  1  0.61366650  0.05853550  0.79615100  1
  N  75  1  0.59698050  0.03020550  0.53703100  1
  N  83  1  0.71398800  0.06162300  0.57332200  1
  N  85  1  0.50756600  0.05013200  0.57575000  1
  N  87  1  0.71053850  0.05041650  0.75612600  1
  N  89  1  0.51533450  0.06411950  0.75621700  1
  N  107  1  0.37302450  0.25635850  0.82408800  1
  N  108  1  0.38386250  0.11178150  0.84651900  1
  N  111  1  0.57964650  0.34057550  0.91536200  1
  N  114  1  0.56535850  0.24220150  0.74219100  1
  N  139  1  0.05079650  0.79534050  0.15584700  1
  N  140  1  0.89529550  0.78369250  0.18021600  1
  N  143  1  0.93433150  0.59429550  0.25127100  1
  N  146  1  0.84459750  0.60151350  0.07634400  1
  N  171  1  0.91329200  0.11729900  0.48892400  1
  N  172  1  0.05667000  0.27192900  0.51382000  1
  N  175  1  0.82796250  0.23162450  0.58536500  1
  N  178  1  0.92582450  0.32388050  0.41011900  1
  N  203  1  0.85137450  0.85660050  0.82400600  1
  N  204  1  0.83944300  0.99887700  0.84614500  1
  N  207  1  0.64319750  0.76847050  0.91442000  1
  N  210  1  0.65724450  0.86994850  0.74191900  1
  N  235  1  0.17171150  0.31541250  0.15770000  1
  N  236  1  0.32639750  0.32697150  0.17939400  1
  N  239  1  0.29293000  0.52278600  0.24857400  1
  N  242  1  0.37831450  0.50951650  0.07558800  1
  N  267  1  0.30990400  0.99446700  0.49121200  1
  N  268  1  0.16832450  0.84098050  0.51234500  1
  N  271  1  0.39872650  0.87448650  0.58122800  1
  N  274  1  0.29801450  0.78750950  0.40868000  1
  O  115  1  0.38027400  0.30128300  0.80507000  1
  O  116  1  0.55458100  0.27758500  0.72320500  1
  O  117  1  0.32042050  0.23310350  0.83892000  1
  O  118  1  0.61788700  0.27426600  0.75681600  1
  O  121  1  0.50715050  0.38461050  0.95496000  1
  O  122  1  0.51356050  0.12933650  0.71097600  1
  O  147  1  0.08787000  0.78759100  0.13657300  1
  O  148  1  0.89082650  0.61287650  0.05726100  1
  O  149  1  0.08042800  0.84865400  0.16987400  1
  O  150  1  0.82483600  0.54907600  0.09095300  1
  O  153  1  0.05597500  0.67395500  0.28793600  1
  O  154  1  0.78190650  0.65166950  0.04527100  1
  O  179  1  0.86860850  0.08043750  0.46950800  1
  O  180  1  0.89051200  0.27767500  0.39113800  1
  O  181  1  0.93709250  0.08760250  0.50273800  1
  O  182  1  0.89364900  0.34421800  0.42473400  1
  O  185  1  0.78638450  0.10886750  0.62118800  1
  O  186  1  0.03886050  0.38396850  0.37858400  1
  O  211  1  0.84541350  0.81201550  0.80512500  1
  O  212  1  0.66794350  0.83475850  0.72271100  1
  O  213  1  0.90384700  0.88090900  0.83906200  1
  O  214  1  0.60474250  0.83773650  0.75654600  1
  O  217  1  0.71770650  0.72817250  0.95483700  1
  O  218  1  0.70860850  0.98308850  0.71110700  1
  O  243  1  0.13325400  0.32182900  0.13892200  1
  O  244  1  0.33224000  0.49891300  0.05657100  1
  O  245  1  0.14329500  0.26282900  0.17261900  1
  O  246  1  0.39875200  0.56194000  0.09033400  1
  O  249  1  0.17737150  0.44910750  0.28890400  1
  O  250  1  0.44015700  0.45867700  0.04435200  1
  O  275  1  0.35448550  0.03354150  0.47249200  1
  O  276  1  0.33376000  0.83347900  0.38967100  1
  O  277  1  0.28516050  0.02212050  0.50637300  1
  O  278  1  0.32966650  0.76670750  0.42344700  1
  O  281  1  0.43883850  0.98955450  0.62193900  1
  O  282  1  0.18537000  0.72601600  0.37746600  1
