# generated using pymatgen
data_H7C16(N2O)2
_symmetry_space_group_name_H-M   'P 1'
_cell_length_a   29.27180000
_cell_length_b   29.27190000
_cell_length_c   33.13390000
_cell_angle_alpha   90.12510000
_cell_angle_beta   89.88630000
_cell_angle_gamma   90.00000000
_symmetry_Int_Tables_number   1
_chemical_formula_structural   H7C16(N2O)2
_chemical_formula_sum   'H112 C256 N64 O32'
_cell_volume   28390.36714340
_cell_formula_units_Z   16
loop_
 _symmetry_equiv_pos_site_id
 _symmetry_equiv_pos_as_xyz
  1  'x, y, z'
loop_
 _atom_site_type_symbol
 _atom_site_label
 _atom_site_symmetry_multiplicity
 _atom_site_fract_x
 _atom_site_fract_y
 _atom_site_fract_z
 _atom_site_occupancy
  H  7  1  0.73474400  0.82996700  0.88704200  1
  H  8  1  0.66985100  0.95854900  0.87950600  1
  H  9  1  0.61679100  0.84777700  0.81640800  1
  H  16  1  0.75792100  0.86092300  0.94774900  1
  H  17  1  0.82548500  0.97907500  0.98758400  1
  H  18  1  0.73989500  0.98558700  0.88703800  1
  H  23  1  0.81537900  0.05079000  0.95366500  1
  H  24  1  0.60979300  0.95192300  0.80616500  1
  H  25  1  0.64930900  0.77666700  0.81831900  1
  H  26  1  0.81730400  0.85641500  0.99866000  1
  H  33  1  0.25264700  0.15935800  0.88725600  1
  H  34  1  0.31682500  0.03043400  0.88104000  1
  H  35  1  0.37338500  0.14076100  0.81994900  1
  H  42  1  0.22813200  0.12864300  0.94797700  1
  H  43  1  0.16018300  0.01053400  0.98726300  1
  H  44  1  0.24638600  0.00393500  0.88681700  1
  H  49  1  0.17093200  0.93872800  0.95349800  1
  H  50  1  0.37486900  0.02524300  0.81947400  1
  H  51  1  0.34048200  0.21216200  0.82059100  1
  H  52  1  0.16851100  0.13316400  0.99902900  1
  H  59  1  0.32782200  0.75318200  0.38679100  1
  H  60  1  0.45612500  0.81876000  0.37983100  1
  H  61  1  0.34583100  0.87100200  0.31595400  1
  H  68  1  0.35833200  0.73031200  0.44777700  1
  H  69  1  0.47659100  0.66345400  0.48793200  1
  H  70  1  0.48328400  0.74872800  0.38718900  1
  H  75  1  0.54845300  0.67403500  0.45424500  1
  H  76  1  0.44888800  0.87921200  0.30564700  1
  H  77  1  0.27486100  0.83814900  0.31765600  1
  H  78  1  0.35373400  0.67168200  0.49922900  1
  H  85  1  0.65728700  0.23542900  0.38742200  1
  H  86  1  0.52820500  0.17168000  0.38099000  1
  H  87  1  0.63887400  0.11449900  0.32039600  1
  H  94  1  0.62620400  0.26026500  0.44791000  1
  H  95  1  0.50814900  0.32881200  0.48690300  1
  H  96  1  0.50176000  0.24215100  0.38674200  1
  H  101  1  0.43649100  0.31843200  0.45294400  1
  H  102  1  0.52325200  0.11325400  0.31980800  1
  H  103  1  0.71038100  0.14716700  0.32112600  1
  H  104  1  0.63057900  0.32066900  0.49841700  1
  H  111  1  0.23440700  0.65853000  0.82342100  1
  H  112  1  0.17011200  0.52971300  0.83181200  1
  H  113  1  0.11644800  0.64069500  0.89447800  1
  H  120  1  0.25575700  0.62739900  0.76194500  1
  H  121  1  0.32337800  0.50950600  0.72120500  1
  H  122  1  0.24064400  0.50322100  0.82390800  1
  H  127  1  0.31486800  0.43797400  0.75592000  1
  H  128  1  0.10964100  0.53622400  0.90482100  1
  H  129  1  0.14892800  0.71189400  0.89233700  1
  H  130  1  0.30537900  0.63202500  0.70536400  1
  H  137  1  0.75273000  0.32938700  0.82300200  1
  H  138  1  0.81615400  0.45862000  0.82989000  1
  H  139  1  0.87307100  0.34818900  0.89042700  1
  H  146  1  0.73002900  0.36033000  0.76166000  1
  H  147  1  0.66223400  0.47826600  0.72185200  1
  H  148  1  0.74527500  0.48450100  0.82406200  1
  H  153  1  0.67143700  0.54989100  0.75638100  1
  H  154  1  0.87419600  0.46392600  0.89099900  1
  H  155  1  0.84038300  0.27666800  0.88959500  1
  H  156  1  0.68048900  0.35586500  0.70506100  1
  H  163  1  0.82810200  0.73577400  0.32313700  1
  H  164  1  0.95673100  0.67105400  0.33100200  1
  H  165  1  0.84599700  0.61829500  0.39439900  1
  H  172  1  0.85902300  0.75682100  0.26149800  1
  H  173  1  0.97716500  0.82364400  0.22048300  1
  H  174  1  0.98327100  0.74151600  0.32325400  1
  H  179  1  0.04877800  0.81470700  0.25494300  1
  H  180  1  0.94968100  0.61086300  0.40476000  1
  H  181  1  0.77487900  0.65094300  0.39239800  1
  H  182  1  0.85463500  0.80552900  0.20446000  1
  H  189  1  0.15732200  0.25399200  0.32336000  1
  H  190  1  0.02798700  0.31716900  0.33051300  1
  H  191  1  0.13857000  0.37480600  0.39056600  1
  H  198  1  0.12624900  0.23095500  0.26215600  1
  H  199  1  0.00851800  0.16244700  0.22259500  1
  H  200  1  0.00210500  0.24623300  0.32464600  1
  H  205  1  0.93695800  0.17134000  0.25732400  1
  H  206  1  0.02284900  0.37593600  0.39137500  1
  H  207  1  0.21015300  0.34223000  0.38966700  1
  H  208  1  0.13093600  0.18041000  0.20605000  1
  H  221  1  0.41384700  0.89182200  0.89431400  1
  H  222  1  0.58061900  0.10798300  0.81340700  1
  H  237  1  0.38996100  0.07396900  0.39529300  1
  H  238  1  0.60607400  0.90757300  0.31287500  1
  H  253  1  0.91420900  0.59703300  0.81626100  1
  H  254  1  0.07978800  0.38057600  0.89785400  1
  H  269  1  0.88988700  0.41539200  0.31598400  1
  H  270  1  0.10612300  0.58151400  0.39780100  1
  H  285  1  0.78273100  0.75213700  0.09216000  1
  H  286  1  0.94830900  0.98593700  0.11903300  1
  H  301  1  0.20240700  0.23673600  0.09373300  1
  H  302  1  0.03718900  0.00238000  0.11822700  1
  H  317  1  0.24992700  0.70434900  0.59387300  1
  H  318  1  0.48409600  0.53879000  0.61730200  1
  H  333  1  0.73470500  0.28492700  0.59193200  1
  H  334  1  0.50056700  0.44991600  0.61998200  1
  H  349  1  0.88282600  0.17801100  0.97423300  1
  H  350  1  0.67772200  0.13861300  0.79923800  1
  H  365  1  0.10686500  0.81081400  0.97699300  1
  H  366  1  0.30719100  0.85080900  0.79727800  1
  H  381  1  0.67612400  0.60932000  0.47707900  1
  H  382  1  0.63617100  0.80942500  0.29785700  1
  H  397  1  0.30902100  0.38523100  0.47417600  1
  H  398  1  0.34845900  0.17979900  0.29877500  1
  H  413  1  0.38253200  0.31059300  0.73534000  1
  H  414  1  0.17837000  0.35051700  0.91180800  1
  H  429  1  0.60779900  0.67822600  0.73310000  1
  H  430  1  0.80608600  0.63693300  0.91363900  1
  H  445  1  0.17689700  0.87938400  0.23236800  1
  H  446  1  0.13510400  0.68061700  0.41255600  1
  H  461  1  0.80933600  0.10470100  0.23605300  1
  H  462  1  0.84878800  0.30851800  0.41277000  1
  C  1  1  0.70959100  0.89824800  0.88704900  1
  C  2  1  0.70911600  0.85067000  0.87694300  1
  C  3  1  0.67604900  0.83127900  0.85054400  1
  C  4  1  0.64163600  0.86046800  0.83516900  1
  C  5  1  0.63994900  0.90696300  0.84539600  1
  C  6  1  0.67372100  0.92519200  0.87081200  1
  C  10  1  0.74259300  0.91942800  0.91299500  1
  C  11  1  0.76555300  0.89472000  0.94367400  1
  C  12  1  0.79527300  0.91596800  0.97179200  1
  C  13  1  0.80368600  0.96338100  0.96774700  1
  C  14  1  0.78301800  0.98970600  0.93701100  1
  C  15  1  0.75292800  0.96695700  0.91035700  1
  C  19  1  0.79264400  0.03701800  0.93374400  1
  C  20  1  0.60537000  0.93454300  0.83163500  1
  C  21  1  0.67498800  0.78507100  0.83767200  1
  C  22  1  0.81480200  0.89004100  0.00261400  1
  C  27  1  0.27741000  0.09101100  0.88775900  1
  C  28  1  0.27859100  0.13854000  0.87781900  1
  C  29  1  0.31277300  0.15763900  0.85233000  1
  C  30  1  0.34779400  0.12827500  0.83803800  1
  C  31  1  0.34859900  0.08166100  0.84791400  1
  C  32  1  0.31355500  0.06377900  0.87223100  1
  C  36  1  0.24362100  0.07007400  0.91308000  1
  C  37  1  0.22039400  0.09487900  0.94371000  1
  C  38  1  0.19042800  0.07365500  0.97166500  1
  C  39  1  0.18204100  0.02623400  0.96746400  1
  C  40  1  0.20289800  0.99987300  0.93668700  1
  C  41  1  0.23310900  0.02259700  0.91013000  1
  C  45  1  0.19356100  0.95249900  0.93346200  1
  C  46  1  0.38313500  0.05306600  0.83523600  1
  C  47  1  0.31415500  0.20373000  0.83932500  1
  C  48  1  0.17086700  0.09950600  0.00267400  1
  C  53  1  0.39594100  0.77873200  0.38710800  1
  C  54  1  0.34847500  0.77894500  0.37680700  1
  C  55  1  0.32925300  0.81180600  0.35019700  1
  C  56  1  0.35843500  0.84631200  0.33486800  1
  C  57  1  0.40478700  0.84830900  0.34537100  1
  C  58  1  0.42287000  0.81474800  0.37100900  1
  C  62  1  0.41701200  0.74583000  0.41312000  1
  C  63  1  0.39220300  0.72284300  0.44381400  1
  C  64  1  0.41339500  0.69325200  0.47199400  1
  C  65  1  0.46088000  0.68509100  0.46802500  1
  C  66  1  0.48728500  0.70579400  0.43727700  1
  C  67  1  0.46457600  0.73565500  0.41051000  1
  C  71  1  0.53466500  0.69648900  0.43414700  1
  C  72  1  0.43232900  0.88300100  0.33168400  1
  C  73  1  0.28319100  0.81258400  0.33711000  1
  C  74  1  0.38741400  0.67369800  0.50287200  1
  C  79  1  0.58883900  0.21091900  0.38777500  1
  C  80  1  0.63645200  0.20955200  0.37794800  1
  C  81  1  0.65568500  0.17520000  0.35262900  1
  C  82  1  0.62631700  0.14022400  0.33835100  1
  C  83  1  0.57961500  0.13960900  0.34809300  1
  C  84  1  0.56164900  0.17477700  0.37229200  1
  C  88  1  0.56778200  0.24479500  0.41302400  1
  C  89  1  0.59246100  0.26801200  0.44364200  1
  C  90  1  0.57119700  0.29818500  0.47146900  1
  C  91  1  0.52384000  0.30677000  0.46719500  1
  C  92  1  0.49756300  0.28587900  0.43646500  1
  C  93  1  0.52033400  0.25542900  0.41004500  1
  C  97  1  0.45025200  0.29551400  0.43310000  1
  C  98  1  0.55101800  0.10504600  0.33558000  1
  C  99  1  0.70189900  0.17358000  0.33978400  1
  C  100  1  0.59698800  0.31778200  0.50238900  1
  C  105  1  0.20946400  0.59019500  0.82380200  1
  C  106  1  0.20887200  0.63779800  0.83375400  1
  C  107  1  0.17576700  0.65718600  0.86022200  1
  C  108  1  0.14137800  0.62797400  0.87573800  1
  C  109  1  0.13989700  0.58140300  0.86573600  1
  C  110  1  0.17381300  0.56313500  0.84036600  1
  C  114  1  0.24226200  0.56914100  0.79749600  1
  C  115  1  0.26409000  0.59378300  0.76608100  1
  C  116  1  0.29328200  0.57265100  0.73732500  1
  C  117  1  0.30232500  0.52534700  0.74163600  1
  C  118  1  0.28268000  0.49907100  0.77301300  1
  C  119  1  0.25307100  0.52175800  0.80022200  1
  C  123  1  0.29250800  0.45179200  0.77622700  1
  C  124  1  0.10524900  0.55382700  0.87948500  1
  C  125  1  0.17465800  0.70342700  0.87297700  1
  C  126  1  0.31053800  0.59838800  0.70514800  1
  C  131  1  0.77719800  0.39782700  0.82282800  1
  C  132  1  0.77851000  0.35027400  0.83259800  1
  C  133  1  0.81262500  0.33122600  0.85805800  1
  C  134  1  0.84748800  0.36066500  0.87241100  1
  C  135  1  0.84810500  0.40734500  0.86275000  1
  C  136  1  0.81304000  0.42520700  0.83856300  1
  C  140  1  0.74366700  0.41862700  0.79730200  1
  C  141  1  0.72161600  0.39391900  0.76603600  1
  C  142  1  0.69223400  0.41505700  0.73761200  1
  C  143  1  0.68327600  0.46238300  0.74212800  1
  C  144  1  0.70305200  0.48865600  0.77346000  1
  C  145  1  0.73267300  0.46595400  0.80042400  1
  C  149  1  0.69358900  0.53601700  0.77669800  1
  C  150  1  0.88256300  0.43599700  0.87539700  1
  C  151  1  0.81407500  0.28510100  0.87094300  1
  C  152  1  0.67495600  0.38944100  0.70533500  1
  C  157  1  0.89632400  0.71055600  0.32322400  1
  C  158  1  0.84878300  0.71018100  0.33333333  1
  C  159  1  0.82948900  0.67735600  0.36001100  1
  C  160  1  0.85867400  0.64300300  0.37549700  1
  C  161  1  0.90516500  0.64126200  0.36525700  1
  C  162  1  0.92335200  0.67487300  0.33966000  1
  C  166  1  0.91734400  0.74320500  0.29688800  1
  C  167  1  0.89270500  0.76499300  0.26552100  1
  C  168  1  0.91387500  0.79402000  0.23676200  1
  C  169  1  0.96124900  0.80280200  0.24095400  1
  C  170  1  0.98749000  0.78320200  0.27229700  1
  C  171  1  0.96474300  0.75389700  0.29958600  1
  C  175  1  0.03483400  0.79268900  0.27538800  1
  C  176  1  0.93273300  0.60668300  0.37902800  1
  C  177  1  0.78333000  0.67650600  0.37295900  1
  C  178  1  0.88817600  0.81124100  0.20459900  1
  C  183  1  0.08882000  0.27829900  0.32335400  1
  C  184  1  0.13641700  0.27977100  0.33301200  1
  C  185  1  0.15552900  0.31411600  0.35833000  1
  C  186  1  0.12606900  0.34903100  0.37268100  1
  C  187  1  0.07934600  0.34948900  0.36315000  1
  C  188  1  0.06145400  0.31422500  0.33907200  1
  C  192  1  0.06797300  0.24464000  0.29785100  1
  C  193  1  0.09266400  0.22253800  0.26653300  1
  C  194  1  0.07158800  0.19290700  0.23817800  1
  C  195  1  0.02432100  0.18375000  0.24279200  1
  C  196  1  0.99801000  0.20362800  0.27412900  1
  C  197  1  0.02065700  0.23356200  0.30099900  1
  C  201  1  0.95071300  0.19384500  0.27749400  1
  C  202  1  0.05070000  0.38408900  0.37560300  1
  C  203  1  0.20171900  0.31578300  0.37106700  1
  C  204  1  0.09725800  0.17551700  0.20593000  1
  C  209  1  0.53491800  0.96805600  0.84920700  1
  C  210  1  0.49116700  0.95281400  0.86091200  1
  C  211  1  0.45366900  0.98223000  0.86023400  1
  C  212  1  0.45738300  0.02827500  0.84781600  1
  C  213  1  0.50132600  0.04386400  0.83705600  1
  C  214  1  0.53887600  0.01441800  0.83768300  1
  C  217  1  0.43405000  0.91697500  0.88258500  1
  C  220  1  0.55960600  0.08156800  0.82119500  1
  C  225  1  0.46620900  0.95310600  0.34948700  1
  C  226  1  0.45093900  0.99680500  0.36136000  1
  C  227  1  0.48031700  0.03433400  0.36059400  1
  C  228  1  0.52634200  0.03069200  0.34792700  1
  C  229  1  0.54195200  0.98678800  0.33698600  1
  C  230  1  0.51253600  0.94921000  0.33769300  1
  C  233  1  0.41509800  0.05382900  0.38336200  1
  C  236  1  0.57965600  0.92855400  0.32082800  1
  C  241  1  0.03471300  0.52059100  0.86185700  1
  C  242  1  0.99109800  0.53591100  0.84998800  1
  C  243  1  0.95352200  0.50658400  0.85057300  1
  C  244  1  0.95701900  0.46055000  0.86305600  1
  C  245  1  0.00084100  0.44486900  0.87394700  1
  C  246  1  0.03846500  0.47422700  0.87341100  1
  C  249  1  0.93425000  0.57185100  0.82808200  1
  C  252  1  0.05890100  0.40703600  0.88999000  1
  C  257  1  0.96622800  0.53620000  0.36152600  1
  C  258  1  0.95091100  0.49250100  0.34974400  1
  C  259  1  0.98021100  0.45491400  0.35053200  1
  C  260  1  0.02620200  0.45848100  0.36314700  1
  C  261  1  0.04187200  0.50238300  0.37396700  1
  C  262  1  0.01253900  0.54002500  0.37323100  1
  C  265  1  0.91502900  0.43550800  0.32785700  1
  C  268  1  0.07967500  0.56057000  0.38993900  1
  C  273  1  0.84657700  0.88764400  0.06871300  1
  C  274  1  0.83273700  0.84462300  0.08396600  1
  C  275  1  0.85191200  0.82658700  0.11916300  1
  C  276  1  0.88556700  0.85006500  0.14176800  1
  C  277  1  0.89954600  0.89280000  0.12636700  1
  C  278  1  0.88001900  0.91105200  0.09141200  1
  C  281  1  0.80277900  0.78052800  0.09486400  1
  C  284  1  0.92890300  0.95717000  0.11590700  1
  C  289  1  0.13880700  0.10137700  0.06882800  1
  C  290  1  0.15255300  0.14427000  0.08453100  1
  C  291  1  0.13329100  0.16191000  0.11997500  1
  C  292  1  0.09964200  0.13813700  0.14236300  1
  C  293  1  0.08574000  0.09554200  0.12651200  1
  C  294  1  0.10537000  0.07767300  0.09131500  1
  C  297  1  0.18239200  0.20829200  0.09613500  1
  C  300  1  0.05654200  0.03121700  0.11538700  1
  C  305  1  0.38529800  0.64083600  0.56863900  1
  C  306  1  0.34237500  0.65448500  0.58439000  1
  C  307  1  0.32463700  0.63498300  0.61962600  1
  C  308  1  0.34832400  0.60116300  0.64177000  1
  C  309  1  0.39095300  0.58735600  0.62586400  1
  C  310  1  0.40891300  0.60721300  0.59087600  1
  C  313  1  0.27834500  0.68429200  0.59614500  1
  C  316  1  0.45528300  0.55818700  0.61459200  1
  C  321  1  0.59914900  0.34874000  0.56886200  1
  C  322  1  0.64215600  0.33484300  0.58405200  1
  C  323  1  0.66008500  0.35377500  0.61946300  1
  C  324  1  0.63649400  0.38722100  0.64232800  1
  C  325  1  0.59377400  0.40126200  0.62699600  1
  C  326  1  0.57562000  0.38196200  0.59183000  1
  C  329  1  0.70627400  0.30490600  0.59477800  1
  C  332  1  0.52937300  0.43058200  0.61671100  1
  C  337  1  0.77758900  0.11051100  0.89774900  1
  C  338  1  0.80840600  0.14108600  0.91664700  1
  C  339  1  0.81141700  0.18710100  0.90505900  1
  C  340  1  0.78393100  0.20646700  0.87415400  1
  C  341  1  0.75257600  0.17595900  0.85604700  1
  C  342  1  0.75003000  0.12986100  0.86726300  1
  C  345  1  0.85819500  0.17269000  0.95295100  1
  C  348  1  0.70261900  0.14400100  0.82026900  1
  C  353  1  0.20923700  0.87878400  0.89775100  1
  C  354  1  0.17930400  0.84802600  0.91748600  1
  C  355  1  0.17675000  0.80180800  0.90629800  1
  C  356  1  0.20379500  0.78241800  0.87491800  1
  C  357  1  0.23425200  0.81314500  0.85593900  1
  C  358  1  0.23640400  0.85941500  0.86683100  1
  C  361  1  0.13088600  0.81620800  0.95512300  1
  C  364  1  0.28288100  0.84533900  0.81888600  1
  C  369  1  0.60826700  0.71179300  0.39822900  1
  C  370  1  0.63898000  0.68180800  0.41784700  1
  C  371  1  0.68513600  0.67905500  0.40652000  1
  C  372  1  0.70448400  0.70594200  0.37511700  1
  C  373  1  0.67380700  0.73646600  0.35626600  1
  C  374  1  0.62759100  0.73881100  0.36729100  1
  C  377  1  0.67074500  0.63333400  0.45528900  1
  C  380  1  0.64164000  0.78514300  0.31940300  1
  C  385  1  0.37664000  0.28004900  0.39733300  1
  C  386  1  0.34601500  0.31082200  0.41634400  1
  C  387  1  0.29993200  0.31362300  0.40490500  1
  C  388  1  0.28051800  0.28596700  0.37403600  1
  C  389  1  0.31108300  0.25467300  0.35580700  1
  C  390  1  0.35723900  0.25232700  0.36688000  1
  C  393  1  0.31435700  0.36058100  0.45282600  1
  C  396  1  0.34306900  0.20474500  0.31985300  1
  C  401  1  0.27780100  0.37834000  0.81254100  1
  C  402  1  0.30845000  0.34768600  0.79342700  1
  C  403  1  0.31144400  0.30167800  0.80503600  1
  C  404  1  0.28406800  0.28238400  0.83615500  1
  C  405  1  0.25287100  0.31297400  0.85447500  1
  C  406  1  0.25037800  0.35907300  0.84326200  1
  C  409  1  0.35801000  0.31597500  0.75679500  1
  C  412  1  0.20316500  0.34506400  0.89060800  1
  C  417  1  0.70900400  0.60963000  0.81270400  1
  C  418  1  0.67944400  0.64057400  0.79287000  1
  C  419  1  0.67701400  0.68678600  0.80411000  1
  C  420  1  0.70385000  0.70599200  0.83562800  1
  C  421  1  0.73395000  0.67507400  0.85470100  1
  C  422  1  0.73594700  0.62880400  0.84377700  1
  C  425  1  0.63157100  0.67267900  0.75506800  1
  C  428  1  0.78202000  0.64256400  0.89193500  1
  C  433  1  0.10820600  0.77768000  0.31163200  1
  C  434  1  0.13915000  0.80740500  0.29189900  1
  C  435  1  0.18524400  0.81007200  0.30328700  1
  C  436  1  0.20430400  0.78331200  0.33485000  1
  C  437  1  0.17338900  0.75303500  0.35381500  1
  C  438  1  0.12722600  0.75081400  0.34275400  1
  C  441  1  0.17130000  0.85552400  0.25426700  1
  C  444  1  0.14080300  0.70474100  0.39089800  1
  C  449  1  0.87700500  0.20900000  0.31354500  1
  C  450  1  0.84634800  0.17850300  0.29433800  1
  C  451  1  0.80020900  0.17576100  0.30578900  1
  C  452  1  0.78077100  0.20323600  0.33684500  1
  C  453  1  0.81137400  0.23426000  0.35526400  1
  C  454  1  0.85758800  0.23651800  0.34420000  1
  C  457  1  0.81467000  0.12915700  0.25756000  1
  C  460  1  0.84339700  0.28376600  0.39153500  1
  N  215  1  0.41804000  0.95889300  0.87435000  1
  N  218  1  0.57537000  0.03920600  0.82792100  1
  N  223  1  0.57020100  0.94052400  0.85417900  1
  N  224  1  0.42290500  0.05720800  0.85107900  1
  N  231  1  0.45697900  0.06989800  0.37493000  1
  N  234  1  0.53731600  0.91274600  0.32773900  1
  N  239  1  0.43881600  0.91774000  0.35461200  1
  N  240  1  0.55524000  0.06519000  0.35121400  1
  N  247  1  0.91807200  0.52998100  0.83631300  1
  N  250  1  0.07481900  0.44935700  0.88329000  1
  N  255  1  0.07008500  0.54807700  0.85700600  1
  N  256  1  0.92249600  0.43168500  0.85977100  1
  N  263  1  0.95685000  0.41936700  0.33627400  1
  N  266  1  0.03738700  0.57645200  0.38306600  1
  N  271  1  0.93886100  0.57158300  0.35642300  1
  N  272  1  0.05504300  0.42391800  0.35992100  1
  N  279  1  0.83260800  0.78599100  0.12517800  1
  N  282  1  0.89918300  0.95172200  0.08546300  1
  N  287  1  0.82879400  0.90744500  0.03613600  1
  N  288  1  0.90554400  0.83341200  0.17471400  1
  N  295  1  0.15252100  0.20246700  0.12645200  1
  N  298  1  0.08630800  0.03701800  0.08495000  1
  N  303  1  0.15668000  0.08189200  0.03602700  1
  N  304  1  0.07961400  0.15452100  0.17549500  1
  N  311  1  0.28407900  0.65420200  0.62619000  1
  N  314  1  0.44956700  0.58816600  0.58441100  1
  N  319  1  0.40489500  0.65890700  0.53602800  1
  N  320  1  0.33191300  0.58095800  0.67475700  1
  N  327  1  0.70070000  0.33449400  0.62536900  1
  N  330  1  0.53492500  0.40109600  0.58599900  1
  N  335  1  0.57946200  0.33113100  0.53611000  1
  N  336  1  0.65308800  0.40701500  0.67543300  1
  N  343  1  0.84294900  0.20592500  0.92878200  1
  N  346  1  0.71819300  0.11054000  0.84422300  1
  N  351  1  0.77287600  0.06526000  0.90633300  1
  N  352  1  0.78509400  0.25068800  0.86092700  1
  N  359  1  0.14607400  0.78288000  0.93085600  1
  N  362  1  0.26740200  0.87888600  0.84297800  1
  N  367  1  0.21347800  0.92420200  0.90599900  1
  N  368  1  0.20291900  0.73802200  0.86193500  1
  N  375  1  0.70403300  0.64834600  0.43096000  1
  N  378  1  0.60813400  0.76982900  0.34355700  1
  N  383  1  0.56290100  0.71617000  0.40658600  1
  N  384  1  0.74881100  0.70483700  0.36199400  1
  N  391  1  0.28107900  0.34514200  0.42873600  1
  N  394  1  0.37657600  0.22049500  0.34373200  1
  N  399  1  0.42194800  0.27548200  0.40580200  1
  N  400  1  0.23622500  0.28689800  0.36095600  1
  N  407  1  0.34282800  0.28278100  0.78109700  1
  N  410  1  0.21868800  0.37847300  0.86652100  1
  N  415  1  0.27307500  0.42357300  0.80391800  1
  N  416  1  0.28521700  0.23818400  0.84943300  1
  N  423  1  0.64668400  0.70590200  0.77943500  1
  N  426  1  0.76660100  0.60913400  0.86773900  1
  N  431  1  0.71314600  0.56422500  0.80437100  1
  N  432  1  0.70306200  0.75036400  0.84869900  1
  N  439  1  0.20439600  0.84055500  0.27871300  1
  N  442  1  0.10750500  0.72002700  0.36662100  1
  N  447  1  0.06289500  0.77336400  0.30319000  1
  N  448  1  0.24854200  0.78434800  0.34806900  1
  N  455  1  0.78134300  0.14450800  0.28176500  1
  N  458  1  0.87694200  0.26809100  0.36754400  1
  N  463  1  0.92234500  0.21353600  0.30504000  1
  N  464  1  0.73643200  0.20234300  0.34997000  1
  O  216  1  0.47968400  0.91078400  0.87526200  1
  O  219  1  0.51355600  0.08712600  0.82663500  1
  O  232  1  0.40893800  0.00820300  0.37598300  1
  O  235  1  0.58520200  0.97459900  0.32633600  1
  O  248  1  0.97983300  0.57795000  0.83555700  1
  O  251  1  0.01288000  0.40158700  0.88443100  1
  O  264  1  0.90893300  0.48115700  0.33518500  1
  O  267  1  0.08512600  0.51449900  0.38452400  1
  O  280  1  0.80056000  0.81611400  0.06826000  1
  O  283  1  0.93101700  0.92165300  0.14267100  1
  O  296  1  0.18471100  0.17299000  0.06909600  1
  O  299  1  0.05429800  0.06647500  0.14255600  1
  O  312  1  0.31371600  0.68677800  0.56920600  1
  O  315  1  0.41997300  0.55579100  0.64167900  1
  O  328  1  0.67074900  0.30283400  0.56808300  1
  O  331  1  0.56484200  0.43256800  0.64354700  1
  O  344  1  0.83824600  0.13118500  0.94686900  1
  O  347  1  0.72267900  0.18579200  0.82584500  1
  O  360  1  0.15007300  0.85789500  0.94832000  1
  O  363  1  0.26356100  0.80334500  0.82514300  1
  O  376  1  0.62910600  0.65266000  0.44863100  1
  O  379  1  0.68358900  0.76567300  0.32549700  1
  O  392  1  0.35591300  0.34076500  0.44660000  1
  O  395  1  0.30123000  0.22465900  0.32559000  1
  O  408  1  0.33816500  0.35752500  0.76299000  1
  O  411  1  0.22310800  0.30322800  0.88490700  1
  O  424  1  0.65047100  0.63088000  0.76190600  1
  O  427  1  0.76299100  0.68467100  0.88564000  1
  O  440  1  0.12954800  0.83639400  0.26096400  1
  O  443  1  0.18286400  0.72400300  0.38475400  1
  O  456  1  0.85627400  0.14877800  0.26389500  1
  O  459  1  0.80150900  0.26405300  0.38568300  1
