# generated using pymatgen
data_ZnH6C10NO6
_symmetry_space_group_name_H-M   'P 1'
_cell_length_a   7.69972000
_cell_length_b   8.56629000
_cell_length_c   10.92531000
_cell_angle_alpha   88.74520000
_cell_angle_beta   86.39194000
_cell_angle_gamma   86.27002000
_symmetry_Int_Tables_number   1
_chemical_formula_structural   ZnH6C10NO6
_chemical_formula_sum   'Zn2 H12 C20 N2 O12'
_cell_volume   717.54550340
_cell_formula_units_Z   2
loop_
 _symmetry_equiv_pos_site_id
 _symmetry_equiv_pos_as_xyz
  1  'x, y, z'
loop_
 _atom_site_type_symbol
 _atom_site_label
 _atom_site_symmetry_multiplicity
 _atom_site_fract_x
 _atom_site_fract_y
 _atom_site_fract_z
 _atom_site_occupancy
  Zn  Zn0  1  0.69306000  0.51799000  0.48556000  1
  Zn  Zn1  1  0.30694000  0.48201000  0.51444000  1
  H  H2  1  0.93438000  0.36260000  0.11771000  1
  H  H3  1  0.98412000  0.18898000  0.93726000  1
  H  H4  1  0.91359000  0.71885000  0.73661000  1
  H  H5  1  0.08646000  0.28140000  0.26353000  1
  H  H6  1  0.06561000  0.63749000  0.88233000  1
  H  H7  1  0.76490000  0.69945000  0.18481000  1
  H  H8  1  0.23506000  0.30061000  0.81521000  1
  H  H9  1  0.29640000  0.00953000  0.51491000  1
  H  H10  1  0.70360000  0.99047000  0.48509000  1
  H  H11  1  0.98511000  0.38499000  0.59454000  1
  H  H12  1  0.01489000  0.61501000  0.40546000  1
  H  H13  1  0.01581000  0.81112000  0.06276000  1
  C  C14  1  0.45396000  0.79501000  0.50327000  1
  C  C15  1  0.04050000  0.40573000  0.94357000  1
  C  C16  1  0.97084000  0.56366000  0.92904000  1
  C  C17  1  0.02914000  0.43643000  0.07099000  1
  C  C18  1  0.81142000  0.58914000  0.86788000  1
  C  C19  1  0.18856000  0.41094000  0.13214000  1
  C  C20  1  0.65462000  0.54053000  0.93023000  1
  C  C21  1  0.34537000  0.45953000  0.06978000  1
  C  C22  1  0.64410000  0.55275000  0.05731000  1
  C  C23  1  0.35588000  0.44731000  0.94270000  1
  C  C24  1  0.50745000  0.49213000  0.87235000  1
  C  C25  1  0.54604000  0.20499000  0.49673000  1
  C  C26  1  0.49254000  0.50791000  0.12765000  1
  C  C27  1  0.42950000  0.95835000  0.50514000  1
  C  C28  1  0.57050000  0.04165000  0.49486000  1
  C  C29  1  0.49635000  0.50378000  0.26003000  1
  C  C30  1  0.50365000  0.49623000  0.73997000  1
  C  C31  1  0.78655000  0.62069000  0.10827000  1
  C  C32  1  0.21342000  0.37938000  0.89174000  1
  C  C33  1  0.95947000  0.59436000  0.05646000  1
  N  N34  1  0.04967000  0.45795000  0.53375000  1
  N  N35  1  0.95033000  0.54205000  0.46625000  1
  O  O36  1  0.61075000  0.73857000  0.49172000  1
  O  O37  1  0.93434000  0.29223000  0.90813000  1
  O  O38  1  0.79719000  0.70495000  0.77801000  1
  O  O39  1  0.20278000  0.29507000  0.22196000  1
  O  O40  1  0.38925000  0.26143000  0.50828000  1
  O  O41  1  0.32161000  0.71163000  0.51335000  1
  O  O42  1  0.67839000  0.28837000  0.48665000  1
  O  O43  1  0.64457000  0.51348000  0.30596000  1
  O  O44  1  0.35543000  0.48652000  0.69404000  1
  O  O45  1  0.35543000  0.48654000  0.32759000  1
  O  O46  1  0.64457000  0.51346000  0.67241000  1
  O  O47  1  0.06561000  0.70786000  0.09190000  1
