# generated using pymatgen
data_ZnH12C15N(ClO2)2
_symmetry_space_group_name_H-M   'P 1'
_cell_length_a   10.23123000
_cell_length_b   10.56469000
_cell_length_c   10.81292000
_cell_angle_alpha   89.22787000
_cell_angle_beta   83.23685000
_cell_angle_gamma   78.94386000
_symmetry_Int_Tables_number   1
_chemical_formula_structural   ZnH12C15N(ClO2)2
_chemical_formula_sum   'Zn2 H24 C30 N2 Cl4 O8'
_cell_volume   1139.04177722
_cell_formula_units_Z   2
loop_
 _symmetry_equiv_pos_site_id
 _symmetry_equiv_pos_as_xyz
  1  'x, y, z'
loop_
 _atom_site_type_symbol
 _atom_site_label
 _atom_site_symmetry_multiplicity
 _atom_site_fract_x
 _atom_site_fract_y
 _atom_site_fract_z
 _atom_site_occupancy
  Zn  Zn0  1  0.35306000  0.52202000  0.47808000  1
  Zn  Zn1  1  0.64694000  0.47798000  0.52192000  1
  H  H2  1  0.20747000  0.86525000  0.52108000  1
  H  H3  1  0.78306000  0.13331000  0.51595000  1
  H  H4  1  0.60103000  0.40171000  0.88931000  1
  H  H5  1  0.38833000  0.47448000  0.11174000  1
  H  H6  1  0.13874000  0.56540000  0.35786000  1
  H  H7  1  0.88537000  0.36696000  0.59554000  1
  H  H8  1  0.93852000  0.84233000  0.82613000  1
  H  H9  1  0.77979000  0.82927000  0.90942000  1
  H  H10  1  0.86214000  0.71025000  0.79256000  1
  H  H11  1  0.04784000  0.14869000  0.20454000  1
  H  H12  1  0.13000000  0.27968000  0.22762000  1
  H  H13  1  0.20682000  0.15256000  0.11684000  1
  H  H14  1  0.21564000  0.63705000  0.85305000  1
  H  H15  1  0.21319000  0.51608000  0.97215000  1
  H  H16  1  0.28823000  0.65586000  0.99160000  1
  H  H17  1  0.80251000  0.48096000  0.14151000  1
  H  H18  1  0.77279000  0.37063000  0.02772000  1
  H  H19  1  0.73803000  0.54295000  0.00080000  1
  H  H20  1  0.00920000  0.44097000  0.71333000  1
  H  H21  1  0.17988000  0.38586000  0.65098000  1
  H  H22  1  0.11473000  0.55318000  0.70471000  1
  H  H23  1  0.94773000  0.67689000  0.36192000  1
  H  H24  1  0.80231000  0.61552000  0.35727000  1
  H  H25  1  0.82251000  0.71960000  0.48575000  1
  C  C26  1  0.55767000  0.49072000  0.26658000  1
  C  C27  1  0.44244000  0.50607000  0.73279000  1
  C  C28  1  0.59215000  0.47438000  0.13226000  1
  C  C29  1  0.40748000  0.50838000  0.86640000  1
  C  C30  1  0.49007000  0.46706000  0.06661000  1
  C  C31  1  0.50492000  0.45292000  0.93368000  1
  C  C32  1  0.92317000  0.52236000  0.49777000  1
  C  C33  1  0.06569000  0.51063000  0.52618000  1
  C  C34  1  0.49099000  0.74048000  0.51810000  1
  C  C35  1  0.50688000  0.25773000  0.48968000  1
  C  C36  1  0.24942000  0.93770000  0.46669000  1
  C  C37  1  0.73802000  0.06175000  0.56822000  1
  C  C38  1  0.17251000  0.00661000  0.38081000  1
  C  C39  1  0.81362000  0.99084000  0.65394000  1
  C  C40  1  0.22240000  0.10296000  0.30937000  1
  C  C41  1  0.76540000  0.89015000  0.71947000  1
  C  C42  1  0.34586000  0.13308000  0.33249000  1
  C  C43  1  0.64426000  0.85857000  0.69164000  1
  C  C44  1  0.41472000  0.07274000  0.43050000  1
  C  C45  1  0.57563000  0.92312000  0.59520000  1
  C  C46  1  0.37692000  0.96280000  0.48359000  1
  C  C47  1  0.61225000  0.03572000  0.54572000  1
  C  C48  1  0.52109000  0.11811000  0.47620000  1
  C  C49  1  0.47125000  0.87816000  0.54641000  1
  C  C50  1  0.84109000  0.81453000  0.81714000  1
  C  C51  1  0.14714000  0.17425000  0.20924000  1
  C  C52  1  0.27328000  0.58316000  0.92403000  1
  C  C53  1  0.73460000  0.46675000  0.07226000  1
  C  C54  1  0.09519000  0.46926000  0.65519000  1
  C  C55  1  0.86999000  0.63836000  0.42197000  1
  N  N56  1  0.84270000  0.44861000  0.55112000  1
  N  N57  1  0.15730000  0.55139000  0.44888000  1
  Cl  Cl58  1  0.02114000  0.95906000  0.35766000  1
  Cl  Cl59  1  0.96363000  0.03858000  0.68170000  1
  Cl  Cl60  1  0.42793000  0.22438000  0.22252000  1
  Cl  Cl61  1  0.56652000  0.75573000  0.79301000  1
  O  O62  1  0.43106000  0.51034000  0.30753000  1
  O  O63  1  0.56894000  0.48966000  0.69247000  1
  O  O64  1  0.65112000  0.47736000  0.34035000  1
  O  O65  1  0.34888000  0.52264000  0.65965000  1
  O  O66  1  0.38997000  0.69972000  0.48358000  1
  O  O67  1  0.61003000  0.30028000  0.51642000  1
  O  O68  1  0.61003000  0.66673000  0.51640000  1
  O  O69  1  0.38997000  0.33333333  0.48360000  1
