# generated using pymatgen
data_CuH18C15N3O4
_symmetry_space_group_name_H-M   'P 1'
_cell_length_a   9.74064000
_cell_length_b   10.73325000
_cell_length_c   11.67381000
_cell_angle_alpha   93.87647000
_cell_angle_beta   91.61009000
_cell_angle_gamma   88.16517000
_symmetry_Int_Tables_number   1
_chemical_formula_structural   CuH18C15N3O4
_chemical_formula_sum   'Cu2 H36 C30 N6 O8'
_cell_volume   1216.65367980
_cell_formula_units_Z   2
loop_
 _symmetry_equiv_pos_site_id
 _symmetry_equiv_pos_as_xyz
  1  'x, y, z'
loop_
 _atom_site_type_symbol
 _atom_site_label
 _atom_site_symmetry_multiplicity
 _atom_site_fract_x
 _atom_site_fract_y
 _atom_site_fract_z
 _atom_site_occupancy
  Cu  Cu0  1  0.35934000  0.50000000  0.50000000  1
  Cu  Cu1  1  0.64066000  0.50000000  0.50000000  1
  H  H2  1  0.55271000  0.13094000  0.76352000  1
  H  H3  1  0.89237000  0.05176000  0.27898000  1
  H  H4  1  0.83666000  0.98646000  0.40784000  1
  H  H5  1  0.99122000  0.16720000  0.44930000  1
  H  H6  1  0.82784000  0.19182000  0.51151000  1
  H  H7  1  0.74840000  0.32085000  0.34627000  1
  H  H8  1  0.89395000  0.28886000  0.27601000  1
  H  H9  1  0.25715000  0.93898000  0.64528000  1
  H  H10  1  0.10234000  0.94322000  0.72764000  1
  H  H11  1  0.26747000  0.91783000  0.79741000  1
  H  H12  1  0.13843000  0.72037000  0.76510000  1
  H  H13  1  0.71175000  0.11800000  0.70677000  1
  H  H14  1  0.29839000  0.71465000  0.69427000  1
  H  H15  1  0.16980000  0.75433000  0.50223000  1
  H  H16  1  0.02779000  0.79183000  0.57192000  1
  H  H17  1  0.89915000  0.71847000  0.91661000  1
  H  H18  1  0.72822000  0.66263000  0.88552000  1
  H  H19  1  0.84986000  0.57175000  0.96767000  1
  H  H20  1  0.83783000  0.47417000  0.77182000  1
  H  H21  1  0.00097000  0.54416000  0.79642000  1
  H  H22  1  0.90420000  0.73696000  0.70361000  1
  H  H23  1  0.75352000  0.66626000  0.66845000  1
  H  H24  1  0.30786000  0.80965000  0.32731000  1
  H  H25  1  0.28668000  0.31189000  0.12363000  1
  H  H26  1  0.11899000  0.24686000  0.09634000  1
  H  H27  1  0.16293000  0.38765000  0.03126000  1
  H  H28  1  0.00876000  0.43395000  0.19625000  1
  H  H29  1  0.16968000  0.50563000  0.21924000  1
  H  H30  1  0.25342000  0.33127000  0.33854000  1
  H  H31  1  0.10963000  0.24997000  0.31305000  1
  H  H32  1  0.46903000  0.79398000  0.27524000  1
  H  H33  1  0.54200000  0.91160000  0.76613000  1
  H  H34  1  0.70239000  0.89969000  0.71245000  1
  H  H35  1  0.30094000  0.09651000  0.28358000  1
  H  H36  1  0.46217000  0.08642000  0.23307000  1
  H  H37  1  0.72033000  0.08517000  0.32867000  1
  C  C38  1  0.50159000  0.26301000  0.49832000  1
  C  C39  1  0.44499000  0.92948000  0.40356000  1
  C  C40  1  0.55133000  0.94078000  0.59666000  1
  C  C41  1  0.44927000  0.05910000  0.40216000  1
  C  C42  1  0.49574000  0.87121000  0.50112000  1
  C  C43  1  0.50411000  0.12873000  0.49779000  1
  C  C44  1  0.92664000  0.41462000  0.42989000  1
  C  C45  1  0.07061000  0.59183000  0.56091000  1
  C  C46  1  0.92646000  0.57886000  0.57444000  1
  C  C47  1  0.07444000  0.41903000  0.42567000  1
  C  C48  1  0.85724000  0.30439000  0.36465000  1
  C  C49  1  0.49837000  0.73695000  0.50101000  1
  C  C50  1  0.88056000  0.18369000  0.42831000  1
  C  C51  1  0.82902000  0.06983000  0.35633000  1
  C  C52  1  0.11773000  0.72609000  0.57818000  1
  C  C53  1  0.19385000  0.75717000  0.69350000  1
  C  C54  1  0.20588000  0.89813000  0.71712000  1
  C  C55  1  0.86268000  0.64368000  0.68117000  1
  C  C56  1  0.88908000  0.56504000  0.78532000  1
  C  C57  1  0.83813000  0.63390000  0.89551000  1
  C  C58  1  0.14413000  0.34719000  0.32480000  1
  C  C59  1  0.11974000  0.41390000  0.21268000  1
  C  C60  1  0.49857000  0.49968000  0.28452000  1
  C  C61  1  0.17581000  0.33498000  0.10972000  1
  C  C62  1  0.50141000  0.49998000  0.71546000  1
  C  C63  1  0.49648000  0.49986000  0.16258000  1
  C  C64  1  0.50325000  0.49939000  0.83736000  1
  C  C65  1  0.49808000  0.49970000  0.05993000  1
  C  C66  1  0.50138000  0.49933000  0.94000000  1
  C  C67  1  0.55573000  0.07102000  0.59484000  1
  N  N68  1  0.14793000  0.50000000  0.50000000  1
  N  N69  1  0.85207000  0.50000000  0.50000000  1
  N  N70  1  0.60952000  0.14595000  0.69137000  1
  N  N71  1  0.39276000  0.85846000  0.30402000  1
  N  N72  1  0.59956000  0.87833000  0.69568000  1
  N  N73  1  0.40269000  0.12050000  0.30216000  1
  O  O74  1  0.38126000  0.31964000  0.49999000  1
  O  O75  1  0.61874000  0.68036000  0.50001000  1
  O  O76  1  0.38126000  0.68036000  0.50001000  1
  O  O77  1  0.61874000  0.31964000  0.49999000  1
  O  O78  1  0.38121000  0.50001000  0.33720000  1
  O  O79  1  0.61879000  0.49999000  0.66280000  1
  O  O80  1  0.38121000  0.49999000  0.66280000  1
  O  O81  1  0.61879000  0.50001000  0.33720000  1
