# generated using pymatgen
data_TbAgH8C14(NO4)2
_symmetry_space_group_name_H-M   'P 1'
_cell_length_a   9.69977000
_cell_length_b   12.13195000
_cell_length_c   16.77856000
_cell_angle_alpha   83.58151000
_cell_angle_beta   89.99772000
_cell_angle_gamma   66.65026000
_symmetry_Int_Tables_number   1
_chemical_formula_structural   TbAgH8C14(NO4)2
_chemical_formula_sum   'Tb4 Ag4 H32 C56 N8 O32'
_cell_volume   1799.26608491
_cell_formula_units_Z   4
loop_
 _symmetry_equiv_pos_site_id
 _symmetry_equiv_pos_as_xyz
  1  'x, y, z'
loop_
 _atom_site_type_symbol
 _atom_site_label
 _atom_site_symmetry_multiplicity
 _atom_site_fract_x
 _atom_site_fract_y
 _atom_site_fract_z
 _atom_site_occupancy
  Tb  Tb1  1  0.70508000  0.99034000  0.93325000  1.0
  Tb  Tb2  1  0.30286000  0.99100000  0.43433000  1.0
  Tb  Tb3  1  0.29493000  0.01047000  0.06737000  1.0
  Tb  Tb4  1  0.69481000  0.01076000  0.56552000  1.0
  Ag  Ag1  1  0.27796000  0.68333000  0.58295000  1.0
  Ag  Ag2  1  0.03958000  0.68279000  0.08308000  1.0
  Ag  Ag3  1  0.72234000  0.31661000  0.41712000  1.0
  Ag  Ag4  1  0.96085000  0.31694000  0.91704000  1.0
  H  H1  1  0.16285000  0.41055000  0.04788000  1.0
  H  H2  1  0.90378000  0.20012000  0.27517000  1.0
  H  H3  1  0.87584000  0.08978000  0.16306000  1.0
  H  H4  1  0.76034000  0.28988000  0.05080000  1.0
  H  H5  1  0.49074000  0.64262000  0.12080000  1.0
  H  H6  1  0.23971000  0.71034000  0.94919000  1.0
  H  H7  1  0.13471000  0.35581000  0.37913000  1.0
  H  H8  1  0.42636000  0.41169000  0.54808000  1.0
  H  H9  1  0.60145000  0.81135000  0.27934000  1.0
  H  H10  1  0.24421000  0.30182000  0.82670000  1.0
  H  H11  1  0.57376000  0.58815000  0.45193000  1.0
  H  H12  1  0.96620000  0.91043000  0.33716000  1.0
  H  H13  1  0.05173000  0.70923000  0.44941000  1.0
  H  H14  1  0.45519000  0.30168000  0.32657000  1.0
  H  H15  1  0.03459000  0.08928000  0.66272000  1.0
  H  H16  1  0.58683000  0.81181000  0.77996000  1.0
  H  H17  1  0.39887000  0.18869000  0.72069000  1.0
  H  H18  1  0.86538000  0.64407000  0.62085000  1.0
  H  H19  1  0.12429000  0.91019000  0.83709000  1.0
  H  H20  1  0.89695000  0.19936000  0.77454000  1.0
  H  H21  1  0.75605000  0.69809000  0.17328000  1.0
  H  H22  1  0.10356000  0.80037000  0.22531000  1.0
  H  H23  1  0.83707000  0.58969000  0.95211000  1.0
  H  H24  1  0.43987000  0.58474000  0.86501000  1.0
  H  H25  1  0.41328000  0.18825000  0.22016000  1.0
  H  H26  1  0.50904000  0.35746000  0.87925000  1.0
  H  H27  1  0.09628000  0.80006000  0.72488000  1.0
  H  H28  1  0.94854000  0.29056000  0.55061000  1.0
  H  H29  1  0.54484000  0.69854000  0.67349000  1.0
  H  H30  1  0.56013000  0.41540000  0.13499000  1.0
  H  H31  1  0.97739000  0.58226000  0.36521000  1.0
  H  H32  1  0.02273000  0.41757000  0.63480000  1.0
  C  C1  1  0.21967000  0.86526000  0.80153000  1.0
  C  C2  1  0.22593000  0.44729000  0.00740000  1.0
  C  C3  1  0.96534000  0.06886000  0.48859000  1.0
  C  C4  1  0.58050000  0.58194000  0.08775000  1.0
  C  C5  1  0.32714000  0.44730000  0.50749000  1.0
  C  C6  1  0.20172000  0.25285000  0.78998000  1.0
  C  C7  1  0.38186000  0.54251000  0.90513000  1.0
  C  C8  1  0.64239000  0.12767000  0.18412000  1.0
  C  C9  1  0.16352000  0.41685000  0.41230000  1.0
  C  C10  1  0.28721000  0.19068000  0.73030000  1.0
  C  C11  1  0.61931000  0.05581000  0.12104000  1.0
  C  C12  1  0.47745000  0.80950000  0.76994000  1.0
  C  C13  1  0.29218000  0.36946000  0.46383000  1.0
  C  C14  1  0.96604000  0.06977000  0.98840000  1.0
  C  C15  1  0.32398000  0.05592000  0.62132000  1.0
  C  C16  1  0.37553000  0.23624000  0.97542000  1.0
  C  C17  1  0.54619000  0.25270000  0.28987000  1.0
  C  C18  1  0.70768000  0.63072000  0.53616000  1.0
  C  C19  1  0.33886000  0.36984000  0.96394000  1.0
  C  C20  1  0.99301000  0.80325000  0.23957000  1.0
  C  C21  1  0.79856000  0.74707000  0.21001000  1.0
  C  C22  1  0.71315000  0.80932000  0.26968000  1.0
  C  C23  1  0.52269000  0.19052000  0.23010000  1.0
  C  C24  1  0.77649000  0.93004000  0.75435000  1.0
  C  C25  1  0.23011000  0.12760000  0.68440000  1.0
  C  C26  1  0.07722000  0.54089000  0.40526000  1.0
  C  C27  1  0.66084000  0.63039000  0.03587000  1.0
  C  C28  1  0.77396000  0.55292000  0.99257000  1.0
  C  C29  1  0.11786000  0.61255000  0.45182000  1.0
  C  C30  1  0.00745000  0.19654000  0.76036000  1.0
  C  C31  1  0.38949000  0.23649000  0.47481000  1.0
  C  C32  1  0.61070000  0.76405000  0.52496000  1.0
  C  C33  1  0.62494000  0.76396000  0.02491000  1.0
  C  C34  1  0.08504000  0.13448000  0.69838000  1.0
  C  C35  1  0.73033000  0.38664000  0.04834000  1.0
  C  C36  1  0.03330000  0.93194000  0.01174000  1.0
  C  C37  1  0.35780000  0.87238000  0.81591000  1.0
  C  C38  1  0.22285000  0.06973000  0.24551000  1.0
  C  C39  1  0.88228000  0.38726000  0.54824000  1.0
  C  C40  1  0.83646000  0.58310000  0.58766000  1.0
  C  C41  1  0.03518000  0.93072000  0.51174000  1.0
  C  C42  1  0.29351000  0.92999000  0.25547000  1.0
  C  C43  1  0.91545000  0.86537000  0.30154000  1.0
  C  C44  1  0.67297000  0.55272000  0.49251000  1.0
  C  C45  1  0.78043000  0.13480000  0.19858000  1.0
  C  C46  1  0.26958000  0.61361000  0.95162000  1.0
  C  C47  1  0.92287000  0.45901000  0.59473000  1.0
  C  C48  1  0.45388000  0.74732000  0.71022000  1.0
  C  C49  1  0.20371000  0.80318000  0.73950000  1.0
  C  C50  1  0.67631000  0.94391000  0.37896000  1.0
  C  C51  1  0.38074000  0.94449000  0.87888000  1.0
  C  C52  1  0.70590000  0.06954000  0.74506000  1.0
  C  C53  1  0.41926000  0.41832000  0.91219000  1.0
  C  C54  1  0.79636000  0.19688000  0.26063000  1.0
  C  C55  1  0.77036000  0.87235000  0.31564000  1.0
  C  C56  1  0.61803000  0.45771000  0.09484000  1.0
  N  N1  1  0.68142000  0.25462000  0.30675000  1.0
  N  N2  1  0.31863000  0.74540000  0.69338000  1.0
  N  N3  1  0.24067000  0.56676000  0.50285000  1.0
  N  N4  1  0.75941000  0.43316000  0.49724000  1.0
  N  N5  1  0.80683000  0.43324000  0.99714000  1.0
  N  N6  1  0.06459000  0.25457000  0.80658000  1.0
  N  N7  1  0.93572000  0.74532000  0.19336000  1.0
  N  N8  1  0.19308000  0.56698000  0.00282000  1.0
  O  O1  1  0.79025000  0.88093000  0.69039000  1.0
  O  O2  1  0.49740000  0.04056000  0.12288000  1.0
  O  O3  1  0.74165000  0.98307000  0.42738000  1.0
  O  O4  1  0.83846000  0.12653000  0.51677000  1.0
  O  O5  1  0.15206000  0.88564000  0.05642000  1.0
  O  O6  1  0.33168000  0.16727000  0.45272000  1.0
  O  O7  1  0.33173000  0.87994000  0.19198000  1.0
  O  O8  1  0.81542000  0.87630000  0.82523000  1.0
  O  O9  1  0.27707000  0.20352000  0.00754000  1.0
  O  O10  1  0.49808000  0.83185000  0.04727000  1.0
  O  O11  1  0.96332000  0.88402000  0.55663000  1.0
  O  O12  1  0.66895000  0.83276000  0.54751000  1.0
  O  O13  1  0.21039000  0.11996000  0.30893000  1.0
  O  O14  1  0.30636000  0.87693000  0.32641000  1.0
  O  O15  1  0.25834000  0.01685000  0.57303000  1.0
  O  O16  1  0.52141000  0.20491000  0.50532000  1.0
  O  O17  1  0.50238000  0.96054000  0.87683000  1.0
  O  O18  1  0.50184000  0.16817000  0.95247000  1.0
  O  O19  1  0.16208000  0.87317000  0.48342000  1.0
  O  O20  1  0.84771000  0.11619000  0.94365000  1.0
  O  O21  1  0.66755000  0.11859000  0.80897000  1.0
  O  O22  1  0.69264000  0.12384000  0.67450000  1.0
  O  O23  1  0.03699000  0.11596000  0.44366000  1.0
  O  O24  1  0.53918000  0.95981000  0.37721000  1.0
  O  O25  1  0.96340000  0.87409000  0.98392000  1.0
  O  O26  1  0.46124000  0.04003000  0.62288000  1.0
  O  O27  1  0.27754000  0.98365000  0.92757000  1.0
  O  O28  1  0.72284000  0.01645000  0.07243000  1.0
  O  O29  1  0.72428000  0.79662000  0.99361000  1.0
  O  O30  1  0.47880000  0.79602000  0.49436000  1.0
  O  O31  1  0.18169000  0.12295000  0.17463000  1.0
  O  O32  1  0.03638000  0.12730000  0.01627000  1.0
