# generated using pymatgen
data_CoH7C13NO4
_symmetry_space_group_name_H-M   'P 1'
_cell_length_a   11.83764000
_cell_length_b   13.79879667
_cell_length_c   14.05126000
_cell_angle_alpha   90.00000000
_cell_angle_beta   90.00000000
_cell_angle_gamma   114.31118617
_symmetry_Int_Tables_number   1
_chemical_formula_structural   CoH7C13NO4
_chemical_formula_sum   'Co4 H28 C52 N4 O16'
_cell_volume   2091.67355212
_cell_formula_units_Z   4
loop_
 _symmetry_equiv_pos_site_id
 _symmetry_equiv_pos_as_xyz
  1  'x, y, z'
loop_
 _atom_site_type_symbol
 _atom_site_label
 _atom_site_symmetry_multiplicity
 _atom_site_fract_x
 _atom_site_fract_y
 _atom_site_fract_z
 _atom_site_occupancy
  Co  Co1  1  0.94935000  0.04842000  0.44764000  1.0
  Co  Co2  1  0.55064000  0.45158000  0.94764000  1.0
  Co  Co3  1  0.05064000  0.95158000  0.55236000  1.0
  Co  Co4  1  0.44936000  0.54842000  0.05236000  1.0
  H  H1  1  0.75358000  0.09766000  0.53503000  1.0
  H  H2  1  0.58375000  0.15085000  0.48782000  1.0
  H  H3  1  0.69416000  0.14605000  0.19548000  1.0
  H  H4  1  0.86017000  0.09427000  0.25556000  1.0
  H  H5  1  0.25070000  0.26519000  0.24869000  1.0
  H  H6  1  0.61283000  0.27829000  0.18646000  1.0
  H  H7  1  0.39806000  0.08781000  0.42028000  1.0
  H  H8  1  0.74641000  0.40234000  0.03502000  1.0
  H  H9  1  0.91625000  0.34916000  0.98782000  1.0
  H  H10  1  0.80583000  0.35395000  0.69548000  1.0
  H  H11  1  0.63983000  0.40574000  0.75556000  1.0
  H  H12  1  0.24929000  0.23481000  0.74869000  1.0
  H  H13  1  0.88716000  0.22171000  0.68647000  1.0
  H  H14  1  0.10193000  0.41219000  0.92028000  1.0
  H  H15  1  0.24642000  0.90234000  0.46498000  1.0
  H  H16  1  0.41625000  0.84916000  0.51218000  1.0
  H  H17  1  0.30583000  0.85395000  0.80452000  1.0
  H  H18  1  0.13983000  0.90574000  0.74444000  1.0
  H  H19  1  0.74930000  0.73481000  0.75131000  1.0
  H  H20  1  0.38716000  0.72171000  0.81354000  1.0
  H  H21  1  0.60193000  0.91219000  0.57972000  1.0
  H  H22  1  0.25358000  0.59766000  0.96498000  1.0
  H  H23  1  0.08375000  0.65084000  0.01218000  1.0
  H  H24  1  0.19417000  0.64605000  0.30452000  1.0
  H  H25  1  0.36018000  0.59427000  0.24444000  1.0
  H  H26  1  0.75070000  0.76519000  0.25131000  1.0
  H  H27  1  0.11283000  0.77829000  0.31354000  1.0
  H  H28  1  0.89806000  0.58781000  0.07972000  1.0
  C  C1  1  0.73643000  0.10936000  0.46084000  1.0
  C  C2  1  0.64191000  0.13818000  0.43366000  1.0
  C  C3  1  0.62282000  0.15250000  0.33679000  1.0
  C  C4  1  0.70437000  0.13754000  0.27161000  1.0
  C  C5  1  0.79688000  0.10815000  0.30433000  1.0
  C  C6  1  0.32501000  0.24067000  0.26447000  1.0
  C  C7  1  0.43377000  0.27891000  0.20979000  1.0
  C  C8  1  0.52950000  0.24722000  0.23002000  1.0
  C  C9  1  0.52018000  0.18082000  0.30804000  1.0
  C  C10  1  0.41019000  0.14200000  0.36118000  1.0
  C  C11  1  0.31185000  0.16934000  0.33886000  1.0
  C  C12  1  0.45095000  0.35642000  0.13109000  1.0
  C  C13  1  0.19420000  0.11854000  0.39507000  1.0
  C  C14  1  0.76357000  0.39065000  0.96084000  1.0
  C  C15  1  0.85808000  0.36182000  0.93366000  1.0
  C  C16  1  0.87717000  0.34750000  0.83679000  1.0
  C  C17  1  0.79562000  0.36246000  0.77161000  1.0
  C  C18  1  0.70311000  0.39185000  0.80434000  1.0
  C  C19  1  0.17498000  0.25933000  0.76447000  1.0
  C  C20  1  0.06622000  0.22109000  0.70979000  1.0
  C  C21  1  0.97049000  0.25278000  0.73002000  1.0
  C  C22  1  0.97981000  0.31918000  0.80804000  1.0
  C  C23  1  0.08980000  0.35800000  0.86118000  1.0
  C  C24  1  0.18814000  0.33066000  0.83886000  1.0
  C  C25  1  0.04905000  0.14358000  0.63109000  1.0
  C  C26  1  0.30579000  0.38146000  0.89507000  1.0
  C  C27  1  0.26357000  0.89065000  0.53917000  1.0
  C  C28  1  0.35808000  0.86182000  0.56634000  1.0
  C  C29  1  0.37717000  0.84750000  0.66322000  1.0
  C  C30  1  0.29562000  0.86246000  0.72839000  1.0
  C  C31  1  0.20311000  0.89185000  0.69567000  1.0
  C  C32  1  0.67498000  0.75933000  0.73554000  1.0
  C  C33  1  0.56622000  0.72109000  0.79021000  1.0
  C  C34  1  0.47049000  0.75278000  0.76998000  1.0
  C  C35  1  0.47981000  0.81918000  0.69196000  1.0
  C  C36  1  0.58980000  0.85800000  0.63882000  1.0
  C  C37  1  0.68815000  0.83066000  0.66114000  1.0
  C  C38  1  0.54905000  0.64358000  0.86891000  1.0
  C  C39  1  0.80579000  0.88146000  0.60493000  1.0
  C  C40  1  0.23642000  0.60935000  0.03917000  1.0
  C  C41  1  0.14192000  0.63818000  0.06634000  1.0
  C  C42  1  0.12282000  0.65250000  0.16321000  1.0
  C  C43  1  0.20437000  0.63754000  0.22839000  1.0
  C  C44  1  0.29688000  0.60815000  0.19567000  1.0
  C  C45  1  0.82502000  0.74067000  0.23554000  1.0
  C  C46  1  0.93377000  0.77891000  0.29021000  1.0
  C  C47  1  0.02950000  0.74722000  0.26998000  1.0
  C  C48  1  0.02018000  0.68082000  0.19196000  1.0
  C  C49  1  0.91019000  0.64200000  0.13882000  1.0
  C  C50  1  0.81185000  0.66934000  0.16114000  1.0
  C  C51  1  0.95095000  0.85642000  0.36891000  1.0
  C  C52  1  0.69421000  0.61854000  0.10493000  1.0
  N  N1  1  0.81321000  0.09367000  0.39759000  1.0
  N  N2  1  0.68678000  0.40633000  0.89759000  1.0
  N  N3  1  0.18678000  0.90633000  0.60241000  1.0
  N  N4  1  0.31321000  0.59367000  0.10241000  1.0
  O  O1  1  0.10085000  0.13779000  0.37123000  1.0
  O  O2  1  0.19507000  0.05714000  0.46232000  1.0
  O  O3  1  0.40570000  0.42496000  0.14272000  1.0
  O  O4  1  0.51217000  0.35026000  0.05820000  1.0
  O  O5  1  0.39914000  0.36221000  0.87123000  1.0
  O  O6  1  0.30493000  0.44287000  0.96232000  1.0
  O  O7  1  0.09429000  0.07504000  0.64272000  1.0
  O  O8  1  0.98782000  0.14974000  0.55821000  1.0
  O  O9  1  0.89914000  0.86221000  0.62877000  1.0
  O  O10  1  0.80493000  0.94287000  0.53769000  1.0
  O  O11  1  0.59429000  0.57504000  0.85728000  1.0
  O  O12  1  0.48783000  0.64974000  0.94180000  1.0
  O  O13  1  0.60085000  0.63779000  0.12877000  1.0
  O  O14  1  0.69507000  0.55714000  0.03768000  1.0
  O  O15  1  0.90571000  0.92496000  0.35728000  1.0
  O  O16  1  0.01217000  0.85026000  0.44180000  1.0
