# generated using pymatgen
data_Cu3H32C35S6(N3O2)2
_symmetry_space_group_name_H-M   'P 1'
_cell_length_a   10.08686000
_cell_length_b   13.39911000
_cell_length_c   22.39699000
_cell_angle_alpha   105.74253000
_cell_angle_beta   91.37470000
_cell_angle_gamma   103.64820000
_symmetry_Int_Tables_number   1
_chemical_formula_structural   Cu3H32C35S6(N3O2)2
_chemical_formula_sum   'Cu6 H64 C70 S12 N12 O8'
_cell_volume   2818.68897789
_cell_formula_units_Z   2
loop_
 _symmetry_equiv_pos_site_id
 _symmetry_equiv_pos_as_xyz
  1  'x, y, z'
loop_
 _atom_site_type_symbol
 _atom_site_label
 _atom_site_symmetry_multiplicity
 _atom_site_fract_x
 _atom_site_fract_y
 _atom_site_fract_z
 _atom_site_occupancy
  Cu  Cu0  1  0.06753000  0.53384000  0.27979000  1
  Cu  Cu1  1  0.40470000  0.01536000  0.04129000  1
  Cu  Cu2  1  0.94415000  0.45849000  0.72070000  1
  Cu  Cu3  1  0.59264000  0.97455000  0.95586000  1
  Cu  Cu4  1  0.43155000  0.02378000  0.51271000  1
  Cu  Cu5  1  0.96472000  0.99292000  0.49414000  1
  H  H6  1  0.31308000  0.89388000  0.12378000  1
  H  H7  1  0.40610000  0.84800000  0.21296000  1
  H  H8  1  0.79464000  0.06158000  0.20169000  1
  H  H9  1  0.68152000  0.09974000  0.11286000  1
  H  H10  1  0.60289000  0.82707000  0.34575000  1
  H  H11  1  0.46529000  0.85080000  0.30622000  1
  H  H12  1  0.70887000  0.71403000  0.35856000  1
  H  H13  1  0.90844000  0.64639000  0.36461000  1
  H  H14  1  0.86706000  0.49751000  0.17264000  1
  H  H15  1  0.66234000  0.56196000  0.15830000  1
  H  H16  1  0.23047000  0.55340000  0.39141000  1
  H  H17  1  0.44032000  0.50335000  0.41664000  1
  H  H18  1  0.47610000  0.39552000  0.21800000  1
  H  H19  1  0.26385000  0.44591000  0.20018000  1
  H  H20  1  0.63171000  0.30301000  0.23202000  1
  H  H21  1  0.71230000  0.25999000  0.28790000  1
  H  H22  1  0.67072000  0.23465000  0.38030000  1
  H  H23  1  0.65392000  0.14870000  0.46558000  1
  H  H24  1  0.28177000  0.93842000  0.38577000  1
  H  H25  1  0.29052000  0.00663000  0.29331000  1
  H  H26  1  0.13255000  0.98730000  0.99189000  1
  H  H27  1  0.01532000  0.04751000  0.91536000  1
  H  H28  1  0.40396000  0.26646000  0.90943000  1
  H  H29  1  0.50235000  0.20008000  0.99000000  1
  H  H30  1  0.91477000  0.17150000  0.79996000  1
  H  H31  1  0.91414000  0.12927000  0.86879000  1
  H  H32  1  0.04542000  0.16720000  0.72028000  1
  H  H33  1  0.07161000  0.15215000  0.60911000  1
  H  H34  1  0.91956000  0.82250000  0.55770000  1
  H  H35  1  0.89493000  0.82107000  0.66767000  1
  H  H36  1  0.58728000  0.87142000  0.45675000  1
  H  H37  1  0.84009000  0.26578000  0.02473000  1
  H  H38  1  0.69287000  0.09701000  0.87627000  1
  H  H39  1  0.60838000  0.14713000  0.78685000  1
  H  H40  1  0.21423000  0.93393000  0.79124000  1
  H  H41  1  0.31980000  0.89098000  0.88030000  1
  H  H42  1  0.42379000  0.17924000  0.65514000  1
  H  H43  1  0.55694000  0.15440000  0.69733000  1
  H  H44  1  0.30438000  0.27734000  0.64548000  1
  H  H45  1  0.10387000  0.34184000  0.63663000  1
  H  H46  1  0.14610000  0.50306000  0.82732000  1
  H  H47  1  0.35276000  0.44207000  0.84396000  1
  H  H48  1  0.75919000  0.42429000  0.61145000  1
  H  H49  1  0.54723000  0.47677000  0.59165000  1
  H  H50  1  0.55618000  0.61361000  0.79142000  1
  H  H51  1  0.76766000  0.55905000  0.80353000  1
  H  H52  1  0.41025000  0.70574000  0.78098000  1
  H  H53  1  0.30929000  0.74138000  0.72875000  1
  H  H54  1  0.30532000  0.75468000  0.63527000  1
  H  H55  1  0.26841000  0.84060000  0.55423000  1
  H  H56  1  0.66185000  0.03954000  0.59249000  1
  H  H57  1  0.70980000  0.97271000  0.68154000  1
  H  H58  1  0.86507000  0.00348000  0.00252000  1
  H  H59  1  0.98691000  0.94468000  0.07816000  1
  H  H60  1  0.60184000  0.72395000  0.08709000  1
  H  H61  1  0.49847000  0.78928000  0.00725000  1
  H  H62  1  0.09786000  0.82214000  0.19038000  1
  H  H63  1  0.09108000  0.86398000  0.12174000  1
  H  H64  1  0.99693000  0.82128000  0.27163000  1
  H  H65  1  0.97257000  0.83378000  0.38173000  1
  H  H66  1  0.05257000  0.16483000  0.43237000  1
  H  H67  1  0.07595000  0.16802000  0.32231000  1
  H  H68  1  0.27480000  0.14943000  0.47216000  1
  H  H69  1  0.15505000  0.72683000  0.97669000  1
  C  C70  1  0.41852000  0.93034000  0.14348000  1
  C  C71  1  0.47212000  0.90512000  0.19339000  1
  C  C72  1  0.60966000  0.95285000  0.21693000  1
  C  C73  1  0.68645000  0.02428000  0.18693000  1
  C  C74  1  0.62506000  0.04569000  0.13733000  1
  C  C75  1  0.56264000  0.82794000  0.30002000  1
  C  C76  1  0.66527000  0.64634000  0.25625000  1
  C  C77  1  0.73795000  0.66737000  0.31528000  1
  C  C78  1  0.85252000  0.62965000  0.31940000  1
  C  C79  1  0.82876000  0.54586000  0.21227000  1
  C  C80  1  0.71380000  0.58232000  0.20485000  1
  C  C81  1  0.28724000  0.51764000  0.35445000  1
  C  C82  1  0.40499000  0.48951000  0.36809000  1
  C  C83  1  0.47799000  0.44239000  0.31977000  1
  C  C84  1  0.42487000  0.42870000  0.25798000  1
  C  C85  1  0.30547000  0.45717000  0.24744000  1
  C  C86  1  0.62161000  0.28646000  0.27730000  1
  C  C87  1  0.47848000  0.13002000  0.32929000  1
  C  C88  1  0.58282000  0.16884000  0.37874000  1
  C  C89  1  0.57317000  0.12267000  0.42753000  1
  C  C90  1  0.36690000  0.00327000  0.38257000  1
  C  C91  1  0.37121000  0.04237000  0.33132000  1
  C  C92  1  0.18787000  0.05006000  0.97289000  1
  C  C93  1  0.12378000  0.08295000  0.92893000  1
  C  C94  1  0.20051000  0.16167000  0.90413000  1
  C  C95  1  0.33914000  0.20603000  0.92741000  1
  C  C96  1  0.39496000  0.16968000  0.97204000  1
  C  C97  1  0.96467000  0.12928000  0.82573000  1
  C  C98  1  0.96505000  0.99477000  0.70455000  1
  C  C99  1  0.01417000  0.08849000  0.68672000  1
  C  C100  1  0.02914000  0.08145000  0.62433000  1
  C  C101  1  0.94902000  0.89656000  0.59555000  1
  C  C102  1  0.93457000  0.89661000  0.65703000  1
  C  C103  1  0.70071000  0.89533000  0.46550000  1
  C  C104  1  0.78692000  0.18222000  0.99848000  1
  C  C105  1  0.58847000  0.06156000  0.85476000  1
  C  C106  1  0.53933000  0.08946000  0.80500000  1
  C  C107  1  0.40271000  0.04339000  0.77967000  1
  C  C108  1  0.32206000  0.97008000  0.80743000  1
  C  C109  1  0.37914000  0.94593000  0.85707000  1
  C  C110  1  0.45853000  0.17594000  0.70135000  1
  C  C111  1  0.34777000  0.35105000  0.74695000  1
  C  C112  1  0.27466000  0.32595000  0.68784000  1
  C  C113  1  0.15922000  0.36223000  0.68235000  1
  C  C114  1  0.18438000  0.45257000  0.78861000  1
  C  C115  1  0.30052000  0.41830000  0.79732000  1
  C  C116  1  0.71147000  0.46694000  0.64981000  1
  C  C117  1  0.59289000  0.49656000  0.63925000  1
  C  C118  1  0.53207000  0.55251000  0.68942000  1
  C  C119  1  0.59763000  0.57340000  0.74995000  1
  C  C120  1  0.71666000  0.54275000  0.75732000  1
  C  C121  1  0.40262000  0.71453000  0.73383000  1
  C  C122  1  0.51115000  0.85818000  0.66752000  1
  C  C123  1  0.38667000  0.81952000  0.62932000  1
  C  C124  1  0.36587000  0.86629000  0.58275000  1
  C  C125  1  0.58410000  0.97979000  0.60550000  1
  C  C126  1  0.61105000  0.94020000  0.65412000  1
  C  C127  1  0.81169000  0.94055000  0.02190000  1
  C  C128  1  0.87837000  0.90848000  0.06542000  1
  C  C129  1  0.80411000  0.82944000  0.09069000  1
  C  C130  1  0.66489000  0.78452000  0.06866000  1
  C  C131  1  0.60629000  0.82016000  0.02446000  1
  C  C132  1  0.04386000  0.86331000  0.16560000  1
  C  C133  1  0.04106000  0.99481000  0.28639000  1
  C  C134  1  0.01203000  0.90010000  0.30456000  1
  C  C135  1  0.99873000  0.90607000  0.36683000  1
  C  C136  1  0.03978000  0.09103000  0.39474000  1
  C  C137  1  0.05300000  0.09183000  0.33333333  1
  C  C138  1  0.26136000  0.17185000  0.52271000  1
  C  C139  1  0.21486000  0.81111000  0.99746000  1
  S  S140  1  0.69007000  0.93231000  0.28081000  1
  S  S141  1  0.51891000  0.69164000  0.24657000  1
  S  S142  1  0.62854000  0.40945000  0.33898000  1
  S  S143  1  0.46745000  0.17841000  0.26489000  1
  S  S144  1  0.93534000  0.98945000  0.78081000  1
  S  S145  1  0.14015000  0.20892000  0.84594000  1
  S  S146  1  0.32787000  0.06897000  0.71617000  1
  S  S147  1  0.49464000  0.30762000  0.75862000  1
  S  S148  1  0.37849000  0.58532000  0.67524000  1
  S  S149  1  0.55372000  0.81768000  0.73168000  1
  S  S150  1  0.07021000  0.00257000  0.21063000  1
  S  S151  1  0.86888000  0.78239000  0.14795000  1
  N  N152  1  0.49175000  0.99939000  0.11480000  1
  N  N153  1  0.90298000  0.56999000  0.26942000  1
  N  N154  1  0.23289000  0.50124000  0.29419000  1
  N  N155  1  0.46487000  0.04314000  0.43150000  1
  N  N156  1  0.32213000  0.09064000  0.99431000  1
  N  N157  1  0.99523000  0.98749000  0.57827000  1
  N  N158  1  0.51135000  0.99093000  0.88139000  1
  N  N159  1  0.10944000  0.42392000  0.73154000  1
  N  N160  1  0.77758000  0.49021000  0.70862000  1
  N  N161  1  0.46164000  0.94563000  0.57013000  1
  N  N162  1  0.67705000  0.89891000  0.00146000  1
  N  N163  1  0.01344000  0.99940000  0.41243000  1
  O  O164  1  0.75330000  0.99534000  0.49103000  1
  O  O165  1  0.76607000  0.82398000  0.44991000  1
  O  O166  1  0.67521000  0.14167000  0.01837000  1
  O  O167  1  0.84176000  0.13624000  0.95236000  1
  O  O168  1  0.33975000  0.14165000  0.55716000  1
  O  O169  1  0.17363000  0.22278000  0.54104000  1
  O  O170  1  0.32345000  0.84245000  0.97290000  1
  O  O171  1  0.16898000  0.86762000  0.04334000  1
