# generated using pymatgen
data_H20C45(N2O)4
_symmetry_space_group_name_H-M   'P 1'
_cell_length_a   27.93250000
_cell_length_b   27.93250000
_cell_length_c   34.29150000
_cell_angle_alpha   90.00000000
_cell_angle_beta   90.00000000
_cell_angle_gamma   120.00000000
_symmetry_Int_Tables_number   1
_chemical_formula_structural   H20C45(N2O)4
_chemical_formula_sum   'H60 C135 N24 O12'
_cell_volume   23170.57062102
_cell_formula_units_Z   3
loop_
 _symmetry_equiv_pos_site_id
 _symmetry_equiv_pos_as_xyz
  1  'x, y, z'
loop_
 _atom_site_type_symbol
 _atom_site_label
 _atom_site_symmetry_multiplicity
 _atom_site_fract_x
 _atom_site_fract_y
 _atom_site_fract_z
 _atom_site_occupancy
  C  1  1  0.51427350  0.50300650  0.01417000  1
  C  2  1  0.55455800  0.55706900  0.00444200  1
  C  3  1  0.53393100  0.57764900  0.97633500  1
  C  4  1  0.47996700  0.53724500  0.96647900  1
  C  5  1  0.45142850  0.55031350  0.93777400  1
  C  6  1  0.47671400  0.60355600  0.91958800  1
  C  7  1  0.53159100  0.64270400  0.93090200  1
  C  8  1  0.56018450  0.63025150  0.95902000  1
  C  9  1  0.60699650  0.58351550  0.02200300  1
  C  10  1  0.61938100  0.55504200  0.05026700  1
  C  11  1  0.58029350  0.50012450  0.06153200  1
  C  12  1  0.52725850  0.47459950  0.04303100  1
  C  13  1  0.41182000  0.46896400  0.01417600  1
  C  14  1  0.37154150  0.41489650  0.00445900  1
  C  15  1  0.39216700  0.39431600  0.97635000  1
  C  16  1  0.44611400  0.43473700  0.96647000  1
  C  17  1  0.36591800  0.34171100  0.95904100  1
  C  18  1  0.39450600  0.32926100  0.93091400  1
  C  19  1  0.44936750  0.36842650  0.91957900  1
  C  20  1  0.47465700  0.42166600  0.93776900  1
  C  21  1  0.39883050  0.49737550  0.04303100  1
  C  22  1  0.34579700  0.47185400  0.06153200  1
  C  23  1  0.30671850  0.41692550  0.05028400  1
  C  24  1  0.31910700  0.38844600  0.02202600  1
  C  37  1  0.46304400  0.48598900  0.99029900  1
  C  38  1  0.47547350  0.35439050  0.89025100  1
  C  39  1  0.33233150  0.49742450  0.09158900  1
  C  40  1  0.59375300  0.47457000  0.09160000  1
  C  41  1  0.45062950  0.61758650  0.89024100  1
  C  46  1  0.92883350  0.43475850  0.34749700  1
  C  47  1  0.94262050  0.39447950  0.33778100  1
  C  48  1  0.98383500  0.41510600  0.30967800  1
  C  49  1  0.99738100  0.46906400  0.29980900  1
  C  50  1  0.03898250  0.49759750  0.27110000  1
  C  51  1  0.06693050  0.47230650  0.25291100  1
  C  52  1  0.05122400  0.41744000  0.26424100  1
  C  53  1  0.01017850  0.38885050  0.29236100  1
  C  54  1  0.91662250  0.34203950  0.35533900  1
  C  55  1  0.87573800  0.32964500  0.38358200  1
  C  56  1  0.85990150  0.36873150  0.39483900  1
  C  57  1  0.88742150  0.42176850  0.37634100  1
  C  58  1  0.99724800  0.53721500  0.34750000  1
  C  59  1  0.98346100  0.57749200  0.33778100  1
  C  60  1  0.94225200  0.55686500  0.30967500  1
  C  61  1  0.92872150  0.50291450  0.29979800  1
  C  62  1  0.91589500  0.58311400  0.29236400  1
  C  63  1  0.87485000  0.55451900  0.26424400  1
  C  64  1  0.85914200  0.49965300  0.25291700  1
  C  65  1  0.88710500  0.47437200  0.27109700  1
  C  66  1  0.03865200  0.55020700  0.37635300  1
  C  67  1  0.06616850  0.60324350  0.39485000  1
  C  68  1  0.05031950  0.64232050  0.38360000  1
  C  69  1  0.00944200  0.62992700  0.35534800  1
  C  82  1  0.96304550  0.48598850  0.32362600  1
  C  83  1  0.81903000  0.47356900  0.22356900  1
  C  84  1  0.10519150  0.61671250  0.42491600  1
  C  85  1  0.82084400  0.35525700  0.42488400  1
  C  86  1  0.10706400  0.49840500  0.22357800  1
  C  91  1  0.44602450  0.02019150  0.68084800  1
  C  92  1  0.39196150  0.00641250  0.67112300  1
  C  93  1  0.37138050  0.96520750  0.64301100  1
  C  94  1  0.41178900  0.95165600  0.63314800  1
  C  95  1  0.39872350  0.91005850  0.60443600  1
  C  96  1  0.34548900  0.88212000  0.58623900  1
  C  97  1  0.30633000  0.89782700  0.59756800  1
  C  98  1  0.31878050  0.93886350  0.62569500  1
  C  99  1  0.36550950  0.03239450  0.68869000  1
  C  100  1  0.39398950  0.07326050  0.71694900  1
  C  101  1  0.44890800  0.08909500  0.72820800  1
  C  102  1  0.47443200  0.06158300  0.70970700  1
  C  103  1  0.48006400  0.95177500  0.68084500  1
  C  104  1  0.53412250  0.96554550  0.67111100  1
  C  105  1  0.55470100  0.00675200  0.64300200  1
  C  106  1  0.51429700  0.02031200  0.63314500  1
  C  107  1  0.60729500  0.03308400  0.62567400  1
  C  108  1  0.61974500  0.07412600  0.59755400  1
  C  109  1  0.58059800  0.08985500  0.58623900  1
  C  110  1  0.52736200  0.06191300  0.60443600  1
  C  111  1  0.45166600  0.91039700  0.70971500  1
  C  112  1  0.47719250  0.88288650  0.72821400  1
  C  113  1  0.53210200  0.89870500  0.71694100  1
  C  114  1  0.56057400  0.93956200  0.68867500  1
  C  127  1  0.46304450  0.98598350  0.65697300  1
  C  128  1  0.59463050  0.12997350  0.55689300  1
  C  129  1  0.45165550  0.84389350  0.75829800  1
  C  130  1  0.47447050  0.12812150  0.75827100  1
  C  131  1  0.33145250  0.84199550  0.55689600  1
  C  136  1  0.46810000  0.27365700  0.85516200  1
  C  137  1  0.48968500  0.29125600  0.81717300  1
  C  138  1  0.48852050  0.25378950  0.78933300  1
  C  139  1  0.46868850  0.19730950  0.79750400  1
  C  140  1  0.44720300  0.17979600  0.83546300  1
  C  141  1  0.44659000  0.21676500  0.86285800  1
  C  144  1  0.51662750  0.33266250  0.76349700  1
  C  147  1  0.40445100  0.13459400  0.88518600  1
  C  152  1  0.74565600  0.48092100  0.18848100  1
  C  153  1  0.74168400  0.45934700  0.15049200  1
  C  154  1  0.70538150  0.46050650  0.12264900  1
  C  155  1  0.66872550  0.48032850  0.13082000  1
  C  156  1  0.67268350  0.50180450  0.16878000  1
  C  157  1  0.71026350  0.50241850  0.19617700  1
  C  160  1  0.75616550  0.43242050  0.09681400  1
  C  163  1  0.67021500  0.54454400  0.21850300  1
  C  168  1  0.67537250  0.20335550  0.52182000  1
  C  169  1  0.65778100  0.20738000  0.48383700  1
  C  170  1  0.69526150  0.24369450  0.45600500  1
  C  171  1  0.75174600  0.28030900  0.46418500  1
  C  172  1  0.76924750  0.27629650  0.50213600  1
  C  173  1  0.73226650  0.23870950  0.52952200  1
  C  176  1  0.61638800  0.19296900  0.43015900  1
  C  179  1  0.81443550  0.27868650  0.55185100  1
  C  184  1  0.45798050  0.69830650  0.85515050  1
  C  185  1  0.43642050  0.68069750  0.81715700  1
  C  186  1  0.43757900  0.71815300  0.78931000  1
  C  187  1  0.45737750  0.77462650  0.79747500  1
  C  188  1  0.47883650  0.79215050  0.83543950  1
  C  189  1  0.47945900  0.75519600  0.86284300  1
  C  192  1  0.40951900  0.63928400  0.76348100  1
  C  195  1  0.52155100  0.83736900  0.88516800  1
  C  200  1  0.18042300  0.49102500  0.18848700  1
  C  201  1  0.18441700  0.51262900  0.15050400  1
  C  202  1  0.22072100  0.51146800  0.12266300  1
  C  203  1  0.25735350  0.49161550  0.13082600  1
  C  204  1  0.25336850  0.47010950  0.16877700  1
  C  205  1  0.21579100  0.46949800  0.19617700  1
  C  208  1  0.16998100  0.53961500  0.09683800  1
  C  211  1  0.25580550  0.42733450  0.21849200  1
  C  216  1  0.25071750  0.76861650  0.52181800  1
  C  217  1  0.26830850  0.76460950  0.48383100  1
  C  218  1  0.23082950  0.72829450  0.45600000  1
  C  219  1  0.17434950  0.69166650  0.46417600  1
  C  220  1  0.15684800  0.69566300  0.50213300  1
  C  221  1  0.19382550  0.73325050  0.52952200  1
  C  224  1  0.30970000  0.77904300  0.43015300  1
  C  227  1  0.11165650  0.69325350  0.55185400  1
  H  25  1  0.26853550  0.39617950  0.06305400  1
  H  26  1  0.29017350  0.34886550  0.01480900  1
  H  27  1  0.32647850  0.31262550  0.96645400  1
  H  28  1  0.37399550  0.29085650  0.91845000  1
  H  29  1  0.51400300  0.45109600  0.93034200  1
  H  30  1  0.42828900  0.53669400  0.05050300  1
  H  31  1  0.41208000  0.52088500  0.93034900  1
  H  32  1  0.55211350  0.68110150  0.91842200  1
  H  33  1  0.59963950  0.65932350  0.96641200  1
  H  34  1  0.49779350  0.43529050  0.05051100  1
  H  35  1  0.63594200  0.62308500  0.01476800  1
  H  36  1  0.65757150  0.57577850  0.06302800  1
  H  42  1  0.36257200  0.52812700  0.10655400  1
  H  43  1  0.50653250  0.38421350  0.87532200  1
  H  44  1  0.56351400  0.44383300  0.10654300  1
  H  45  1  0.41956850  0.58775750  0.87531800  1
  H  70  1  0.06776450  0.68050950  0.39636100  1
  H  71  1  0.99881450  0.65887150  0.34811300  1
  H  72  1  0.92626400  0.62256100  0.29976600  1
  H  73  1  0.85697600  0.57504100  0.25176500  1
  H  74  1  0.87719250  0.43502550  0.26366900  1
  H  75  1  0.04850600  0.52074700  0.38383000  1
  H  76  1  0.04889650  0.53694350  0.26366900  1
  H  77  1  0.06910750  0.39692250  0.25176800  1
  H  78  1  0.99981450  0.34940650  0.29976800  1
  H  79  1  0.87756150  0.45122550  0.38381000  1
  H  80  1  0.92726400  0.31310300  0.34811900  1
  H  81  1  0.85829750  0.29145850  0.39634900  1
  H  87  1  0.10582400  0.58647500  0.43977100  1
  H  88  1  0.81775600  0.44247100  0.20866700  1
  H  89  1  0.82018650  0.38548950  0.43972400  1
  H  90  1  0.10829550  0.52945850  0.20864400  1
  H  115  1  0.55284650  0.88126150  0.72970600  1
  H  116  1  0.60013850  0.95017750  0.68143400  1
  H  117  1  0.63637150  0.02271150  0.63307200  1
  H  118  1  0.65814250  0.09199950  0.58507500  1
  H  119  1  0.49793400  0.07183300  0.59701400  1
  H  120  1  0.41236300  0.90056000  0.71720600  1
  H  121  1  0.42815200  0.90014100  0.59700800  1
  H  122  1  0.26793150  0.87995050  0.58509600  1
  H  123  1  0.28970250  0.94923150  0.63309900  1
  H  124  1  0.51374350  0.07143450  0.71718500  1
  H  125  1  0.32594400  0.02177900  0.68144900  1
  H  126  1  0.37325100  0.09071600  0.72970500  1
  H  132  1  0.42099400  0.84347300  0.77329150  1
  H  133  1  0.56480750  0.13130050  0.54203000  1
  H  134  1  0.50523900  0.12865200  0.77319300  1
  H  135  1  0.36127450  0.84066550  0.54203500  1
  H  148  1  0.52878400  0.36223100  0.74236800  1
  H  149  1  0.38171950  0.10254450  0.90376700  1
  H  164  1  0.77358800  0.42027500  0.07568700  1
  H  165  1  0.66089050  0.56726950  0.23708500  1
  H  180  1  0.58682300  0.17557600  0.40902600  1
  H  181  1  0.84647900  0.28797200  0.57043300  1
  H  196  1  0.39738200  0.60971400  0.74235400  1
  H  197  1  0.54426250  0.86942350  0.90375100  1
  H  212  1  0.15258150  0.55179250  0.07571300  1
  H  213  1  0.26511450  0.40459350  0.23707100  1
  H  228  1  0.33926250  0.79644750  0.40902000  1
  H  229  1  0.07961250  0.68395750  0.57043300  1
  N  142  1  0.50515100  0.28089200  0.75567300  1
  N  145  1  0.41905000  0.18701700  0.89385900  1
  N  150  1  0.45819150  0.30348350  0.88098200  1
  N  151  1  0.45634000  0.16056700  0.76892400  1
  N  158  1  0.71586750  0.44388850  0.08899000  1
  N  161  1  0.70804650  0.52995350  0.22717900  1
  N  166  1  0.78539750  0.49084450  0.21429800  1
  N  167  1  0.64433050  0.49267350  0.10223600  1
  N  174  1  0.66816700  0.23325200  0.42234400  1
  N  177  1  0.76200300  0.24087400  0.56051800  1
  N  182  1  0.64553650  0.16359150  0.54761700  1
  N  183  1  0.78850650  0.30469550  0.43561300  1
  N  190  1  0.42097250  0.69104550  0.75565000  1
  N  193  1  0.50697400  0.78495100  0.89384600  1
  N  198  1  0.46789800  0.66849400  0.88097700  1
  N  199  1  0.46970350  0.81135550  0.76888600  1
  N  206  1  0.21026400  0.52812500  0.08900800  1
  N  209  1  0.21798900  0.44194400  0.22717000  1
  N  214  1  0.14069200  0.48112300  0.21431000  1
  N  215  1  0.28175300  0.47929200  0.10223600  1
  N  222  1  0.25792550  0.73875450  0.42233800  1
  N  225  1  0.16408650  0.73107150  0.56051800  1
  N  230  1  0.28054700  0.80838000  0.54761700  1
  N  231  1  0.13758800  0.66727900  0.43561000  1
  O  143  1  0.50647850  0.34172950  0.80106400  1
  O  146  1  0.41946150  0.12677250  0.84876800  1
  O  159  1  0.77537400  0.44256500  0.13438400  1
  O  162  1  0.64739250  0.52953550  0.18208300  1
  O  175  1  0.60730750  0.17372650  0.46772000  1
  O  178  1  0.82227150  0.30154450  0.51544300  1
  O  191  1  0.41965800  0.63022800  0.80105300  1
  O  194  1  0.50654900  0.84517500  0.84874400  1
  O  207  1  0.15075700  0.52944900  0.13440100  1
  O  210  1  0.27864100  0.44235400  0.18207800  1
  O  223  1  0.31877700  0.79827400  0.46771700  1
  O  226  1  0.10382650  0.67040350  0.51544300  1
