# generated using pymatgen
data_H32C37N8
_symmetry_space_group_name_H-M   'P 1'
_cell_length_a   23.61100000
_cell_length_b   36.75945000
_cell_length_c   36.75940000
_cell_angle_alpha   119.99986502
_cell_angle_beta   90.00000000
_cell_angle_gamma   90.00000000
_symmetry_Int_Tables_number   1
_chemical_formula_structural   H32C37N8
_chemical_formula_sum   'H192 C222 N48'
_cell_volume   27630.13599272
_cell_formula_units_Z   6
loop_
 _symmetry_equiv_pos_site_id
 _symmetry_equiv_pos_as_xyz
  1  'x, y, z'
loop_
 _atom_site_type_symbol
 _atom_site_label
 _atom_site_symmetry_multiplicity
 _atom_site_fract_x
 _atom_site_fract_y
 _atom_site_fract_z
 _atom_site_occupancy
  C  1  1  0.14988200  0.54545700  0.54562100  1
  C  2  1  0.10473600  0.55380200  0.52570400  1
  C  3  1  0.05685200  0.57622200  0.54872800  1
  C  4  1  0.04969400  0.58885500  0.59192200  1
  C  5  1  0.09731600  0.58268300  0.61188200  1
  C  6  1  0.14615700  0.56129600  0.58933900  1
  C  7  1  0.99501200  0.61150400  0.61487800  1
  C  8  1  0.00510400  0.65476400  0.61901100  1
  C  9  1  0.05097000  0.68015000  0.64387000  1
  C  10  1  0.06799800  0.71673600  0.64364000  1
  C  11  1  0.03706000  0.73247700  0.62149200  1
  C  12  1  0.98891700  0.70903500  0.59895400  1
  C  13  1  0.97506200  0.67039900  0.59621300  1
  C  14  1  0.94218400  0.58684500  0.59029800  1
  C  15  1  0.98408800  0.61541000  0.65787800  1
  C  16  1  0.95233700  0.64938500  0.68955700  1
  C  17  1  0.93275200  0.64957300  0.72586500  1
  C  18  1  0.94665300  0.61694800  0.73414900  1
  C  19  1  0.97911100  0.58328300  0.70317700  1
  C  20  1  0.99406700  0.58145400  0.66516800  1
  C  21  1  0.94329000  0.54283100  0.56128100  1
  C  22  1  0.89520600  0.52047800  0.53858500  1
  C  23  1  0.84182000  0.54022400  0.54638000  1
  C  24  1  0.83847000  0.58297900  0.57780600  1
  C  25  1  0.88743000  0.60552000  0.59903700  1
  C  42  1  0.81653500  0.99249100  0.44843200  1
  C  43  1  0.77139100  0.96422100  0.44005900  1
  C  44  1  0.72353300  0.96481200  0.41760900  1
  C  45  1  0.71634100  0.99543200  0.40505300  1
  C  46  1  0.76396300  0.02157300  0.41125300  1
  C  47  1  0.81280800  0.02040100  0.43262600  1
  C  48  1  0.66167200  0.99574700  0.38239900  1
  C  49  1  0.67175200  0.95663600  0.33912300  1
  C  50  1  0.71766500  0.95609500  0.31376300  1
  C  51  1  0.73470400  0.91928500  0.27717900  1
  C  52  1  0.70373300  0.88140600  0.26140500  1
  C  53  1  0.65558400  0.88230200  0.28483600  1
  C  54  1  0.64171900  0.91819400  0.32347400  1
  C  55  1  0.60884800  0.99579100  0.40703900  1
  C  56  1  0.65078600  0.03484700  0.37851100  1
  C  57  1  0.61896700  0.03260200  0.34457900  1
  C  58  1  0.59937800  0.06872600  0.34440200  1
  C  59  1  0.61324800  0.10963100  0.37705200  1
  C  60  1  0.64563200  0.11229200  0.41073000  1
  C  61  1  0.66066900  0.07609700  0.41250200  1
  C  62  1  0.60993200  0.01078700  0.45105400  1
  C  63  1  0.56183600  0.01045900  0.47340500  1
  C  64  1  0.50845200  0.99851600  0.45365600  1
  C  65  1  0.50511200  0.98722300  0.41091000  1
  C  66  1  0.55407900  0.98591400  0.38837900  1
  C  83  1  0.48321000  0.44831700  0.00137300  1
  C  84  1  0.43807200  0.46821900  0.02964300  1
  C  85  1  0.39020800  0.44518400  0.02905900  1
  C  86  1  0.38301700  0.40200200  0.99844800  1
  C  87  1  0.43064300  0.38205600  0.97231700  1
  C  88  1  0.47948400  0.40460000  0.97347800  1
  C  89  1  0.32835200  0.37903600  0.99814900  1
  C  90  1  0.33844000  0.37488400  0.03726500  1
  C  91  1  0.38437200  0.35008500  0.03781800  1
  C  92  1  0.40141500  0.35032800  0.07463800  1
  C  93  1  0.37043000  0.37242700  0.11250900  1
  C  94  1  0.32225000  0.39492500  0.11159600  1
  C  95  1  0.30839000  0.39766400  0.07570000  1
  C  96  1  0.27552000  0.40362200  0.99809500  1
  C  97  1  0.31747600  0.33603900  0.95905700  1
  C  98  1  0.28566000  0.30435800  0.96131400  1
  C  99  1  0.26606700  0.26805000  0.92519400  1
  C  100  1  0.27994600  0.25978200  0.88428900  1
  C  101  1  0.31234600  0.29078300  0.88161200  1
  C  102  1  0.32734800  0.32876800  0.91780100  1
  C  103  1  0.27659400  0.43263100  0.98308600  1
  C  104  1  0.22849200  0.45530000  0.98340500  1
  C  105  1  0.17511400  0.44750400  0.99536700  1
  C  106  1  0.17178500  0.41605700  0.00667300  1
  C  107  1  0.22075800  0.39483800  0.00798000  1
  C  124  1  0.64988400  0.44536600  0.45135500  1
  C  125  1  0.60473100  0.43700100  0.47124900  1
  C  126  1  0.55687200  0.41455300  0.44820600  1
  C  127  1  0.54968900  0.40199900  0.40502800  1
  C  128  1  0.59733200  0.40817000  0.38508600  1
  C  129  1  0.64616900  0.42955100  0.40763900  1
  C  130  1  0.49501600  0.37934600  0.38206700  1
  C  131  1  0.50507000  0.33607200  0.37791000  1
  C  132  1  0.55096000  0.31069700  0.35306500  1
  C  133  1  0.56804500  0.27415200  0.35335400  1
  C  134  1  0.53708500  0.25838500  0.37547100  1
  C  135  1  0.48895900  0.28183600  0.39802600  1
  C  136  1  0.47505600  0.32044600  0.40072900  1
  C  137  1  0.44220100  0.40400800  0.40666000  1
  C  138  1  0.48413700  0.37544600  0.33907100  1
  C  139  1  0.45228600  0.34152600  0.30740000  1
  C  140  1  0.43268200  0.34135400  0.27110400  1
  C  141  1  0.44659300  0.37398300  0.26283100  1
  C  142  1  0.47909000  0.40762000  0.29379800  1
  C  143  1  0.49405800  0.40941700  0.33179200  1
  C  144  1  0.44329000  0.44801800  0.43569000  1
  C  145  1  0.39518900  0.47036800  0.45836300  1
  C  146  1  0.34181200  0.45061400  0.45056800  1
  C  147  1  0.33847200  0.40786800  0.41911300  1
  C  148  1  0.38743800  0.38533700  0.39788400  1
  C  165  1  0.31653500  0.99834200  0.54852700  1
  C  166  1  0.27137400  0.02659000  0.55686900  1
  C  167  1  0.22351100  0.02599800  0.57931200  1
  C  168  1  0.21634000  0.99539900  0.59190100  1
  C  169  1  0.26399600  0.96930900  0.58576500  1
  C  170  1  0.31283400  0.97047000  0.56437800  1
  C  171  1  0.16167100  0.99509800  0.61456300  1
  C  172  1  0.17173800  0.03421800  0.65783200  1
  C  173  1  0.21761400  0.03474500  0.68321600  1
  C  174  1  0.23470400  0.07158100  0.71976000  1
  C  175  1  0.20376600  0.10947200  0.73551500  1
  C  176  1  0.15564400  0.10857800  0.71206000  1
  C  177  1  0.14176100  0.07267700  0.67343900  1
  C  178  1  0.10885400  0.99502800  0.58990000  1
  C  179  1  0.15078600  0.95598000  0.61842600  1
  C  180  1  0.11894500  0.95826800  0.65236900  1
  C  181  1  0.09934800  0.92215300  0.65256300  1
  C  182  1  0.11326600  0.88124200  0.61995500  1
  C  183  1  0.14572100  0.87854800  0.58628800  1
  C  184  1  0.16075200  0.91472700  0.58448300  1
  C  185  1  0.10993200  0.98000300  0.54588200  1
  C  186  1  0.06183200  0.98031700  0.52352800  1
  C  187  1  0.00846300  0.99232400  0.54329400  1
  C  188  1  0.00513400  0.00365800  0.58605300  1
  C  189  1  0.05409800  0.00495900  0.60858300  1
  C  206  1  0.98318300  0.54253000  0.99553100  1
  C  207  1  0.93804100  0.52264200  0.96725900  1
  C  208  1  0.89018700  0.54568900  0.96785900  1
  C  209  1  0.88302700  0.58887600  0.99846200  1
  C  210  1  0.93064300  0.60880500  0.02461100  1
  C  211  1  0.97946800  0.58624400  0.02344800  1
  C  212  1  0.82835200  0.61184800  0.99879200  1
  C  213  1  0.83841600  0.61601400  0.95968100  1
  C  214  1  0.88430400  0.64086700  0.95916600  1
  C  215  1  0.90139700  0.64059300  0.92233900  1
  C  216  1  0.87043800  0.61848900  0.88445300  1
  C  217  1  0.82230800  0.59593200  0.88533700  1
  C  218  1  0.80843300  0.59318500  0.92122500  1
  C  219  1  0.77553900  0.58725000  0.99885300  1
  C  220  1  0.81746600  0.65482900  0.03791600  1
  C  221  1  0.78568000  0.68650500  0.03562500  1
  C  222  1  0.76603300  0.72279100  0.07174200  1
  C  223  1  0.77994600  0.73109300  0.11265300  1
  C  224  1  0.81238000  0.70011200  0.11534600  1
  C  225  1  0.82740300  0.66212600  0.07916600  1
  C  226  1  0.77662700  0.55824500  0.01386600  1
  C  227  1  0.72853800  0.53555400  0.01352500  1
  C  228  1  0.67515900  0.54334100  0.00156000  1
  C  229  1  0.67181800  0.57477200  0.99023500  1
  C  230  1  0.72078000  0.59600500  0.98893600  1
  C  247  1  0.29269000  0.47377200  0.47366000  1
  C  248  1  0.26203500  0.46107700  0.49898500  1
  C  249  1  0.21020600  0.48188800  0.51823500  1
  C  250  1  0.19818800  0.52171200  0.52198300  1
  C  251  1  0.23345100  0.53738800  0.50134000  1
  C  252  1  0.27561000  0.51052400  0.47256600  1
  C  265  1  0.95933700  0.99224200  0.52013400  1
  C  266  1  0.92868300  0.03026200  0.53281000  1
  C  267  1  0.87682400  0.02868900  0.51202200  1
  C  268  1  0.86481800  0.99260400  0.47219900  1
  C  269  1  0.90007700  0.95628500  0.45653700  1
  C  270  1  0.94223000  0.95438000  0.48341200  1
  C  283  1  0.62604300  0.52025000  0.00162900  1
  C  284  1  0.59542200  0.49488400  0.96360100  1
  C  285  1  0.54356200  0.47566300  0.96516200  1
  C  286  1  0.53151600  0.47195900  0.00126400  1
  C  287  1  0.56676200  0.49262200  0.03759600  1
  C  288  1  0.60891600  0.52139000  0.03948400  1
  C  301  1  0.79270900  0.51705200  0.52328400  1
  C  302  1  0.76205600  0.52972900  0.49794100  1
  C  303  1  0.71018700  0.50894400  0.47873900  1
  C  304  1  0.69817000  0.46912800  0.47501000  1
  C  305  1  0.73342900  0.45346200  0.49566500  1
  C  306  1  0.77560700  0.48032700  0.52441500  1
  C  319  1  0.45932800  0.99859700  0.47681900  1
  C  320  1  0.42866500  0.96057700  0.46413000  1
  C  321  1  0.37683800  0.96214700  0.48495000  1
  C  322  1  0.36483000  0.99823200  0.52477000  1
  C  323  1  0.40009400  0.03455000  0.54043700  1
  C  324  1  0.44225600  0.03644700  0.51356700  1
  C  337  1  0.12598200  0.47057400  0.99528000  1
  C  338  1  0.09531200  0.49590000  0.03329400  1
  C  339  1  0.04345200  0.51511600  0.03171800  1
  C  340  1  0.03146000  0.51886700  0.99564100  1
  C  341  1  0.06673600  0.49822500  0.95932700  1
  C  342  1  0.10889500  0.46945200  0.95742500  1
  C  355  1  0.09353400  0.84406900  0.62043300  1
  C  356  1  0.06752400  0.81009900  0.58422300  1
  C  357  1  0.05918200  0.77084900  0.58272100  1
  C  358  1  0.05503400  0.77009100  0.62116600  1
  C  359  1  0.07029800  0.80729000  0.65927600  1
  C  360  1  0.09926000  0.84036700  0.65719000  1
  C  373  1  0.76021500  0.76874900  0.14982500  1
  C  374  1  0.73423100  0.76651500  0.18381000  1
  C  375  1  0.72590500  0.80427200  0.22305900  1
  C  376  1  0.72173700  0.84346500  0.22380600  1
  C  377  1  0.73700900  0.84436900  0.18661000  1
  C  378  1  0.76594000  0.80920400  0.15351800  1
  C  391  1  0.42691000  0.37350800  0.22517000  1
  C  392  1  0.40094700  0.40973000  0.22740100  1
  C  393  1  0.39258400  0.41120500  0.18964200  1
  C  394  1  0.38841700  0.37276400  0.15045000  1
  C  395  1  0.40367600  0.33466500  0.14955300  1
  C  396  1  0.43261800  0.33673800  0.18471200  1
  C  409  1  0.59357900  0.14681900  0.37657200  1
  C  410  1  0.56758800  0.18080600  0.41278200  1
  C  411  1  0.55927000  0.22005400  0.41427400  1
  C  412  1  0.55510600  0.22079500  0.37582400  1
  C  413  1  0.57039200  0.18359700  0.33773200  1
  C  414  1  0.59934800  0.15051300  0.33981000  1
  C  427  1  0.26023300  0.22212600  0.84710700  1
  C  428  1  0.23420000  0.22436300  0.81314400  1
  C  429  1  0.22587400  0.18661800  0.77389100  1
  C  430  1  0.22176200  0.14741200  0.77312500  1
  C  431  1  0.23704700  0.14649800  0.81031700  1
  C  432  1  0.26600000  0.18166600  0.84339300  1
  C  445  1  0.92693800  0.61742500  0.77180500  1
  C  446  1  0.90094600  0.58120800  0.76956800  1
  C  447  1  0.89262300  0.57971100  0.80732200  1
  C  448  1  0.88845500  0.61815400  0.84651800  1
  C  449  1  0.90374000  0.65625500  0.84742800  1
  C  450  1  0.93267200  0.65418300  0.81226500  1
  H  26  1  0.90790000  0.67407400  0.74645200  1
  H  27  1  0.94015600  0.67377200  0.68548000  1
  H  28  1  0.98942100  0.55836900  0.70699200  1
  H  29  1  0.01256700  0.55447600  0.64246700  1
  H  30  1  0.97970000  0.52592200  0.55580600  1
  H  31  1  0.89922600  0.48921600  0.51697200  1
  H  32  1  0.80031700  0.59821000  0.58502100  1
  H  33  1  0.88255200  0.63646400  0.62105400  1
  H  34  1  0.94340000  0.65329700  0.57604500  1
  H  35  1  0.96521200  0.71876300  0.58210100  1
  H  36  1  0.10362000  0.73195100  0.66004300  1
  H  37  1  0.07499600  0.67068500  0.66075300  1
  H  38  1  0.09753600  0.59426600  0.64353800  1
  H  39  1  0.02540800  0.58168100  0.53291700  1
  H  40  1  0.10639800  0.54359000  0.49422300  1
  H  41  1  0.17890400  0.55698400  0.60503400  1
  H  67  1  0.57454800  0.06482200  0.31989500  1
  H  68  1  0.60681500  0.00414900  0.32016100  1
  H  69  1  0.65602700  0.14101300  0.43562700  1
  H  70  1  0.67918400  0.08035900  0.43946900  1
  H  71  1  0.64634400  0.02219700  0.46796400  1
  H  72  1  0.56585600  0.02008100  0.50466100  1
  H  73  1  0.46695400  0.97924300  0.39568000  1
  H  74  1  0.54920600  0.97701000  0.35743900  1
  H  75  1  0.61004200  0.91512600  0.34056300  1
  H  76  1  0.63187700  0.85572300  0.27510000  1
  H  77  1  0.77034900  0.92046600  0.26198200  1
  H  78  1  0.74170900  0.98244100  0.32324700  1
  H  79  1  0.76418100  0.04167100  0.39969700  1
  H  80  1  0.69206100  0.94357500  0.41218500  1
  H  81  1  0.77304700  0.94294200  0.45025800  1
  H  82  1  0.84553900  0.04042700  0.43697400  1
  H  108  1  0.24122700  0.24745700  0.92910600  1
  H  109  1  0.27350600  0.30840400  0.98977000  1
  H  110  1  0.32267800  0.28697500  0.85288500  1
  H  111  1  0.34584600  0.35147200  0.91353100  1
  H  112  1  0.31300300  0.43812500  0.97166800  1
  H  113  1  0.23250200  0.47692500  0.97377200  1
  H  114  1  0.13363400  0.40881100  0.01465900  1
  H  115  1  0.21588800  0.37281000  0.01689000  1
  H  116  1  0.27669600  0.41780700  0.07876100  1
  H  117  1  0.29852600  0.41175400  0.13816900  1
  H  118  1  0.43706800  0.33396100  0.07346500  1
  H  119  1  0.40842400  0.33322700  0.01147700  1
  H  120  1  0.43085200  0.35040400  0.95221500  1
  H  121  1  0.35873800  0.46099900  0.05029500  1
  H  122  1  0.43972800  0.49969800  0.05091900  1
  H  123  1  0.51221300  0.38891500  0.95344900  1
  H  149  1  0.40781000  0.31686400  0.25052200  1
  H  150  1  0.44010600  0.31712200  0.31145000  1
  H  151  1  0.48941800  0.43254100  0.28999600  1
  H  152  1  0.51258000  0.43638600  0.35449200  1
  H  153  1  0.47970700  0.46492600  0.44119800  1
  H  154  1  0.39921700  0.50161400  0.48002200  1
  H  155  1  0.30031800  0.39263700  0.41187400  1
  H  156  1  0.38256400  0.35439900  0.37585600  1
  H  157  1  0.44338000  0.33753800  0.42088300  1
  H  158  1  0.46522400  0.27207300  0.41483600  1
  H  159  1  0.60369800  0.25895900  0.33698500  1
  H  160  1  0.57505800  0.32021100  0.33625700  1
  H  161  1  0.59754800  0.39662200  0.35343400  1
  H  162  1  0.52539100  0.40913500  0.46401600  1
  H  163  1  0.60637900  0.44720300  0.50272800  1
  H  164  1  0.67891200  0.43388800  0.39196000  1
  H  190  1  0.07447800  0.92607200  0.67706100  1
  H  191  1  0.10676200  0.98672600  0.67676200  1
  H  192  1  0.15610200  0.84981400  0.56140800  1
  H  193  1  0.17929800  0.91044600  0.55751900  1
  H  194  1  0.14634200  0.96857600  0.52897000  1
  H  195  1  0.06584700  0.97069500  0.49227300  1
  H  196  1  0.96698500  0.01167400  0.60129100  1
  H  197  1  0.04923000  0.01389200  0.63952900  1
  H  198  1  0.11006200  0.07573200  0.65635900  1
  H  199  1  0.13190600  0.13515000  0.72182700  1
  H  200  1  0.27034000  0.07039400  0.73496100  1
  H  201  1  0.24169000  0.00841400  0.67371300  1
  H  202  1  0.26422200  0.94922300  0.59733600  1
  H  203  1  0.19203400  0.04722800  0.58471900  1
  H  204  1  0.27302000  0.04785500  0.54664900  1
  H  205  1  0.34559000  0.95047400  0.56006900  1
  H  231  1  0.74115500  0.74336300  0.06782200  1
  H  232  1  0.77342400  0.68241200  0.00716900  1
  H  233  1  0.82274500  0.70395900  0.14408100  1
  H  234  1  0.84592100  0.63943200  0.08344600  1
  H  235  1  0.81303700  0.55276400  0.02529400  1
  H  236  1  0.73254900  0.51394400  0.02317700  1
  H  237  1  0.63366300  0.58199900  0.98223100  1
  H  238  1  0.71590500  0.61802700  0.98001400  1
  H  239  1  0.77673200  0.57304600  0.91816100  1
  H  240  1  0.79857800  0.57911400  0.85876200  1
  H  241  1  0.93704700  0.65696900  0.92352500  1
  H  242  1  0.90839500  0.65767600  0.98549300  1
  H  243  1  0.93086500  0.64045600  0.04472100  1
  H  244  1  0.85871900  0.52988300  0.94661200  1
  H  245  1  0.93968700  0.49116400  0.94597800  1
  H  246  1  0.01219800  0.60191500  0.04347900  1
  H  254  1  0.17577000  0.43403800  0.52442000  1
  H  255  1  0.13485300  0.47511300  0.54220300  1
  H  257  1  0.31998200  0.41818100  0.49651200  1
  H  258  1  0.26675800  0.42548300  0.52758200  1
  H  260  1  0.20286800  0.59781600  0.53154600  1
  H  261  1  0.25634300  0.59086200  0.50069700  1
  H  263  1  0.32244800  0.49959600  0.42109100  1
  H  264  1  0.28155200  0.54066400  0.43848400  1
  H  272  1  0.84238000  0.08249900  0.55996400  1
  H  273  1  0.80139400  0.05920600  0.51886000  1
  H  275  1  0.98666900  0.07070600  0.57564800  1
  H  276  1  0.93340400  0.09445800  0.56835500  1
  H  278  1  0.86954900  0.92605500  0.39609400  1
  H  279  1  0.92301900  0.90217000  0.40308100  1
  H  281  1  0.98895000  0.91384400  0.49442000  1
  H  282  1  0.94778400  0.89025800  0.45345700  1
  H  290  1  0.50916200  0.46976800  0.91132900  1
  H  291  1  0.46814200  0.45198000  0.93462800  1
  H  293  1  0.65343000  0.49728300  0.92317200  1
  H  294  1  0.60019200  0.46621600  0.89940900  1
  H  296  1  0.53639000  0.46228000  0.06764400  1
  H  297  1  0.58996800  0.49313300  0.09149500  1
  H  299  1  0.65591100  0.57286700  0.08011400  1
  H  300  1  0.61484600  0.55549900  0.10370200  1
  H  308  1  0.67575000  0.55688800  0.47286400  1
  H  309  1  0.63474300  0.51579400  0.45507800  1
  H  311  1  0.82011400  0.57238900  0.50024200  1
  H  312  1  0.76679700  0.56523700  0.46924500  1
  H  314  1  0.70283000  0.39303900  0.46549800  1
  H  315  1  0.75632500  0.40000500  0.49633500  1
  H  317  1  0.82267200  0.49114600  0.57585500  1
  H  318  1  0.78160600  0.45019700  0.55849900  1
  H  326  1  0.34239200  0.90810900  0.43710900  1
  H  327  1  0.30148300  0.93141300  0.47819000  1
  H  329  1  0.48660000  0.92014300  0.42123000  1
  H  330  1  0.43337400  0.89638500  0.42854500  1
  H  332  1  0.36951000  0.06478700  0.60086500  1
  H  333  1  0.42299400  0.08867100  0.59390200  1
  H  335  1  0.48911200  0.07698000  0.50262700  1
  H  336  1  0.44821800  0.10066700  0.54369500  1
  H  344  1  0.00898400  0.52096200  0.08551500  1
  H  345  1  0.96801200  0.53878200  0.06222200  1
  H  347  1  0.15327600  0.49349400  0.07374400  1
  H  348  1  0.10000000  0.52452900  0.09748800  1
  H  350  1  0.03620800  0.52844600  0.92910500  1
  H  351  1  0.08969200  0.49758900  0.90522800  1
  H  353  1  0.15565000  0.41792900  0.91689000  1
  H  354  1  0.11448800  0.43530700  0.89330300  1
  H  362  1  0.06768800  0.73479800  0.51903300  1
  H  363  1  0.06023100  0.70744000  0.54262900  1
  H  365  1  0.04679600  0.84235200  0.55405000  1
  H  366  1  0.02505200  0.79369400  0.52962700  1
  H  368  1  0.03019400  0.79302200  0.69982500  1
  H  369  1  0.05982000  0.83940900  0.72295200  1
  H  371  1  0.15927200  0.88608500  0.68713600  1
  H  372  1  0.14298500  0.86133500  0.71218400  1
  H  380  1  0.73440700  0.77665100  0.25912600  1
  H  381  1  0.72695400  0.82760700  0.28647000  1
  H  383  1  0.71331600  0.70425200  0.15149800  1
  H  384  1  0.69170800  0.72834300  0.20022000  1
  H  386  1  0.69722300  0.89945200  0.20096100  1
  H  387  1  0.72680500  0.87622500  0.15462900  1
  H  389  1  0.82590800  0.79341900  0.10776900  1
  H  390  1  0.80965300  0.84321900  0.13253100  1
  H  398  1  0.40068200  0.47504200  0.21725700  1
  H  399  1  0.39317300  0.45146600  0.16637400  1
  H  401  1  0.38025200  0.43994000  0.28983400  1
  H  402  1  0.35851200  0.46434500  0.26558700  1
  H  404  1  0.36389000  0.29394000  0.09446600  1
  H  405  1  0.39347200  0.27082700  0.11768600  1
  H  407  1  0.49268200  0.30699500  0.20050800  1
  H  408  1  0.47636800  0.28174900  0.15068800  1
  H  416  1  0.56775200  0.25612000  0.47796000  1
  H  417  1  0.56030000  0.28346400  0.45434900  1
  H  419  1  0.54677800  0.14856600  0.44295400  1
  H  420  1  0.52508600  0.19723700  0.46737500  1
  H  422  1  0.53057500  0.19791400  0.29698500  1
  H  423  1  0.56021200  0.15159800  0.27389300  1
  H  425  1  0.65952800  0.10506800  0.31015100  1
  H  426  1  0.64326500  0.12986800  0.28508400  1
  H  434  1  0.23434000  0.21427300  0.73785200  1
  H  435  1  0.22693300  0.16331500  0.71048400  1
  H  437  1  0.21341000  0.28678100  0.84541300  1
  H  438  1  0.19167000  0.26254500  0.79675400  1
  H  440  1  0.19697200  0.09166900  0.79605400  1
  H  441  1  0.22661400  0.11493500  0.84243700  1
  H  443  1  0.32604400  0.19744600  0.88909300  1
  H  444  1  0.30978000  0.14764200  0.86433800  1
  H  452  1  0.90112300  0.51602000  0.77969000  1
  H  453  1  0.89368100  0.53962400  0.83064500  1
  H  455  1  0.88002700  0.55126500  0.70730500  1
  H  456  1  0.85841400  0.52663300  0.73139300  1
  H  458  1  0.86395300  0.69698500  0.90250900  1
  H  459  1  0.89354700  0.72009200  0.87928900  1
  H  461  1  0.99265200  0.68414000  0.79648300  1
  H  462  1  0.97640100  0.70917700  0.84628400  1
  N  253  1  0.17206800  0.46323700  0.53189700  1
  N  256  1  0.28273800  0.43034600  0.50607700  1
  N  259  1  0.22802200  0.57798500  0.50977700  1
  N  262  1  0.29800600  0.51939800  0.44348500  1
  N  271  1  0.83872100  0.06104500  0.53066700  1
  N  274  1  0.94940900  0.06809700  0.56350200  1
  N  277  1  0.89468200  0.92412100  0.41593900  1
  N  280  1  0.96466200  0.91643600  0.47456200  1
  N  289  1  0.50547800  0.46194200  0.93279500  1
  N  292  1  0.61617200  0.48773300  0.92576900  1
  N  295  1  0.56126800  0.48427800  0.06982700  1
  N  298  1  0.63125700  0.55054300  0.07742000  1
  N  307  1  0.67207900  0.52759300  0.46503600  1
  N  310  1  0.78272900  0.56043600  0.49079200  1
  N  313  1  0.72799300  0.41287500  0.48725600  1
  N  316  1  0.79800100  0.47152100  0.55353700  1
  N  325  1  0.33869400  0.92983600  0.46630900  1
  N  328  1  0.44935900  0.92275000  0.43340200  1
  N  331  1  0.39466800  0.06671700  0.58102900  1
  N  334  1  0.46466600  0.07439400  0.52243200  1
  N  343  1  0.00533700  0.52881300  0.06406400  1
  N  346  1  0.11601800  0.50303000  0.07112900  1
  N  349  1  0.06134900  0.50667300  0.92717200  1
  N  352  1  0.13135000  0.44037400  0.91948200  1
  N  361  1  0.05747400  0.73466300  0.54454700  1
  N  364  1  0.04870600  0.81488200  0.55166000  1
  N  367  1  0.05623700  0.81222100  0.69761100  1
  N  370  1  0.13356200  0.86693200  0.68972600  1
  N  379  1  0.72420200  0.80229700  0.25925300  1
  N  382  1  0.71545900  0.72917400  0.17908700  1
  N  385  1  0.72282900  0.87771400  0.18163800  1
  N  388  1  0.80020800  0.81516600  0.12693000  1
  N  397  1  0.39099600  0.44935100  0.19159800  1
  N  400  1  0.38216400  0.44231800  0.26474800  1
  N  403  1  0.38949000  0.29635100  0.11620500  1
  N  406  1  0.46682100  0.30413800  0.17872500  1
  N  415  1  0.55754200  0.25624700  0.45244200  1
  N  418  1  0.54873200  0.17603700  0.44534800  1
  N  421  1  0.55619900  0.17860600  0.29941000  1
  N  424  1  0.63355700  0.12386900  0.30722000  1
  N  433  1  0.22415000  0.18861500  0.73771000  1
  N  436  1  0.21533600  0.26170700  0.81793900  1
  N  439  1  0.22301400  0.11309000  0.81524800  1
  N  442  1  0.30033500  0.17569700  0.86994500  1
  N  451  1  0.89092000  0.54153900  0.80534000  1
  N  454  1  0.88216700  0.54859300  0.73222400  1
  N  457  1  0.88956400  0.69457000  0.88077400  1
  N  460  1  0.96694900  0.68672900  0.81823000  1
