# generated using pymatgen
data_H28C49(NO2)4
_symmetry_space_group_name_H-M   'P 1'
_cell_length_a   16.36740000
_cell_length_b   16.36740000
_cell_length_c   49.10290000
_cell_angle_alpha   89.94850000
_cell_angle_beta   89.97430001
_cell_angle_gamma   60.00000000
_symmetry_Int_Tables_number   1
_chemical_formula_structural   H28C49(NO2)4
_chemical_formula_sum   'H84 C147 N12 O24'
_cell_volume   11391.92168762
_cell_formula_units_Z   3
loop_
 _symmetry_equiv_pos_site_id
 _symmetry_equiv_pos_as_xyz
  1  'x, y, z'
loop_
 _atom_site_type_symbol
 _atom_site_label
 _atom_site_symmetry_multiplicity
 _atom_site_fract_x
 _atom_site_fract_y
 _atom_site_fract_z
 _atom_site_occupancy
  C  1  1  0.80484700  0.19333400  0.70029300  1
  C  3  1  0.13650800  0.86110100  0.94177600  1
  C  5  1  0.00959400  0.98647050  0.84585800  1
  C  9  1  0.91304100  0.08114950  0.51980800  1
  C  10  1  0.02407600  0.97329100  0.48544000  1
  C  13  1  0.94370600  0.05549500  0.22649800  1
  C  18  1  0.85717300  0.13300900  0.60711900  1
  C  19  1  0.97771000  0.01171850  0.10347700  1
  C  23  1  0.98698600  0.00457800  0.17917900  1
  C  27  1  0.01193600  0.97701250  0.77016000  1
  C  29  1  0.59109900  0.39542150  0.99037000  1
  C  31  1  0.92736800  0.06035500  0.76352100  1
  C  35  1  0.03456800  0.94826650  0.79741200  1
  C  39  1  0.37598000  0.60230450  0.67906200  1
  C  43  1  0.52188900  0.45673950  0.00915600  1
  C  45  1  0.97401500  0.00303300  0.81878600  1
  C  46  1  0.86398200  0.11141600  0.78482100  1
  C  51  1  0.94888400  0.01786300  0.13071700  1
  C  53  1  0.17807600  0.86371700  0.03571700  1
  C  54  1  0.19008000  0.83741600  0.96588100  1
  C  55  1  0.82760600  0.18696300  0.63109700  1
  C  57  1  0.96287400  0.96431550  0.23423700  1
  C  58  1  0.06112800  0.01282950  0.09686000  1
  C  59  1  0.96477400  0.07333800  0.56752700  1
  C  60  1  0.05593600  0.00126200  0.55982800  1
  C  61  1  0.07564000  0.96889500  0.53275300  1
  C  62  1  0.00505600  0.00895200  0.51249700  1
  C  63  1  0.89454200  0.11263150  0.54709200  1
  C  64  1  0.01338800  0.92655000  0.43021300  1
  C  83  1  0.10223000  0.98653700  0.07048900  1
  C  84  1  0.13754200  0.03861800  0.05698200  1
  C  85  1  0.19451400  0.00206500  0.03369300  1
  C  86  1  0.22347400  0.90980400  0.02389700  1
  C  87  1  0.12031000  0.90010100  0.05886000  1
  C  88  1  0.29329600  0.86510100  0.00041100  1
  C  89  1  0.22498600  0.89500600  0.97637300  1
  C  90  1  0.11137600  0.94612300  0.92789000  1
  C  91  1  0.13346400  0.01034300  0.94050400  1
  C  92  1  0.18747000  0.98590100  0.96448600  1
  C  93  1  0.36641400  0.89689700  0.99828200  1
  C  94  1  0.35925800  0.75868750  0.00300800  1
  C  95  1  0.40019300  0.70117600  0.97968000  1
  C  96  1  0.45657800  0.60266050  0.98167400  1
  C  97  1  0.47989700  0.55709250  0.00731300  1
  C  98  1  0.44973800  0.61498650  0.03077000  1
  C  99  1  0.39195000  0.71344700  0.02860900  1
  C  100  1  0.40821800  0.91067000  0.02188700  1
  C  101  1  0.46816400  0.94889150  0.02028000  1
  C  102  1  0.49393100  0.96962400  0.99479200  1
  C  103  1  0.46420400  0.94253400  0.97112800  1
  C  104  1  0.40307300  0.90563700  0.97290600  1
  C  119  1  0.98713700  0.91176200  0.40383800  1
  C  120  1  0.03922400  0.82437000  0.39036800  1
  C  121  1  0.00274200  0.80399950  0.36706200  1
  C  122  1  0.91040800  0.86724000  0.35727200  1
  C  123  1  0.86436000  0.95876400  0.36903300  1
  C  124  1  0.90076200  0.98016100  0.39216000  1
  C  125  1  0.86567900  0.84213200  0.33380300  1
  C  126  1  0.89551600  0.88055000  0.30973700  1
  C  127  1  0.83792600  0.97306550  0.29921700  1
  C  128  1  0.86156700  0.00298150  0.27509600  1
  C  129  1  0.94656200  0.94308400  0.26122300  1
  C  130  1  0.01081200  0.85677900  0.27387000  1
  C  131  1  0.98640800  0.82719800  0.29786600  1
  C  132  1  0.89751100  0.73721700  0.33170600  1
  C  133  1  0.75927800  0.88259500  0.33641400  1
  C  134  1  0.70165300  0.89923800  0.31310200  1
  C  135  1  0.60315300  0.94123150  0.31511000  1
  C  136  1  0.55767600  0.96338000  0.34075400  1
  C  137  1  0.61569000  0.93566700  0.36419600  1
  C  138  1  0.71414800  0.89497400  0.36201900  1
  C  139  1  0.91138900  0.68155500  0.35532300  1
  C  140  1  0.94960200  0.58338750  0.35373300  1
  C  141  1  0.97011900  0.53698700  0.32825400  1
  C  142  1  0.94290900  0.59390000  0.30458300  1
  C  143  1  0.90602100  0.69192300  0.30634400  1
  C  160  1  0.91260400  0.10140850  0.73713200  1
  C  161  1  0.82527700  0.13648450  0.72362500  1
  C  162  1  0.86793300  0.22265750  0.69051300  1
  C  163  1  0.95940600  0.17741400  0.70232300  1
  C  164  1  0.98096500  0.11943100  0.72544200  1
  C  165  1  0.84267500  0.29257350  0.66702800  1
  C  166  1  0.88101900  0.22439350  0.64297400  1
  C  167  1  0.97356200  0.18939850  0.63248000  1
  C  168  1  0.00346200  0.13587500  0.60837800  1
  C  169  1  0.94353300  0.11085250  0.59449900  1
  C  170  1  0.73773300  0.36560350  0.66493800  1
  C  171  1  0.88306500  0.35857400  0.66960200  1
  C  172  1  0.89977600  0.39950700  0.64627100  1
  C  173  1  0.94167600  0.45610100  0.64825700  1
  C  174  1  0.96382900  0.47938550  0.67389500  1
  C  175  1  0.93596900  0.44922050  0.69735000  1
  C  176  1  0.89531600  0.39142650  0.69519300  1
  C  177  1  0.68207900  0.40709500  0.68855600  1
  C  178  1  0.58392900  0.46715350  0.68697200  1
  C  179  1  0.53748800  0.49315050  0.66149000  1
  C  180  1  0.59433000  0.46368900  0.63781800  1
  C  181  1  0.69236300  0.40256750  0.63958100  1
  C  198  1  0.07386400  0.96243500  0.90091000  1
  C  199  1  0.00188400  0.94323450  0.89320200  1
  C  200  1  0.96957200  0.95586300  0.86611500  1
  C  202  1  0.08168000  0.00642800  0.85318100  1
  C  203  1  0.11310400  0.99347800  0.88047500  1
  C  206  1  0.88678800  0.08462450  0.81242900  1
  C  221  1  0.95637100  0.07519000  0.19940800  1
  C  222  1  0.00689600  0.91254150  0.18653100  1
  C  223  1  0.99391000  0.89404850  0.21382900  1
  C  225  1  0.00363000  0.02358850  0.15210500  1
  C  226  1  0.08529000  0.02912600  0.14577200  1
  C  227  1  0.11217000  0.02510200  0.11817200  1
  C  240  1  0.02955800  0.88611600  0.47914100  1
  C  241  1  0.02556900  0.86326150  0.45155000  1
  C  242  1  0.01232300  0.01105100  0.43679500  1
  C  243  1  0.01843600  0.03373000  0.46403000  1
  C  252  1  0.61601600  0.30000500  0.98844700  1
  C  253  1  0.57381100  0.26263050  0.00571900  1
  C  254  1  0.50822100  0.32135550  0.02576000  1
  C  255  1  0.48386900  0.41716350  0.02733200  1
  C  257  1  0.57863200  0.17621050  0.99873700  1
  C  258  1  0.62436700  0.09533150  0.01563100  1
  C  259  1  0.60308800  0.02191500  0.01234600  1
  C  260  1  0.53475000  0.02901700  0.99332100  1
  C  261  1  0.49443300  0.10795750  0.97567000  1
  C  262  1  0.51621700  0.18023550  0.97825100  1
  C  273  1  0.45733800  0.02179700  0.34260500  1
  C  274  1  0.39591600  0.01401400  0.32383800  1
  C  275  1  0.30049800  0.08454250  0.32192800  1
  C  276  1  0.26322200  0.16404700  0.33919200  1
  C  277  1  0.32206100  0.17080950  0.35921100  1
  C  278  1  0.41787000  0.09932400  0.36077300  1
  C  280  1  0.17675000  0.24567600  0.33222500  1
  C  281  1  0.09598600  0.28074100  0.34914400  1
  C  282  1  0.02253200  0.37543900  0.34585500  1
  C  283  1  0.02937400  0.43677700  0.32678300  1
  C  284  1  0.10829000  0.39821100  0.30913500  1
  C  285  1  0.18062400  0.30415450  0.31171700  1
  C  297  1  0.02223600  0.52131150  0.67574600  1
  C  298  1  0.01449600  0.59051700  0.65695700  1
  C  299  1  0.08502100  0.61541900  0.65505900  1
  C  300  1  0.16449400  0.57318100  0.67235300  1
  C  301  1  0.17122800  0.50755550  0.69238900  1
  C  302  1  0.09973700  0.48323400  0.69394100  1
  C  304  1  0.24613600  0.57802500  0.66540300  1
  C  305  1  0.28126200  0.62359500  0.68233200  1
  C  306  1  0.43726600  0.53422750  0.65999000  1
  C  307  1  0.39864000  0.49401900  0.64232900  1
  C  308  1  0.30457100  0.51577850  0.64489500  1
  H  6  1  0.06025400  0.93947250  0.75532400  1
  H  14  1  0.82842900  0.16647400  0.55182700  1
  H  17  1  0.19172700  0.79938450  0.02862800  1
  H  25  1  0.09924000  0.89105250  0.80163800  1
  H  33  1  0.20847200  0.77399850  0.97473400  1
  H  37  1  0.80412000  0.17404300  0.78061600  1
  H  65  1  0.10861600  0.97066100  0.57400500  1
  H  66  1  0.14208400  0.91592700  0.52790800  1
  H  67  1  0.61962300  0.42108750  0.97660500  1
  H  105  1  0.47587100  0.56446300  0.96400400  1
  H  106  1  0.38465300  0.73009950  0.96061100  1
  H  107  1  0.46700100  0.58562150  0.04979800  1
  H  108  1  0.37118000  0.75163600  0.04624200  1
  H  109  1  0.38936100  0.90005050  0.04083900  1
  H  110  1  0.48661800  0.96802200  0.03806300  1
  H  111  1  0.48275000  0.95419100  0.95222400  1
  H  112  1  0.38155600  0.88990950  0.95512400  1
  H  113  1  0.20477400  0.03335900  0.97212900  1
  H  114  1  0.11412000  0.07411600  0.93164300  1
  H  115  1  0.12147800  0.81264200  0.93357800  1
  H  116  1  0.21898700  0.04218600  0.02482300  1
  H  117  1  0.12479000  0.10218550  0.06456700  1
  H  118  1  0.09675400  0.85966700  0.06813000  1
  H  144  1  0.56488000  0.96025000  0.29744500  1
  H  145  1  0.73046500  0.88593950  0.29402500  1
  H  146  1  0.58642100  0.94757900  0.38323000  1
  H  147  1  0.75240600  0.87747050  0.37964800  1
  H  148  1  0.90088400  0.71095700  0.37426900  1
  H  149  1  0.96873000  0.54576950  0.37152600  1
  H  150  1  0.95433200  0.56380000  0.28568200  1
  H  151  1  0.89016700  0.72923700  0.28855500  1
  H  152  1  0.03387900  0.76243200  0.30553400  1
  H  153  1  0.07458200  0.81236250  0.26502300  1
  H  154  1  0.81310700  0.06648550  0.26687800  1
  H  155  1  0.77452500  0.01808800  0.30805900  1
  H  156  1  0.79995600  0.00938650  0.36195000  1
  H  157  1  0.04277800  0.73933850  0.35825800  1
  H  158  1  0.10275200  0.77353450  0.39798700  1
  H  159  1  0.86023900  0.04408450  0.40142800  1
  H  182  1  0.96087800  0.47519700  0.63058800  1
  H  183  1  0.88655700  0.38392850  0.62719900  1
  H  184  1  0.94789000  0.46655750  0.71637700  1
  H  185  1  0.87777300  0.37069450  0.71282800  1
  H  186  1  0.71154500  0.38824200  0.70750600  1
  H  187  1  0.54634800  0.48555300  0.70476300  1
  H  188  1  0.56419000  0.48253350  0.61891700  1
  H  189  1  0.72964200  0.38131850  0.62179200  1
  H  190  1  0.76282200  0.20429400  0.63874800  1
  H  191  1  0.81272700  0.11372200  0.59826800  1
  H  192  1  0.06699200  0.12078000  0.60017600  1
  H  193  1  0.01861000  0.20771700  0.64132900  1
  H  194  1  0.00997400  0.19124600  0.69521600  1
  H  195  1  0.74022400  0.21782000  0.69146200  1
  H  196  1  0.77451100  0.12366050  0.73124000  1
  H  197  1  0.04480400  0.09624200  0.73474900  1
  H  204  1  0.16689000  0.00583100  0.88521700  1
  H  212  1  0.97132200  0.92107150  0.90737800  1
  H  214  1  0.91668700  0.94227800  0.86126100  1
  H  224  1  0.00624100  0.82791850  0.21859200  1
  H  228  1  0.17483800  0.02227200  0.11398500  1
  H  229  1  0.94017200  0.00098950  0.08863200  1
  H  230  1  0.92154900  0.10820300  0.24065600  1
  H  231  1  0.89162000  0.01047200  0.13493100  1
  H  232  1  0.94282500  0.14165500  0.19453200  1
  H  244  1  0.02270000  0.80345050  0.44738500  1
  H  245  1  0.00166400  0.05929900  0.42193000  1
  H  246  1  0.01109600  0.09836300  0.46821500  1
  H  256  1  0.43091500  0.45992950  0.04041500  1
  H  263  1  0.63303100  0.96586850  0.02547700  1
  H  264  1  0.44141600  0.11876100  0.96252600  1
  H  265  1  0.47845500  0.24019800  0.96685900  1
  H  266  1  0.66020200  0.25980650  0.97309600  1
  H  279  1  0.46070800  0.10943850  0.37383900  1
  H  286  1  0.96657800  0.40148600  0.35900900  1
  H  287  1  0.11900600  0.44047250  0.29596600  1
  H  288  1  0.42149800  0.95987800  0.31008000  1
  H  289  1  0.24051200  0.28202500  0.30030800  1
  H  290  1  0.26021000  0.08063000  0.30659100  1
  H  303  1  0.10983000  0.43026750  0.70702500  1
  H  309  1  0.40206900  0.63210050  0.69222600  1
  H  310  1  0.44087000  0.44109650  0.62916400  1
  H  311  1  0.96038500  0.61906900  0.64317800  1
  H  312  1  0.28239800  0.47810800  0.63347800  1
  H  313  1  0.08113000  0.65963050  0.63971000  1
  N  49  1  0.84051600  0.11966550  0.49994000  1
  N  215  1  0.12015800  0.04051800  0.83330800  1
  N  216  1  0.82733000  0.14168400  0.83375200  1
  N  233  1  0.04099400  0.83998600  0.16668500  1
  N  234  1  0.14233000  0.03146800  0.16710800  1
  N  247  1  0.03181600  0.82676900  0.50050200  1
  N  267  1  0.46232200  0.28558400  0.04237600  1
  N  268  1  0.68644900  0.09206450  0.03622400  1
  N  291  1  0.28639800  0.25240800  0.37581700  1
  N  292  1  0.09286800  0.22185500  0.36976800  1
  N  314  1  0.25281000  0.46158450  0.70902300  1
  N  315  1  0.22242200  0.68549950  0.70295200  1
  O  40  1  0.20984600  0.76710500  0.69959600  1
  O  56  1  0.74715000  0.14934050  0.83233200  1
  O  217  1  0.20730600  0.98592600  0.83038100  1
  O  218  1  0.10578000  0.12130800  0.83925400  1
  O  219  1  0.81781300  0.22277700  0.83343700  1
  O  235  1  0.15006800  0.10394750  0.16566600  1
  O  236  1  0.98638700  0.80745800  0.16375800  1
  O  237  1  0.12177200  0.77355200  0.17266600  1
  O  238  1  0.22338600  0.95984400  0.16684200  1
  O  248  1  0.10425600  0.74652650  0.49910500  1
  O  249  1  0.80807700  0.20678400  0.49697500  1
  O  250  1  0.77401700  0.10541150  0.50591700  1
  O  251  1  0.96015100  0.81739650  0.50022500  1
  O  269  1  0.76802700  0.02307900  0.03282300  1
  O  270  1  0.37492600  0.32754500  0.03810200  1
  O  271  1  0.47638300  0.29218450  0.06722200  1
  O  272  1  0.65823100  0.08594050  0.05953400  1
  O  293  1  0.02387800  0.20924200  0.36640800  1
  O  294  1  0.32835900  0.29783900  0.37151600  1
  O  295  1  0.29312000  0.23164600  0.40066500  1
  O  296  1  0.08686800  0.25613500  0.39306600  1
  O  316  1  0.29824300  0.37420250  0.70474500  1
  O  317  1  0.23202000  0.47557100  0.73386500  1
  O  318  1  0.25672600  0.65708850  0.72625400  1
