# generated using pymatgen
data_Cr3H24(C2O)17
_symmetry_space_group_name_H-M   'P 1'
_cell_length_a   10.19966000
_cell_length_b   11.70562000
_cell_length_c   18.54239000
_cell_angle_alpha   89.97420000
_cell_angle_beta   89.97816000
_cell_angle_gamma   110.83728000
_symmetry_Int_Tables_number   1
_chemical_formula_structural   Cr3H24(C2O)17
_chemical_formula_sum   'Cr6 H48 C68 O34'
_cell_volume   2069.04004877
_cell_formula_units_Z   2
loop_
 _symmetry_equiv_pos_site_id
 _symmetry_equiv_pos_as_xyz
  1  'x, y, z'
loop_
 _atom_site_type_symbol
 _atom_site_label
 _atom_site_symmetry_multiplicity
 _atom_site_fract_x
 _atom_site_fract_y
 _atom_site_fract_z
 _atom_site_occupancy
  Cr  Cr0  1  0.02014000  0.81239000  0.75000000  1
  Cr  Cr1  1  0.97986000  0.18761000  0.25000000  1
  Cr  Cr2  1  0.65836000  0.75419000  0.75000000  1
  Cr  Cr3  1  0.34164000  0.24581000  0.25000000  1
  Cr  Cr4  1  0.78009000  0.51424000  0.75000000  1
  Cr  Cr5  1  0.21991000  0.48576000  0.25000000  1
  H  H6  1  0.25808000  0.77583000  0.47210000  1
  H  H7  1  0.77866000  0.24996000  0.51360000  1
  H  H8  1  0.76407000  0.23080000  0.96536000  1
  H  H9  1  0.51601000  0.89952000  0.09653000  1
  H  H10  1  0.23805000  0.58548000  0.41486000  1
  H  H11  1  0.76766000  0.42100000  0.58320000  1
  H  H12  1  0.76907000  0.40908000  0.90174000  1
  H  H13  1  0.55258000  0.72795000  0.15343000  1
  H  H14  1  0.97964000  0.52451000  0.06810000  1
  H  H15  1  0.00671000  0.41721000  0.91684000  1
  H  H16  1  0.05640000  0.44369000  0.57879000  1
  H  H17  1  0.95377000  0.51683000  0.43014000  1
  H  H18  1  0.90588000  0.99810000  0.07142000  1
  H  H19  1  0.06963000  0.93951000  0.94306000  1
  H  H20  1  0.07943000  0.95907000  0.56185000  1
  H  H21  1  0.93144000  0.05378000  0.44145000  1
  H  H22  1  0.18672000  0.96063000  0.06159000  1
  H  H23  1  0.79495000  0.98849000  0.95618000  1
  H  H24  1  0.82716000  0.04593000  0.56172000  1
  H  H25  1  0.17050000  0.95188000  0.43883000  1
  H  H26  1  0.33570000  0.99632000  0.61645000  1
  H  H27  1  0.69937000  0.01193000  0.38266000  1
  H  H28  1  0.73228000  0.04016000  0.12275000  1
  H  H29  1  0.36881000  0.03897000  0.94740000  1
  H  H30  1  0.76189000  0.78772000  0.53354000  1
  H  H31  1  0.68971000  0.89833000  0.49712000  1
  H  H32  1  0.67422000  0.76497000  0.44874000  1
  H  H33  1  0.35939000  0.08114000  0.48061000  1
  H  H34  1  0.27002000  0.18748000  0.49449000  1
  H  H35  1  0.40492000  0.18709000  0.55346000  1
  H  H36  1  0.30777000  0.27436000  0.06468000  1
  H  H37  1  0.35305000  0.14164000  0.04958000  1
  H  H38  1  0.37021000  0.24740000  0.97801000  1
  H  H39  1  0.31052000  0.73001000  0.90546000  1
  H  H40  1  0.43509000  0.75153000  0.83839000  1
  H  H41  1  0.34720000  0.59945000  0.87942000  1
  H  H42  1  0.97327000  0.22310000  0.97750000  1
  H  H43  1  0.15424000  0.32193000  0.98469000  1
  H  H44  1  0.07791000  0.20617000  0.05052000  1
  H  H45  1  0.16900000  0.70075000  0.02771000  1
  H  H46  1  0.15353000  0.79781000  0.95807000  1
  H  H47  1  0.00040000  0.71639000  0.01110000  1
  H  H48  1  0.86176000  0.63420000  0.50315000  1
  H  H49  1  0.96675000  0.76447000  0.55217000  1
  H  H50  1  0.03349000  0.72281000  0.47050000  1
  H  H51  1  0.17469000  0.35365000  0.51176000  1
  H  H52  1  0.00461000  0.23571000  0.52074000  1
  H  H53  1  0.11839000  0.24069000  0.44407000  1
  C  C54  1  0.86231000  0.93098000  0.64837000  1
  C  C55  1  0.13825000  0.07002000  0.35233000  1
  C  C56  1  0.13824000  0.06724000  0.14923000  1
  C  C57  1  0.85780000  0.92070000  0.85600000  1
  C  C58  1  0.40850000  0.55717000  0.47532000  1
  C  C59  1  0.59016000  0.43950000  0.52500000  1
  C  C60  1  0.63469000  0.46375000  0.97712000  1
  C  C61  1  0.54814000  0.62913000  0.05338000  1
  C  C62  1  0.05738000  0.60502000  0.93290000  1
  C  C63  1  0.01677000  0.36101000  0.06112000  1
  C  C64  1  0.01606000  0.36663000  0.43837000  1
  C  C65  1  0.02852000  0.60958000  0.56498000  1
  C  C66  1  0.02731000  0.49083000  0.95586000  1
  C  C67  1  0.00568000  0.46152000  0.03280000  1
  C  C68  1  0.99338000  0.46310000  0.46591000  1
  C  C69  1  0.03153000  0.50359000  0.54070000  1
  C  C70  1  0.87798000  0.96619000  0.93010000  1
  C  C71  1  0.10576000  0.98869000  0.08485000  1
  C  C72  1  0.10294000  0.99854000  0.41935000  1
  C  C73  1  0.89901000  0.00422000  0.58227000  1
  C  C74  1  0.98416000  0.95715000  0.96925000  1
  C  C75  1  0.98917000  0.97500000  0.04727000  1
  C  C76  1  0.00306000  0.01236000  0.46221000  1
  C  C77  1  0.00165000  0.99308000  0.54008000  1
  C  C78  1  0.62392000  0.56305000  0.63797000  1
  C  C79  1  0.37532000  0.43595000  0.36194000  1
  C  C80  1  0.44432000  0.47252000  0.14902000  1
  C  C81  1  0.62789000  0.56583000  0.86070000  1
  C  C82  1  0.02864000  0.62657000  0.64252000  1
  C  C83  1  0.01300000  0.35098000  0.36046000  1
  C  C84  1  0.01464000  0.34946000  0.13968000  1
  C  C85  1  0.03105000  0.62642000  0.85730000  1
  C  C86  1  0.41692000  0.45379000  0.43839000  1
  C  C87  1  0.58006000  0.54149000  0.56205000  1
  C  C88  1  0.60444000  0.55724000  0.93867000  1
  C  C89  1  0.53004000  0.51391000  0.08384000  1
  C  C90  1  0.31801000  0.61986000  0.45492000  1
  C  C91  1  0.69050000  0.38530000  0.54196000  1
  C  C92  1  0.70699000  0.38876000  0.94937000  1
  C  C93  1  0.54418000  0.72824000  0.09524000  1
  C  C94  1  0.32809000  0.72974000  0.48758000  1
  C  C95  1  0.69848000  0.28731000  0.50156000  1
  C  C96  1  0.70471000  0.28376000  0.98569000  1
  C  C97  1  0.52823000  0.82920000  0.06276000  1
  C  C98  1  0.43665000  0.78511000  0.53542000  1
  C  C99  1  0.59926000  0.23608000  0.44792000  1
  C  C100  1  0.62027000  0.24638000  0.04616000  1
  C  C101  1  0.51537000  0.83376000  0.98819000  1
  C  C102  1  0.54078000  0.73348000  0.54243000  1
  C  C103  1  0.47844000  0.26662000  0.44972000  1
  C  C104  1  0.52787000  0.30637000  0.06082000  1
  C  C105  1  0.50726000  0.73082000  0.94684000  1
  C  C106  1  0.50177000  0.60698000  0.53178000  1
  C  C107  1  0.49696000  0.38832000  0.46852000  1
  C  C108  1  0.57160000  0.43070000  0.04395000  1
  C  C109  1  0.55357000  0.63936000  0.97769000  1
  C  C110  1  0.44379000  0.89857000  0.57313000  1
  C  C111  1  0.60385000  0.13180000  0.40406000  1
  C  C112  1  0.62662000  0.14771000  0.09360000  1
  C  C113  1  0.49062000  0.93826000  0.95384000  1
  C  C114  1  0.67515000  0.80129000  0.50426000  1
  C  C115  1  0.37077000  0.17518000  0.49614000  1
  C  C116  1  0.38065000  0.23844000  0.03724000  1
  C  C117  1  0.39519000  0.69958000  0.88883000  1
  C  C118  1  0.05724000  0.27283000  0.01563000  1
  C  C119  1  0.09645000  0.71091000  0.98555000  1
  C  C120  1  0.97086000  0.68771000  0.51969000  1
  C  C121  1  0.08141000  0.29434000  0.48190000  1
  O  O122  1  0.09789000  0.73229000  0.66820000  1
  O  O123  1  0.90211000  0.26771000  0.33180000  1
  O  O124  1  0.90211000  0.26771000  0.16820000  1
  O  O125  1  0.09789000  0.73229000  0.83180000  1
  O  O126  1  0.96115000  0.90052000  0.67446000  1
  O  O127  1  0.03885000  0.09948000  0.32554000  1
  O  O128  1  0.03885000  0.09948000  0.17446000  1
  O  O129  1  0.96115000  0.90052000  0.82554000  1
  O  O130  1  0.73234000  0.88328000  0.66921000  1
  O  O131  1  0.26766000  0.11672000  0.33079000  1
  O  O132  1  0.26766000  0.11672000  0.16921000  1
  O  O133  1  0.73234000  0.88328000  0.83079000  1
  O  O134  1  0.57241000  0.63329000  0.67544000  1
  O  O135  1  0.42759000  0.36671000  0.32456000  1
  O  O136  1  0.42759000  0.36671000  0.17544000  1
  O  O137  1  0.57241000  0.63329000  0.82456000  1
  O  O138  1  0.62824000  0.46513000  0.66939000  1
  O  O139  1  0.37176000  0.53487000  0.33061000  1
  O  O140  1  0.37176000  0.53487000  0.16939000  1
  O  O141  1  0.62824000  0.46513000  0.83061000  1
  O  O142  1  0.92484000  0.54692000  0.67448000  1
  O  O143  1  0.07516000  0.45308000  0.32552000  1
  O  O144  1  0.07516000  0.45308000  0.17448000  1
  O  O145  1  0.92484000  0.54692000  0.82552000  1
  O  O146  1  0.81953000  0.69361000  0.75000000  1
  O  O147  1  0.18047000  0.30639000  0.25000000  1
  O  O148  1  0.55526000  0.96996000  0.59566000  1
  O  O149  1  0.32024000  0.92145000  0.58540000  1
  O  O150  1  0.51905000  0.09083000  0.35556000  1
  O  O151  1  0.70612000  0.08100000  0.41716000  1
  O  O152  1  0.54993000  0.11747000  0.14637000  1
  O  O153  1  0.72663000  0.09429000  0.08107000  1
  O  O154  1  0.55231000  0.98268000  0.89829000  1
  O  O155  1  0.38923000  0.97972000  0.98154000  1
