# generated using pymatgen
data_Gd2H32C45S3O25
_symmetry_space_group_name_H-M   'P 1'
_cell_length_a   9.23027000
_cell_length_b   15.66778000
_cell_length_c   22.07637000
_cell_angle_alpha   102.29870000
_cell_angle_beta   101.43114000
_cell_angle_gamma   104.83325000
_symmetry_Int_Tables_number   1
_chemical_formula_structural   Gd2H32C45S3O25
_chemical_formula_sum   'Gd4 H64 C90 S6 O50'
_cell_volume   2905.46361195
_cell_formula_units_Z   2
loop_
 _symmetry_equiv_pos_site_id
 _symmetry_equiv_pos_as_xyz
  1  'x, y, z'
loop_
 _atom_site_type_symbol
 _atom_site_label
 _atom_site_symmetry_multiplicity
 _atom_site_fract_x
 _atom_site_fract_y
 _atom_site_fract_z
 _atom_site_occupancy
  Gd  Gd1  1  0.51152000  0.85826000  0.80810000  1.0
  Gd  Gd2  1  0.02882000  0.90675000  0.85384000  1.0
  Gd  Gd3  1  0.48849000  0.14174000  0.19190000  1.0
  Gd  Gd4  1  0.97119000  0.09326000  0.14616000  1.0
  H  H1  1  0.86465000  0.83854000  0.67302000  1.0
  H  H2  1  0.72472000  0.83748000  0.56421000  1.0
  H  H3  1  0.30146000  0.92521000  0.62723000  1.0
  H  H4  1  0.65061000  0.77915000  0.44833000  1.0
  H  H5  1  0.65578000  0.89503000  0.48354000  1.0
  H  H6  1  0.67565000  0.86126000  0.40345000  1.0
  H  H7  1  0.97143000  0.84364000  0.37072000  1.0
  H  H8  1  0.95183000  0.90693000  0.27509000  1.0
  H  H9  1  0.44918000  0.01185000  0.32104000  1.0
  H  H10  1  0.47133000  0.95233000  0.41877000  1.0
  H  H11  1  0.98291000  0.66829000  0.91480000  1.0
  H  H12  1  0.91493000  0.51202000  0.93228000  1.0
  H  H13  1  0.27433000  0.45424000  0.84723000  1.0
  H  H14  1  0.34443000  0.61267000  0.83210000  1.0
  H  H15  1  0.07510000  0.24322000  0.01429000  1.0
  H  H16  1  0.49431000  0.16739000  0.02905000  1.0
  H  H17  1  0.60051000  0.28598000  0.97734000  1.0
  H  H18  1  0.69112000  0.43413000  0.97277000  1.0
  H  H19  1  0.60117000  0.35118000  0.89535000  1.0
  H  H20  1  0.61432000  0.46956000  0.90454000  1.0
  H  H21  1  0.57251000  0.55662000  0.80489000  1.0
  H  H22  1  0.01061000  0.56238000  0.70449000  1.0
  H  H23  1  0.93777000  0.70351000  0.73577000  1.0
  H  H24  1  0.95901000  0.40665000  0.64508000  1.0
  H  H25  1  0.10106000  0.44272000  0.72236000  1.0
  H  H26  1  0.99352000  0.32378000  0.68611000  1.0
  H  H27  1  0.23854000  0.27627000  0.79712000  1.0
  H  H28  1  0.20195000  0.15408000  0.85328000  1.0
  H  H29  1  0.59366000  0.08549000  0.80359000  1.0
  H  H30  1  0.63226000  0.20789000  0.74647000  1.0
  H  H31  1  0.52700000  0.72872000  0.67300000  1.0
  H  H32  1  0.42286000  0.79111000  0.65866000  1.0
  H  H33  1  0.13536000  0.16146000  0.32698000  1.0
  H  H34  1  0.27529000  0.16253000  0.43579000  1.0
  H  H35  1  0.69855000  0.07479000  0.37277000  1.0
  H  H36  1  0.34939000  0.22085000  0.55167000  1.0
  H  H37  1  0.34423000  0.10497000  0.51646000  1.0
  H  H38  1  0.32436000  0.13875000  0.59655000  1.0
  H  H39  1  0.02858000  0.15636000  0.62928000  1.0
  H  H40  1  0.04817000  0.09307000  0.72491000  1.0
  H  H41  1  0.55083000  0.98816000  0.67896000  1.0
  H  H42  1  0.52868000  0.04767000  0.58123000  1.0
  H  H43  1  0.01710000  0.33172000  0.08520000  1.0
  H  H44  1  0.08508000  0.48798000  0.06772000  1.0
  H  H45  1  0.72568000  0.54576000  0.15277000  1.0
  H  H46  1  0.65558000  0.38734000  0.16791000  1.0
  H  H47  1  0.92491000  0.75679000  0.98571000  1.0
  H  H48  1  0.50570000  0.83262000  0.97096000  1.0
  H  H49  1  0.39950000  0.71403000  0.02266000  1.0
  H  H50  1  0.30889000  0.56587000  0.02723000  1.0
  H  H51  1  0.39884000  0.64882000  0.10465000  1.0
  H  H52  1  0.38569000  0.53044000  0.09547000  1.0
  H  H53  1  0.42749000  0.44338000  0.19511000  1.0
  H  H54  1  0.98940000  0.43762000  0.29551000  1.0
  H  H55  1  0.06224000  0.29650000  0.26424000  1.0
  H  H56  1  0.04100000  0.59336000  0.35492000  1.0
  H  H57  1  0.89895000  0.55729000  0.27765000  1.0
  H  H58  1  0.00649000  0.67622000  0.31389000  1.0
  H  H59  1  0.76147000  0.72374000  0.20288000  1.0
  H  H60  1  0.79806000  0.84592000  0.14672000  1.0
  H  H61  1  0.40635000  0.91451000  0.19641000  1.0
  H  H62  1  0.36774000  0.79211000  0.25353000  1.0
  H  H63  1  0.47300000  0.27128000  0.32700000  1.0
  H  H64  1  0.57715000  0.20890000  0.34134000  1.0
  C  C1  1  0.17843000  0.87608000  0.72062000  1.0
  C  C2  1  0.09238000  0.88077000  0.65768000  1.0
  C  C3  1  0.92960000  0.85726000  0.63916000  1.0
  C  C4  1  0.85077000  0.85636000  0.57807000  1.0
  C  C5  1  0.93358000  0.87962000  0.53377000  1.0
  C  C6  1  0.09767000  0.90543000  0.55373000  1.0
  C  C7  1  0.17534000  0.90577000  0.61406000  1.0
  C  C8  1  0.70201000  0.85187000  0.45165000  1.0
  C  C9  1  0.22252000  0.89331000  0.39857000  1.0
  C  C10  1  0.07494000  0.87981000  0.35912000  1.0
  C  C11  1  0.06436000  0.91485000  0.30612000  1.0
  C  C12  1  0.19967000  0.96177000  0.29246000  1.0
  C  C13  1  0.34621000  0.97502000  0.33277000  1.0
  C  C14  1  0.35877000  0.94139000  0.38655000  1.0
  C  C15  1  0.19031000  0.00072000  0.23591000  1.0
  C  C16  1  0.20460000  0.74318000  0.86225000  1.0
  C  C17  1  0.16743000  0.64945000  0.87283000  1.0
  C  C18  1  0.04690000  0.62145000  0.90099000  1.0
  C  C19  1  0.00798000  0.53418000  0.91033000  1.0
  C  C20  1  0.09069000  0.47503000  0.89065000  1.0
  C  C21  1  0.21202000  0.50162000  0.86233000  1.0
  C  C22  1  0.25043000  0.58946000  0.85366000  1.0
  C  C23  1  0.25355000  0.32312000  0.98131000  1.0
  C  C24  1  0.19074000  0.25343000  0.00704000  1.0
  C  C25  1  0.27846000  0.19746000  0.02542000  1.0
  C  C26  1  0.42649000  0.21073000  0.01480000  1.0
  C  C27  1  0.48675000  0.27783000  0.98616000  1.0
  C  C28  1  0.40117000  0.33559000  0.96914000  1.0
  C  C29  1  0.22044000  0.13129000  0.06090000  1.0
  C  C30  1  0.59895000  0.41414000  0.92785000  1.0
  C  C31  1  0.70157000  0.72260000  0.79065000  1.0
  C  C32  1  0.75017000  0.63998000  0.77241000  1.0
  C  C33  1  0.66869000  0.55823000  0.78325000  1.0
  C  C34  1  0.71139000  0.47992000  0.76662000  1.0
  C  C35  1  0.83504000  0.47892000  0.73776000  1.0
  C  C36  1  0.91483000  0.56081000  0.72635000  1.0
  C  C37  1  0.87313000  0.64023000  0.74384000  1.0
  C  C38  1  0.98862000  0.39409000  0.69239000  1.0
  C  C39  1  0.43544000  0.24755000  0.76798000  1.0
  C  C40  1  0.31469000  0.23376000  0.79781000  1.0
  C  C41  1  0.29515000  0.16548000  0.82976000  1.0
  C  C42  1  0.39611000  0.11222000  0.83176000  1.0
  C  C43  1  0.51689000  0.12754000  0.80153000  1.0
  C  C44  1  0.53767000  0.19510000  0.76926000  1.0
  C  C45  1  0.37370000  0.03632000  0.86403000  1.0
  C  C46  1  0.82158000  0.12393000  0.27938000  1.0
  C  C47  1  0.90763000  0.11923000  0.34232000  1.0
  C  C48  1  0.07041000  0.14275000  0.36084000  1.0
  C  C49  1  0.14924000  0.14364000  0.42193000  1.0
  C  C50  1  0.06643000  0.12039000  0.46623000  1.0
  C  C51  1  0.90234000  0.09457000  0.44628000  1.0
  C  C52  1  0.82467000  0.09423000  0.38595000  1.0
  C  C53  1  0.29800000  0.14814000  0.54835000  1.0
  C  C54  1  0.77749000  0.10669000  0.60143000  1.0
  C  C55  1  0.92507000  0.12020000  0.64089000  1.0
  C  C56  1  0.93565000  0.08516000  0.69389000  1.0
  C  C57  1  0.80034000  0.03823000  0.70754000  1.0
  C  C58  1  0.65380000  0.02499000  0.66723000  1.0
  C  C59  1  0.64124000  0.05861000  0.61345000  1.0
  C  C60  1  0.80970000  0.99929000  0.76410000  1.0
  C  C61  1  0.79541000  0.25683000  0.13775000  1.0
  C  C62  1  0.83258000  0.35055000  0.12718000  1.0
  C  C63  1  0.95311000  0.37856000  0.09901000  1.0
  C  C64  1  0.99202000  0.46583000  0.08967000  1.0
  C  C65  1  0.90932000  0.52498000  0.10935000  1.0
  C  C66  1  0.78799000  0.49838000  0.13767000  1.0
  C  C67  1  0.74958000  0.41055000  0.14634000  1.0
  C  C68  1  0.74646000  0.67689000  0.01869000  1.0
  C  C69  1  0.80927000  0.74657000  0.99296000  1.0
  C  C70  1  0.72155000  0.80255000  0.97458000  1.0
  C  C71  1  0.57352000  0.78927000  0.98521000  1.0
  C  C72  1  0.51326000  0.72217000  0.01385000  1.0
  C  C73  1  0.59883000  0.66441000  0.03086000  1.0
  C  C74  1  0.77957000  0.86871000  0.93910000  1.0
  C  C75  1  0.40106000  0.58586000  0.07215000  1.0
  C  C76  1  0.29843000  0.27740000  0.20935000  1.0
  C  C77  1  0.24984000  0.36003000  0.22759000  1.0
  C  C78  1  0.33131000  0.44177000  0.21676000  1.0
  C  C79  1  0.28862000  0.52008000  0.23338000  1.0
  C  C80  1  0.16497000  0.52109000  0.26224000  1.0
  C  C81  1  0.08518000  0.43920000  0.27365000  1.0
  C  C82  1  0.12688000  0.35977000  0.25616000  1.0
  C  C83  1  0.01139000  0.60592000  0.30761000  1.0
  C  C84  1  0.56457000  0.75246000  0.23202000  1.0
  C  C85  1  0.68531000  0.76624000  0.20220000  1.0
  C  C86  1  0.70486000  0.83452000  0.17024000  1.0
  C  C87  1  0.60390000  0.88779000  0.16824000  1.0
  C  C88  1  0.48312000  0.87246000  0.19847000  1.0
  C  C89  1  0.46234000  0.80490000  0.23075000  1.0
  C  C90  1  0.62631000  0.96369000  0.13597000  1.0
  S  S1  1  0.23298000  0.84974000  0.46634000  1.0
  S  S2  1  0.03895000  0.36421000  0.90303000  1.0
  S  S3  1  0.46449000  0.33682000  0.73019000  1.0
  S  S4  1  0.76703000  0.15026000  0.53366000  1.0
  S  S5  1  0.96106000  0.63579000  0.09698000  1.0
  S  S6  1  0.53552000  0.66318000  0.26982000  1.0
  O  O1  1  0.10352000  0.86158000  0.76216000  1.0
  O  O2  1  0.32303000  0.88464000  0.72947000  1.0
  O  O3  1  0.86962000  0.87900000  0.47302000  1.0
  O  O4  1  0.18362000  0.93191000  0.51143000  1.0
  O  O5  1  0.11194000  0.76255000  0.45190000  1.0
  O  O6  1  0.39310000  0.85924000  0.49698000  1.0
  O  O7  1  0.05750000  0.99533000  0.20246000  1.0
  O  O8  1  0.31877000  0.03761000  0.22519000  1.0
  O  O9  1  0.12604000  0.79447000  0.88158000  1.0
  O  O10  1  0.31067000  0.76587000  0.83459000  1.0
  O  O11  1  0.89082000  0.34532000  0.91864000  1.0
  O  O12  1  0.06665000  0.29750000  0.85357000  1.0
  O  O13  1  0.17608000  0.38763000  0.97158000  1.0
  O  O14  1  0.46668000  0.98952000  0.86424000  1.0
  O  O15  1  0.25877000  0.02163000  0.88922000  1.0
  O  O16  1  0.07640000  0.10918000  0.06057000  1.0
  O  O17  1  0.31779000  0.10089000  0.09245000  1.0
  O  O18  1  0.35076000  0.38512000  0.73694000  1.0
  O  O19  1  0.63571000  0.40016000  0.78143000  1.0
  O  O20  1  0.46808000  0.76554000  0.69137000  1.0
  O  O21  1  0.57167000  0.71459000  0.80374000  1.0
  O  O22  1  0.44898000  0.40268000  0.94102000  1.0
  O  O23  1  0.78997000  0.80181000  0.79095000  1.0
  O  O24  1  0.86700000  0.39856000  0.72421000  1.0
  O  O25  1  0.48994000  0.30668000  0.66741000  1.0
  O  O26  1  0.89649000  0.13843000  0.23784000  1.0
  O  O27  1  0.67697000  0.11536000  0.27054000  1.0
  O  O28  1  0.13039000  0.12101000  0.52699000  1.0
  O  O29  1  0.81639000  0.06809000  0.48857000  1.0
  O  O30  1  0.88807000  0.23745000  0.54810000  1.0
  O  O31  1  0.60691000  0.14077000  0.50302000  1.0
  O  O32  1  0.94251000  0.00468000  0.79754000  1.0
  O  O33  1  0.68124000  0.96239000  0.77481000  1.0
  O  O34  1  0.87397000  0.20553000  0.11843000  1.0
  O  O35  1  0.68934000  0.23413000  0.16541000  1.0
  O  O36  1  0.10919000  0.65468000  0.08136000  1.0
  O  O37  1  0.93336000  0.70251000  0.14643000  1.0
  O  O38  1  0.82393000  0.61238000  0.02842000  1.0
  O  O39  1  0.53333000  0.01048000  0.13576000  1.0
  O  O40  1  0.74124000  0.97837000  0.11078000  1.0
  O  O41  1  0.92360000  0.89082000  0.93943000  1.0
  O  O42  1  0.68222000  0.89912000  0.90755000  1.0
  O  O43  1  0.64925000  0.61488000  0.26307000  1.0
  O  O44  1  0.36430000  0.59984000  0.21857000  1.0
  O  O45  1  0.53193000  0.23446000  0.30863000  1.0
  O  O46  1  0.42834000  0.28541000  0.19627000  1.0
  O  O47  1  0.55103000  0.59732000  0.05898000  1.0
  O  O48  1  0.21004000  0.19819000  0.20905000  1.0
  O  O49  1  0.13301000  0.60144000  0.27579000  1.0
  O  O50  1  0.51007000  0.69332000  0.33259000  1.0
