# generated using pymatgen
data_H36C53N4
_symmetry_space_group_name_H-M   'P 1'
_cell_length_a   51.11340000
_cell_length_b   51.11330000
_cell_length_c   67.01780000
_cell_angle_alpha   89.99160000
_cell_angle_beta   90.00840000
_cell_angle_gamma   90.00000000
_symmetry_Int_Tables_number   1
_chemical_formula_structural   H36C53N4
_chemical_formula_sum   'H288 C424 N32'
_cell_volume   175088.99479437
_cell_formula_units_Z   8
loop_
 _symmetry_equiv_pos_site_id
 _symmetry_equiv_pos_as_xyz
  1  'x, y, z'
loop_
 _atom_site_type_symbol
 _atom_site_label
 _atom_site_symmetry_multiplicity
 _atom_site_fract_x
 _atom_site_fract_y
 _atom_site_fract_z
 _atom_site_occupancy
  H  26  1  0.73434500  0.96904500  0.61079200  1
  H  27  1  0.73528300  0.97131000  0.64621200  1
  H  28  1  0.73788500  0.05134400  0.60755200  1
  H  29  1  0.73861600  0.05375400  0.64298300  1
  H  30  1  0.70540700  0.05764200  0.67210700  1
  H  31  1  0.65921800  0.06039600  0.67465400  1
  H  32  1  0.65438400  0.97806800  0.67684000  1
  H  33  1  0.70067500  0.97523100  0.67432200  1
  H  34  1  0.72675500  0.99058700  0.70766100  1
  H  35  1  0.74972500  0.95746800  0.72531000  1
  H  36  1  0.80627300  0.95465100  0.67960500  1
  H  37  1  0.78326800  0.98760700  0.66181100  1
  H  38  1  0.78434500  0.03758900  0.65911600  1
  H  39  1  0.73035100  0.04124800  0.70669700  1
  H  40  1  0.75639800  0.07383500  0.72235900  1
  H  45  1  0.81005300  0.07028200  0.67462100  1
  H  71  1  0.29142300  0.06049800  0.61054100  1
  H  72  1  0.29075500  0.05910000  0.64595200  1
  H  73  1  0.29800300  0.97833200  0.60856100  1
  H  74  1  0.29740900  0.97677800  0.64407500  1
  H  75  1  0.32575800  0.97303800  0.67719900  1
  H  76  1  0.37199700  0.97091000  0.68024000  1
  H  77  1  0.37677900  0.05264100  0.67288800  1
  H  78  1  0.33040700  0.05499500  0.67024700  1
  H  79  1  0.30692100  0.04387100  0.70628300  1
  H  80  1  0.28418900  0.07746800  0.72346200  1
  H  81  1  0.22305000  0.07334800  0.68137400  1
  H  82  1  0.24589600  0.03990600  0.66395400  1
  H  83  1  0.24907400  0.98953900  0.65792500  1
  H  84  1  0.29789500  0.99298400  0.70868300  1
  H  85  1  0.27200000  0.96023300  0.72437200  1
  H  90  1  0.22364500  0.95665900  0.67345300  1
  H  116  1  0.96877400  0.29665600  0.11095600  1
  H  117  1  0.97121900  0.29574100  0.14636700  1
  H  118  1  0.05103700  0.29271600  0.10748800  1
  H  119  1  0.05362700  0.29202300  0.14291700  1
  H  120  1  0.05759600  0.32544900  0.17193800  1
  H  121  1  0.06035300  0.37164000  0.17445700  1
  H  122  1  0.97804300  0.37643100  0.17705500  1
  H  123  1  0.97521200  0.33014400  0.17456400  1
  H  124  1  0.99072300  0.30396000  0.20777600  1
  H  125  1  0.95763600  0.28096700  0.22544000  1
  H  126  1  0.95462200  0.22456600  0.17963500  1
  H  127  1  0.98753700  0.24759800  0.16183000  1
  H  128  1  0.03749500  0.24643700  0.15920300  1
  H  129  1  0.04139500  0.30057400  0.20666900  1
  H  130  1  0.07396700  0.27451300  0.22234000  1
  H  135  1  0.07017000  0.22070100  0.17471900  1
  H  161  1  0.06036200  0.73931900  0.11040700  1
  H  162  1  0.05909000  0.74003800  0.14582300  1
  H  163  1  0.97818400  0.73276400  0.10858800  1
  H  164  1  0.97675900  0.73342200  0.14409600  1
  H  165  1  0.97309700  0.70512400  0.17719900  1
  H  166  1  0.97092600  0.65889200  0.18026400  1
  H  167  1  0.05263500  0.65401100  0.17284100  1
  H  168  1  0.05503700  0.70038100  0.17017000  1
  H  169  1  0.04395400  0.72391500  0.20621300  1
  H  170  1  0.07756700  0.74663600  0.22338600  1
  H  171  1  0.07352100  0.80772800  0.18125200  1
  H  172  1  0.04005700  0.78489400  0.16383400  1
  H  173  1  0.98965100  0.78178400  0.15788200  1
  H  174  1  0.99309200  0.73296900  0.20864500  1
  H  175  1  0.96034800  0.75887400  0.22432600  1
  H  180  1  0.95677800  0.80722200  0.17340000  1
  H  206  1  0.73257700  0.06091200  0.39200300  1
  H  207  1  0.73357600  0.05885500  0.35658300  1
  H  208  1  0.73960300  0.97884000  0.39497300  1
  H  209  1  0.74060600  0.97668300  0.35959900  1
  H  210  1  0.70476300  0.97414000  0.33284800  1
  H  211  1  0.65867500  0.97207000  0.32975600  1
  H  212  1  0.65563900  0.05404400  0.32286100  1
  H  213  1  0.70192700  0.05616800  0.32585800  1
  H  214  1  0.72967700  0.03699200  0.29380100  1
  H  215  1  0.75276700  0.06980500  0.27588400  1
  H  216  1  0.80469100  0.07885400  0.32427700  1
  H  217  1  0.78182100  0.04593100  0.34218400  1
  H  218  1  0.78621500  0.99537000  0.34193000  1
  H  219  1  0.72840600  0.98651500  0.29746300  1
  H  220  1  0.75312200  0.95219700  0.28280900  1
  H  225  1  0.81102100  0.96114800  0.32703300  1
  H  251  1  0.29239700  0.96983900  0.39228000  1
  H  252  1  0.29149200  0.97133400  0.35690700  1
  H  253  1  0.29939000  0.05197400  0.39431500  1
  H  254  1  0.29829300  0.05358000  0.35886800  1
  H  255  1  0.32640500  0.05690000  0.32646000  1
  H  256  1  0.37252300  0.05812400  0.32235300  1
  H  257  1  0.37565000  0.97601500  0.32718800  1
  H  258  1  0.32931300  0.97456800  0.33082300  1
  H  259  1  0.30428500  0.98908400  0.29530100  1
  H  260  1  0.28087900  0.95602000  0.27797100  1
  H  261  1  0.22326300  0.95596500  0.32296700  1
  H  262  1  0.24659700  0.98912200  0.34038700  1
  H  263  1  0.24830500  0.03945500  0.34532000  1
  H  264  1  0.29796200  0.03974000  0.29501000  1
  H  265  1  0.27275000  0.07410000  0.28074600  1
  H  270  1  0.22312500  0.07369700  0.33091200  1
  H  296  1  0.96976900  0.73248800  0.89206200  1
  H  297  1  0.97186900  0.73349600  0.85664600  1
  H  298  1  0.05185400  0.73931500  0.89509000  1
  H  299  1  0.05405200  0.74033300  0.85971300  1
  H  300  1  0.05662500  0.70464000  0.83283700  1
  H  301  1  0.05868500  0.65856000  0.82968100  1
  H  302  1  0.97669400  0.65555100  0.82289500  1
  H  303  1  0.97458300  0.70183300  0.82594900  1
  H  304  1  0.99372600  0.72961900  0.79388800  1
  H  305  1  0.96092200  0.75275700  0.77599400  1
  H  306  1  0.95197800  0.80465400  0.82440300  1
  H  307  1  0.98489000  0.78173100  0.84228800  1
  H  308  1  0.03543900  0.78602900  0.84212600  1
  H  309  1  0.04420700  0.72842300  0.79750800  1
  H  310  1  0.07854400  0.75318200  0.78290400  1
  H  315  1  0.06967800  0.81087000  0.82727900  1
  H  341  1  0.06074700  0.29208200  0.89223400  1
  H  342  1  0.05934200  0.29115200  0.85685700  1
  H  343  1  0.97865400  0.29963000  0.89413300  1
  H  344  1  0.97713300  0.29848400  0.85869000  1
  H  345  1  0.97378700  0.32624600  0.82607200  1
  H  346  1  0.97256900  0.37236200  0.82193700  1
  H  347  1  0.05463100  0.37554600  0.82721500  1
  H  348  1  0.05607700  0.32921100  0.83087500  1
  H  349  1  0.04179200  0.30424600  0.79525000  1
  H  350  1  0.07489000  0.28083100  0.77796900  1
  H  351  1  0.07465200  0.22308200  0.82287800  1
  H  352  1  0.04146200  0.24642500  0.84025600  1
  H  353  1  0.99115000  0.24830600  0.84539200  1
  H  354  1  0.99107700  0.29759100  0.79485200  1
  H  355  1  0.95668500  0.27233800  0.78066100  1
  H  360  1  0.95689100  0.22308400  0.83105700  1
  H  367  1  0.89926600  0.86662300  0.73403600  1
  H  368  1  0.93394100  0.83845900  0.74445200  1
  H  375  1  0.82098700  0.83708500  0.74072100  1
  H  376  1  0.78678300  0.86567500  0.72999100  1
  H  377  1  0.83646900  0.93075600  0.73892600  1
  H  378  1  0.88174800  0.79870300  0.78286800  1
  H  379  1  0.87050600  0.90221300  0.74990200  1
  H  380  1  0.84716800  0.82710600  0.77264400  1
  H  383  1  0.94424400  0.79357200  0.76058500  1
  H  384  1  0.77048200  0.91428100  0.73079100  1
  H  391  1  0.13219100  0.16499900  0.73413500  1
  H  392  1  0.09748600  0.19293700  0.74487800  1
  H  399  1  0.21015600  0.19523300  0.73983600  1
  H  400  1  0.24441100  0.16699400  0.72869200  1
  H  401  1  0.19573300  0.10138300  0.73858600  1
  H  402  1  0.14999500  0.23292300  0.78290500  1
  H  403  1  0.16163900  0.12958800  0.74992200  1
  H  404  1  0.18462900  0.20478900  0.77231700  1
  H  407  1  0.08782700  0.23854600  0.76094300  1
  H  408  1  0.26145000  0.11912900  0.72899300  1
  H  415  1  0.86658400  0.13153000  0.23393200  1
  H  416  1  0.83840200  0.09685800  0.24431700  1
  H  423  1  0.83710300  0.20982600  0.24065000  1
  H  424  1  0.86574000  0.24402800  0.22999400  1
  H  425  1  0.93076600  0.19427600  0.23896700  1
  H  426  1  0.79865400  0.14903500  0.28274400  1
  H  427  1  0.90217700  0.16024000  0.24986700  1
  H  428  1  0.82707600  0.18361100  0.27255200  1
  H  431  1  0.79353000  0.08654100  0.26045200  1
  H  432  1  0.91436900  0.26028800  0.23087500  1
  H  439  1  0.16515900  0.89859700  0.23408700  1
  H  440  1  0.19309300  0.93329700  0.24485500  1
  H  447  1  0.19534400  0.82061000  0.23983500  1
  H  448  1  0.16709500  0.78636600  0.22867500  1
  H  449  1  0.10150700  0.83509700  0.23849100  1
  H  450  1  0.23301800  0.88078200  0.28292500  1
  H  451  1  0.12972100  0.86917700  0.24984300  1
  H  452  1  0.20488800  0.84615400  0.27231100  1
  H  455  1  0.23869100  0.94294000  0.26096200  1
  H  456  1  0.11919900  0.76936700  0.22896600  1
  H  463  1  0.13590400  0.13788600  0.24060600  1
  H  464  1  0.10319800  0.15740700  0.22018100  1
  H  471  1  0.20928200  0.17667600  0.24210800  1
  H  472  1  0.24246100  0.15309900  0.25941800  1
  H  473  1  0.18446500  0.11636000  0.29470400  1
  H  474  1  0.13984500  0.23106500  0.22708900  1
  H  475  1  0.15144100  0.14001900  0.27740700  1
  H  476  1  0.17238300  0.21147000  0.24780500  1
  H  479  1  0.08937600  0.19506000  0.20017400  1
  H  480  1  0.25507700  0.12151100  0.28496300  1
  H  487  1  0.89490900  0.89224000  0.24089900  1
  H  488  1  0.92773100  0.87260700  0.22060000  1
  H  495  1  0.82046000  0.85535200  0.24023800  1
  H  496  1  0.78732600  0.87870100  0.25780200  1
  H  497  1  0.84515000  0.91240900  0.29494900  1
  H  498  1  0.88890600  0.79976700  0.22515200  1
  H  499  1  0.87815800  0.88899600  0.27738800  1
  H  500  1  0.85623900  0.81943600  0.24572300  1
  H  503  1  0.93984100  0.83504800  0.19904000  1
  H  504  1  0.77482400  0.90771500  0.28553200  1
  H  511  1  0.13853900  0.89479700  0.74087300  1
  H  512  1  0.15820300  0.92756600  0.72053700  1
  H  519  1  0.17563100  0.82043000  0.74055100  1
  H  520  1  0.15227500  0.78731100  0.75813000  1
  H  521  1  0.11816800  0.84521100  0.79498300  1
  H  522  1  0.23110700  0.88893100  0.72542500  1
  H  523  1  0.14159100  0.87820400  0.77740700  1
  H  524  1  0.21140600  0.85632000  0.74603500  1
  H  527  1  0.19582400  0.93972100  0.69909300  1
  H  528  1  0.12308000  0.77484000  0.78572300  1
  H  535  1  0.89272600  0.13615400  0.74055400  1
  H  536  1  0.87330100  0.10356600  0.71997000  1
  H  543  1  0.85379400  0.20938900  0.74234600  1
  H  544  1  0.87738000  0.24247900  0.75974300  1
  H  545  1  0.91415400  0.18429900  0.79484400  1
  H  546  1  0.79953200  0.13992900  0.72705500  1
  H  547  1  0.89049300  0.15136200  0.77745800  1
  H  548  1  0.81903400  0.17235400  0.74792700  1
  H  551  1  0.83564600  0.08996600  0.69978900  1
  H  552  1  0.90898300  0.25495200  0.78534100  1
  H  559  1  0.49869200  0.02181900  0.71360200  1
  H  560  1  0.45312800  0.01240000  0.71713200  1
  H  567  1  0.52428300  0.04177800  0.65414300  1
  H  568  1  0.56963200  0.05148900  0.65018600  1
  H  569  1  0.58661800  0.00822600  0.70239900  1
  H  570  1  0.44902700  0.99289500  0.65590900  1
  H  571  1  0.54137500  0.99807300  0.70608400  1
  H  572  1  0.49469000  0.00176000  0.65246700  1
  H  575  1  0.41384700  0.98503500  0.69889900  1
  H  576  1  0.61388600  0.05344600  0.66721800  1
  H  583  1  0.02177800  0.53215400  0.21357800  1
  H  584  1  0.01237600  0.57772300  0.21711100  1
  H  591  1  0.04166500  0.50657500  0.15411000  1
  H  592  1  0.05138000  0.46122800  0.15014500  1
  H  593  1  0.00818000  0.44422400  0.20237500  1
  H  594  1  0.99279200  0.58182300  0.15589900  1
  H  595  1  0.99802100  0.48946600  0.20606900  1
  H  596  1  0.00163800  0.53615900  0.15245200  1
  H  599  1  0.98504700  0.61701100  0.19891900  1
  H  600  1  0.05336300  0.41697400  0.16715900  1
  H  607  1  0.49922100  0.00910600  0.28694200  1
  H  608  1  0.45333200  0.01677600  0.28311300  1
  H  615  1  0.52406300  0.98938000  0.34649800  1
  H  616  1  0.56946100  0.98069400  0.35108300  1
  H  617  1  0.58682500  0.02499400  0.29945300  1
  H  618  1  0.44784800  0.03597200  0.34432800  1
  H  619  1  0.54140300  0.03410200  0.29512200  1
  H  620  1  0.49372300  0.02881500  0.34806900  1
  H  623  1  0.41285500  0.04239600  0.30098100  1
  H  624  1  0.61380700  0.97987800  0.33523800  1
  H  631  1  0.02157700  0.49916800  0.78681200  1
  H  632  1  0.01388900  0.45328800  0.78295800  1
  H  639  1  0.04142500  0.52393100  0.84636800  1
  H  640  1  0.05010000  0.56932300  0.85097100  1
  H  641  1  0.00570500  0.58674700  0.79940000  1
  H  642  1  0.99484300  0.44769900  0.84419500  1
  H  643  1  0.99660400  0.54132900  0.79504900  1
  H  644  1  0.00201800  0.49356600  0.84796300  1
  H  647  1  0.98832200  0.41279200  0.80080100  1
  H  648  1  0.05087600  0.61368800  0.83515600  1
  H  655  1  0.76629700  0.04306500  0.49449700  1
  H  656  1  0.77051000  0.05335500  0.45992300  1
  H  663  1  0.68969600  0.01818900  0.51422600  1
  H  664  1  0.68572700  0.00795800  0.54887800  1
  H  665  1  0.76711000  0.99374900  0.55186400  1
  H  666  1  0.70456000  0.00627400  0.44719200  1
  H  667  1  0.77100200  0.00337800  0.51709700  1
  H  668  1  0.70074600  0.99554500  0.48165300  1
  H  671  1  0.74767600  0.05429800  0.42626500  1
  H  672  1  0.71146000  0.98137700  0.57842000  1
  H  679  1  0.26270200  0.98910800  0.49444000  1
  H  680  1  0.25824100  0.97948000  0.45981200  1
  H  687  1  0.33994200  0.01206100  0.51433700  1
  H  688  1  0.34419200  0.02149100  0.54910900  1
  H  689  1  0.26306400  0.03693800  0.55242200  1
  H  690  1  0.32528700  0.02519000  0.44749000  1
  H  691  1  0.25890100  0.02815300  0.51754900  1
  H  692  1  0.32931200  0.03531000  0.48202100  1
  H  695  1  0.27934400  0.97905000  0.42623200  1
  H  696  1  0.31806600  0.04888100  0.57883900  1
  H  703  1  0.04045300  0.26295900  0.99447900  1
  H  704  1  0.05049500  0.25836400  0.95992500  1
  H  711  1  0.01776000  0.34036600  0.01404000  1
  H  712  1  0.00811900  0.34478400  0.04875400  1
  H  713  1  0.99205300  0.26377700  0.05215700  1
  H  714  1  0.00527500  0.32561100  0.94716700  1
  H  715  1  0.00107000  0.25945300  0.01733000  1
  H  716  1  0.99474100  0.32977100  0.98161300  1
  H  719  1  0.05144500  0.27947600  0.92628700  1
  H  720  1  0.98128000  0.31975200  0.07859600  1
  H  727  1  0.98684300  0.76665900  0.99443400  1
  H  728  1  0.97693300  0.77072100  0.95978900  1
  H  735  1  0.01177100  0.69017100  0.01451000  1
  H  736  1  0.02176400  0.68634500  0.04922300  1
  H  737  1  0.03555100  0.76780100  0.05212200  1
  H  738  1  0.02430600  0.70483700  0.94751700  1
  H  739  1  0.02618300  0.77155200  0.01730300  1
  H  740  1  0.03466000  0.70117700  0.98205500  1
  H  743  1  0.97641100  0.74793100  0.92621500  1
  H  744  1  0.04897200  0.71316200  0.07863900  1
  C  1  1  0.78558300  0.07539300  0.69996000  1
  C  2  1  0.76206700  0.06681000  0.70871800  1
  C  3  1  0.74663900  0.04765300  0.69932600  1
  C  4  1  0.75339200  0.03702500  0.68040900  1
  C  5  1  0.77749800  0.04556100  0.67208300  1
  C  6  1  0.79305300  0.06464800  0.68140100  1
  C  7  1  0.73799200  0.01432200  0.67135200  1
  C  8  1  0.75120000  0.99135300  0.68191900  1
  C  9  1  0.77522100  0.98088800  0.67479400  1
  C  10  1  0.78902800  0.96154700  0.68534000  1
  C  11  1  0.77955800  0.95206800  0.70368300  1
  C  12  1  0.75637000  0.96295600  0.71154100  1
  C  13  1  0.74279100  0.98248700  0.70098000  1
  C  14  1  0.70845800  0.01617600  0.67445400  1
  C  15  1  0.73900300  0.01272200  0.64860200  1
  C  16  1  0.73652400  0.98844400  0.63841300  1
  C  17  1  0.73555500  0.98699200  0.61747800  1
  C  18  1  0.73619300  0.01000900  0.60586500  1
  C  19  1  0.73784600  0.03432800  0.61562000  1
  C  20  1  0.73848400  0.03562300  0.63656400  1
  C  21  1  0.69517200  0.04059500  0.67369000  1
  C  22  1  0.66777000  0.04232000  0.67487300  1
  C  23  1  0.65237900  0.01945300  0.67618000  1
  C  24  1  0.66506400  0.99500700  0.67628500  1
  C  25  1  0.69246400  0.99343800  0.67498200  1
  C  46  1  0.24547800  0.95517200  0.70039900  1
  C  47  1  0.26742900  0.96584700  0.71012200  1
  C  48  1  0.28275000  0.98509700  0.70074100  1
  C  49  1  0.27758100  0.99369900  0.68094500  1
  C  50  1  0.25500000  0.98303500  0.67160800  1
  C  51  1  0.23950700  0.96389100  0.68093100  1
  C  52  1  0.29308800  0.01630800  0.67181600  1
  C  53  1  0.27998200  0.03946200  0.68222900  1
  C  54  1  0.25479800  0.04813400  0.67608500  1
  C  55  1  0.24114600  0.06779300  0.68639100  1
  C  56  1  0.25196000  0.07941100  0.70354900  1
  C  57  1  0.27642300  0.07037800  0.71048100  1
  C  58  1  0.28990100  0.05057700  0.70014800  1
  C  59  1  0.32261800  0.01455000  0.67508000  1
  C  60  1  0.29210000  0.01758600  0.64903800  1
  C  61  1  0.29151100  0.04170900  0.63847100  1
  C  62  1  0.29240900  0.04272200  0.61751800  1
  C  63  1  0.29468400  0.01951700  0.60626300  1
  C  64  1  0.29601800  0.99542900  0.61637700  1
  C  65  1  0.29550600  0.99462300  0.63734000  1
  C  66  1  0.33588800  0.99026200  0.67722300  1
  C  67  1  0.36327300  0.98883600  0.67888700  1
  C  68  1  0.37859200  0.01174800  0.67781700  1
  C  69  1  0.36604800  0.03583900  0.67441200  1
  C  70  1  0.33865000  0.03712800  0.67297800  1
  C  91  1  0.07539700  0.24524700  0.20000100  1
  C  92  1  0.06690200  0.26881800  0.20871500  1
  C  93  1  0.04776000  0.28426000  0.19931300  1
  C  94  1  0.03705700  0.27747100  0.18042400  1
  C  95  1  0.04551700  0.25330900  0.17214400  1
  C  96  1  0.06460000  0.23774600  0.18146500  1
  C  97  1  0.01431200  0.29284100  0.17139600  1
  C  98  1  0.99137700  0.27960900  0.18198200  1
  C  99  1  0.98087500  0.25560700  0.17484300  1
  C  100  1  0.96155700  0.24178300  0.18539400  1
  C  101  1  0.95215100  0.25120200  0.20377000  1
  C  102  1  0.96308100  0.27435700  0.21165100  1
  C  103  1  0.98259300  0.28794600  0.20108400  1
  C  104  1  0.01615900  0.32237100  0.17450500  1
  C  105  1  0.01262500  0.29182200  0.14865300  1
  C  106  1  0.98831000  0.29443000  0.13852300  1
  C  107  1  0.98675100  0.29538100  0.11759300  1
  C  108  1  0.00970300  0.29462800  0.10591800  1
  C  109  1  0.03406500  0.29287300  0.11560500  1
  C  110  1  0.03546400  0.29223700  0.13654800  1
  C  111  1  0.04056000  0.33567900  0.17360000  1
  C  112  1  0.04228300  0.36308200  0.17477000  1
  C  113  1  0.01942100  0.37846100  0.17619100  1
  C  114  1  0.99498400  0.36576200  0.17641500  1
  C  115  1  0.99342100  0.33835900  0.17513400  1
  C  136  1  0.95529400  0.78539800  0.20035100  1
  C  137  1  0.96597400  0.76345200  0.21008200  1
  C  138  1  0.98521500  0.74812400  0.20070400  1
  C  139  1  0.99380500  0.75328100  0.18090400  1
  C  140  1  0.98316000  0.77587300  0.17157000  1
  C  141  1  0.96401300  0.79136500  0.18088300  1
  C  142  1  0.01638000  0.73774000  0.17176200  1
  C  143  1  0.03956100  0.75084500  0.18214700  1
  C  144  1  0.04827200  0.77600200  0.17597600  1
  C  145  1  0.06793600  0.78965000  0.18628500  1
  C  146  1  0.07951200  0.77886300  0.20347000  1
  C  147  1  0.07047500  0.75440200  0.21040500  1
  C  148  1  0.05068700  0.74091400  0.20006200  1
  C  149  1  0.01461400  0.70821300  0.17503100  1
  C  150  1  0.01758800  0.73871100  0.14898300  1
  C  151  1  0.04167600  0.73927300  0.13836900  1
  C  152  1  0.04261100  0.73835100  0.11741500  1
  C  153  1  0.01936400  0.73606300  0.10620300  1
  C  154  1  0.99531400  0.73475000  0.11636600  1
  C  155  1  0.99458200  0.73530500  0.13732900  1
  C  156  1  0.99031100  0.69497600  0.17721700  1
  C  157  1  0.98885800  0.66759500  0.17888300  1
  C  158  1  0.01175400  0.65224700  0.17781900  1
  C  159  1  0.03585100  0.66476100  0.17437500  1
  C  160  1  0.03716900  0.69215700  0.17292700  1
  C  181  1  0.78367600  0.95246800  0.30423400  1
  C  182  1  0.75970600  0.96047100  0.29576900  1
  C  183  1  0.74515000  0.98076500  0.30454000  1
  C  184  1  0.75338600  0.99330500  0.32240900  1
  C  185  1  0.77836400  0.98594600  0.32988700  1
  C  186  1  0.79316600  0.96584000  0.32109500  1
  C  187  1  0.73839600  0.01637900  0.33132000  1
  C  188  1  0.75193600  0.03904500  0.32062400  1
  C  189  1  0.77467500  0.05125700  0.32854000  1
  C  190  1  0.78846800  0.07055600  0.31792000  1
  C  191  1  0.78083800  0.07756300  0.29846300  1
  C  192  1  0.75879900  0.06516700  0.28999800  1
  C  193  1  0.74498900  0.04602900  0.30077700  1
  C  194  1  0.70881200  0.01516900  0.32819700  1
  C  195  1  0.73950000  0.01774200  0.35407600  1
  C  196  1  0.73587800  0.04180500  0.36435700  1
  C  197  1  0.73523300  0.04313300  0.38531100  1
  C  198  1  0.73726000  0.02013900  0.39687500  1
  C  199  1  0.73907400  0.99592000  0.38698800  1
  C  200  1  0.73994800  0.99478100  0.36604800  1
  C  201  1  0.69493500  0.99121100  0.33023200  1
  C  202  1  0.66755700  0.98992500  0.32867000  1
  C  203  1  0.65267300  0.01289200  0.32579600  1
  C  204  1  0.66592600  0.03699000  0.32453900  1
  C  205  1  0.69334600  0.03811800  0.32611700  1
  C  226  1  0.24655600  0.07817300  0.30508800  1
  C  227  1  0.26816100  0.06763100  0.29476400  1
  C  228  1  0.28293600  0.04729200  0.30325700  1
  C  229  1  0.27746000  0.03731300  0.32262200  1
  C  230  1  0.25459500  0.04716600  0.33210000  1
  C  231  1  0.23947000  0.06724000  0.32357800  1
  C  232  1  0.29286200  0.01422900  0.33111500  1
  C  233  1  0.27910300  0.99155100  0.32059100  1
  C  234  1  0.25463900  0.98193300  0.32755000  1
  C  235  1  0.24066400  0.96247400  0.31724700  1
  C  236  1  0.24991600  0.95279400  0.29890400  1
  C  237  1  0.27370100  0.96263400  0.29129300  1
  C  238  1  0.28771300  0.98187700  0.30181000  1
  C  239  1  0.32232400  0.01539000  0.32735600  1
  C  240  1  0.29251500  0.01283000  0.35389000  1
  C  241  1  0.29212700  0.98870000  0.36443200  1
  C  242  1  0.29284200  0.98768400  0.38539600  1
  C  243  1  0.29481000  0.01090000  0.39671000  1
  C  244  1  0.29712400  0.03487700  0.38653500  1
  C  245  1  0.29630300  0.03573400  0.36558400  1
  C  246  1  0.33610300  0.03946000  0.32566700  1
  C  247  1  0.36341600  0.04034500  0.32334300  1
  C  248  1  0.37820300  0.01705200  0.32331000  1
  C  249  1  0.36524200  0.99309700  0.32635400  1
  C  250  1  0.33788000  0.99235900  0.32840700  1
  C  271  1  0.07834200  0.78361300  0.80442200  1
  C  272  1  0.07027200  0.75971600  0.79587800  1
  C  273  1  0.04997600  0.74513100  0.80462200  1
  C  274  1  0.03746600  0.75328800  0.82251900  1
  C  275  1  0.04485500  0.77822000  0.83006500  1
  C  276  1  0.06497100  0.79304300  0.82130300  1
  C  277  1  0.01438000  0.73828100  0.83140800  1
  C  278  1  0.99172500  0.75185700  0.82071800  1
  C  279  1  0.97955400  0.77461200  0.82864000  1
  C  280  1  0.96026200  0.78843700  0.81803300  1
  C  281  1  0.95321600  0.78082200  0.79858000  1
  C  282  1  0.96558300  0.75877800  0.79010500  1
  C  283  1  0.98471100  0.74493300  0.80087400  1
  C  284  1  0.01558800  0.70870800  0.82824100  1
  C  285  1  0.01299900  0.73932100  0.85416600  1
  C  286  1  0.98891800  0.73574100  0.86443100  1
  C  287  1  0.98756400  0.73508700  0.88538500  1
  C  288  1  0.01055200  0.73703900  0.89696700  1
  C  289  1  0.03478400  0.73880600  0.88709300  1
  C  290  1  0.03594800  0.73968700  0.86615300  1
  C  291  1  0.03954900  0.69482300  0.83022400  1
  C  292  1  0.04082800  0.66744700  0.82862900  1
  C  293  1  0.01785300  0.65257200  0.82577000  1
  C  294  1  0.99375300  0.66583100  0.82456200  1
  C  295  1  0.99263100  0.69324700  0.82617300  1
  C  316  1  0.95255000  0.24631600  0.80511200  1
  C  317  1  0.96313400  0.26783300  0.79470200  1
  C  318  1  0.98348700  0.28263000  0.80315100  1
  C  319  1  0.99340900  0.27727600  0.82255500  1
  C  320  1  0.98349400  0.25450100  0.83212700  1
  C  321  1  0.96340700  0.23935400  0.82365300  1
  C  322  1  0.01647900  0.29274100  0.83100300  1
  C  323  1  0.03917400  0.27899200  0.82049400  1
  C  324  1  0.04871600  0.25449000  0.82744600  1
  C  325  1  0.06819500  0.24050900  0.81717000  1
  C  326  1  0.07796400  0.24979800  0.79886200  1
  C  327  1  0.06820100  0.27362500  0.79126300  1
  C  328  1  0.04894400  0.28764700  0.80175600  1
  C  329  1  0.01528900  0.32219400  0.82720000  1
  C  330  1  0.01785900  0.29244800  0.85377900  1
  C  331  1  0.04196000  0.29190600  0.86435600  1
  C  332  1  0.04292700  0.29263900  0.88532200  1
  C  333  1  0.01969200  0.29477500  0.89659300  1
  C  334  1  0.99575700  0.29724400  0.88638200  1
  C  335  1  0.99495100  0.29640500  0.86543500  1
  C  336  1  0.99122700  0.33595000  0.82535700  1
  C  337  1  0.99034400  0.36326700  0.82303500  1
  C  338  1  0.01362700  0.37806900  0.82311600  1
  C  339  1  0.03756500  0.36512700  0.82629100  1
  C  340  1  0.03830300  0.33776500  0.82835900  1
  C  361  1  0.91121700  0.81597300  0.76474600  1
  C  362  1  0.88570700  0.81299000  0.77259000  1
  C  363  1  0.86528500  0.82957000  0.76641700  1
  C  364  1  0.86978200  0.84974200  0.75236400  1
  C  365  1  0.89532000  0.85254100  0.74447100  1
  C  366  1  0.91570600  0.83579700  0.75045600  1
  C  369  1  0.84918100  0.86679000  0.74631700  1
  C  370  1  0.82441100  0.85681400  0.74070300  1
  C  371  1  0.80427400  0.87363000  0.73433000  1
  C  372  1  0.80839600  0.90092800  0.73332800  1
  C  373  1  0.83294200  0.91103700  0.73926600  1
  C  374  1  0.85303200  0.89419500  0.74562600  1
  C  381  1  0.78883000  0.91721500  0.72638900  1
  C  382  1  0.93152900  0.79992800  0.77072800  1
  C  385  1  0.12039000  0.21547900  0.76501500  1
  C  386  1  0.14598200  0.21861500  0.77265700  1
  C  387  1  0.16642100  0.20220200  0.76627100  1
  C  388  1  0.16183500  0.18205600  0.75222000  1
  C  389  1  0.13619200  0.17907500  0.74456000  1
  C  390  1  0.11579200  0.19566900  0.75074200  1
  C  393  1  0.18246600  0.16522600  0.74592000  1
  C  394  1  0.20696400  0.17546500  0.73991500  1
  C  395  1  0.22712500  0.15885000  0.73329500  1
  C  396  1  0.22331800  0.13149100  0.73244100  1
  C  397  1  0.19903800  0.12114300  0.73878000  1
  C  398  1  0.17890900  0.13778100  0.74536500  1
  C  405  1  0.24296500  0.11539500  0.72533700  1
  C  406  1  0.10014800  0.23149300  0.77111000  1
  C  409  1  0.81591900  0.11957500  0.26461300  1
  C  410  1  0.81294100  0.14508100  0.27246700  1
  C  411  1  0.82953000  0.16550000  0.26631300  1
  C  412  1  0.84970700  0.16100500  0.25226700  1
  C  413  1  0.85249700  0.13547500  0.24436100  1
  C  414  1  0.83574300  0.11509100  0.25032800  1
  C  417  1  0.86677800  0.18159900  0.24625400  1
  C  418  1  0.85683000  0.20638600  0.24065400  1
  C  419  1  0.87367300  0.22652300  0.23432600  1
  C  420  1  0.90097000  0.22238200  0.23335900  1
  C  421  1  0.91104900  0.19781700  0.23928400  1
  C  422  1  0.89418000  0.17772700  0.24559800  1
  C  429  1  0.91728600  0.24194100  0.22645600  1
  C  430  1  0.79987900  0.09926400  0.27059400  1
  C  433  1  0.21560400  0.91039100  0.26501500  1
  C  434  1  0.21872400  0.88479700  0.27266100  1
  C  435  1  0.20231400  0.86436100  0.26626100  1
  C  436  1  0.18218300  0.86895000  0.25219000  1
  C  437  1  0.17922200  0.89459300  0.24452600  1
  C  438  1  0.19581400  0.91499100  0.25072300  1
  C  441  1  0.16534900  0.84832500  0.24588000  1
  C  442  1  0.17557800  0.82381700  0.23989300  1
  C  443  1  0.15895900  0.80366200  0.23326200  1
  C  444  1  0.13160400  0.80748800  0.23238000  1
  C  445  1  0.12126300  0.83177900  0.23870200  1
  C  446  1  0.13790600  0.85190000  0.24529800  1
  C  453  1  0.11550100  0.78784600  0.22527600  1
  C  454  1  0.23160900  0.93063400  0.27112800  1
  C  457  1  0.11810400  0.19623800  0.22170100  1
  C  458  1  0.13856400  0.21144400  0.22998800  1
  C  459  1  0.15787700  0.19987900  0.24208200  1
  C  460  1  0.15719900  0.17281500  0.24642700  1
  C  461  1  0.13671500  0.15765000  0.23820000  1
  C  462  1  0.11755000  0.16914400  0.22598600  1
  C  465  1  0.17709200  0.16071400  0.25807200  1
  C  466  1  0.20384000  0.16457500  0.25354800  1
  C  467  1  0.22340400  0.15054700  0.26372700  1
  C  468  1  0.21688400  0.13226700  0.27879800  1
  C  469  1  0.19013900  0.12930000  0.28388100  1
  C  470  1  0.17058400  0.14318500  0.27362000  1
  C  477  1  0.23638900  0.11691500  0.28731300  1
  C  478  1  0.09912800  0.20690100  0.20930900  1
  C  481  1  0.91171400  0.83418700  0.22100900  1
  C  482  1  0.89060600  0.81921900  0.22854800  1
  C  483  1  0.87122800  0.83084200  0.24053500  1
  C  484  1  0.87249200  0.85770200  0.24550500  1
  C  485  1  0.89364200  0.87261300  0.23801500  1
  C  486  1  0.91287400  0.86107600  0.22588500  1
  C  489  1  0.85257200  0.86984300  0.25709500  1
  C  490  1  0.82586800  0.86679200  0.25207700  1
  C  491  1  0.80633400  0.88066400  0.26240700  1
  C  492  1  0.81287100  0.89798700  0.27810400  1
  C  493  1  0.83953300  0.90020900  0.28361900  1
  C  494  1  0.85905600  0.88646900  0.27321700  1
  C  501  1  0.79346300  0.91306500  0.28696400  1
  C  502  1  0.93067600  0.82344400  0.20869800  1
  C  505  1  0.19665900  0.91164200  0.72110700  1
  C  506  1  0.21163300  0.89060500  0.72875700  1
  C  507  1  0.19999300  0.87125700  0.74076700  1
  C  508  1  0.17310300  0.87248000  0.74565300  1
  C  509  1  0.15818500  0.89356200  0.73805300  1
  C  510  1  0.16974200  0.91276300  0.72590100  1
  C  513  1  0.16094400  0.85258100  0.75725900  1
  C  514  1  0.16410200  0.82586100  0.75233300  1
  C  515  1  0.15022300  0.80633600  0.76267100  1
  C  516  1  0.13278700  0.81289200  0.77828900  1
  C  517  1  0.13045200  0.83957500  0.78371400  1
  C  518  1  0.14419800  0.85909000  0.77330100  1
  C  525  1  0.11772000  0.79347400  0.78715800  1
  C  526  1  0.20741900  0.93056900  0.70876700  1
  C  529  1  0.83442800  0.11834400  0.72157000  1
  C  530  1  0.81915600  0.13868600  0.72995100  1
  C  531  1  0.83066400  0.15792900  0.74213600  1
  C  532  1  0.85773000  0.15728800  0.74647900  1
  C  533  1  0.87296000  0.13692500  0.73815200  1
  C  534  1  0.86152300  0.11783500  0.72584500  1
  C  537  1  0.86977800  0.17711800  0.75821100  1
  C  538  1  0.86589600  0.20388700  0.75377100  1
  C  539  1  0.87992600  0.22340100  0.76400300  1
  C  540  1  0.89822900  0.21679700  0.77903600  1
  C  541  1  0.90119500  0.19002800  0.78405000  1
  C  542  1  0.88730900  0.17052800  0.77373800  1
  C  549  1  0.91362700  0.23625000  0.78756700  1
  C  550  1  0.82381800  0.09944200  0.70909800  1
  C  553  1  0.44685300  0.00180000  0.68684900  1
  C  554  1  0.45936100  0.99884100  0.66819400  1
  C  555  1  0.48619700  0.00425200  0.66616500  1
  C  556  1  0.50123200  0.01277100  0.68267500  1
  C  557  1  0.48860300  0.01529500  0.70138500  1
  C  558  1  0.46177300  0.00981800  0.70348500  1
  C  561  1  0.52829700  0.01883800  0.68045400  1
  C  562  1  0.53722700  0.03432800  0.66431900  1
  C  563  1  0.56393400  0.04027200  0.66208500  1
  C  564  1  0.58259300  0.03066400  0.67581900  1
  C  565  1  0.57370800  0.01535100  0.69205500  1
  C  566  1  0.54698100  0.00958100  0.69434100  1
  C  573  1  0.60885400  0.03640800  0.67326900  1
  C  574  1  0.42036600  0.99764600  0.68874100  1
  C  577  1  0.00173900  0.58399700  0.18683400  1
  C  578  1  0.99874900  0.57148700  0.16818100  1
  C  579  1  0.00414900  0.54465100  0.16615000  1
  C  580  1  0.01268800  0.52961500  0.18265600  1
  C  581  1  0.01523700  0.54224400  0.20136500  1
  C  582  1  0.00977300  0.56907800  0.20346600  1
  C  585  1  0.01875400  0.50255200  0.18043000  1
  C  586  1  0.03422900  0.49362700  0.16428800  1
  C  587  1  0.04017800  0.46692300  0.16205000  1
  C  588  1  0.03058800  0.44825900  0.17578600  1
  C  589  1  0.01529200  0.45713800  0.19202800  1
  C  590  1  0.00951900  0.48386300  0.19431900  1
  C  597  1  0.03633800  0.42199900  0.17322700  1
  C  598  1  0.99759800  0.61048900  0.18872200  1
  C  601  1  0.44628700  0.02692400  0.31338300  1
  C  602  1  0.45850800  0.03041500  0.33210100  1
  C  603  1  0.48550000  0.02605300  0.33430200  1
  C  604  1  0.50103100  0.01811700  0.31789800  1
  C  605  1  0.48873700  0.01521000  0.29908900  1
  C  606  1  0.46171800  0.01962400  0.29682300  1
  C  609  1  0.52819800  0.01276200  0.32042400  1
  C  610  1  0.53708000  0.99729900  0.33658500  1
  C  611  1  0.56384600  0.99197900  0.33919700  1
  C  612  1  0.58264700  0.00217300  0.32582300  1
  C  613  1  0.57382200  0.01749300  0.30956700  1
  C  614  1  0.54700900  0.02263500  0.30689000  1
  C  621  1  0.60891400  0.99665100  0.32871000  1
  C  622  1  0.41967500  0.03026600  0.31137000  1
  C  625  1  0.00381500  0.44618800  0.81323600  1
  C  626  1  0.00037700  0.45837900  0.83197000  1
  C  627  1  0.00474900  0.48536600  0.83418600  1
  C  628  1  0.01264400  0.50092500  0.81778300  1
  C  629  1  0.01550600  0.48866300  0.79896100  1
  C  630  1  0.01108000  0.46164900  0.79667900  1
  C  633  1  0.01799500  0.52809100  0.82031900  1
  C  634  1  0.03348300  0.53695700  0.83647000  1
  C  635  1  0.03879800  0.56372200  0.83909200  1
  C  636  1  0.02857500  0.58254000  0.82574200  1
  C  637  1  0.01322700  0.57373300  0.80949700  1
  C  638  1  0.00809300  0.54692100  0.80680800  1
  C  645  1  0.03409200  0.60880600  0.82864100  1
  C  646  1  0.00044600  0.41958100  0.81120100  1
  C  649  1  0.73805500  0.03070700  0.45014300  1
  C  650  1  0.71780100  0.01409900  0.45698200  1
  C  651  1  0.71539100  0.00798200  0.47734900  1
  C  652  1  0.73316400  0.01818200  0.49154700  1
  C  653  1  0.75330800  0.03492200  0.48467300  1
  C  654  1  0.75564600  0.04120800  0.46431100  1
  C  657  1  0.73075200  0.01183300  0.51218800  1
  C  658  1  0.70613000  0.01265100  0.52186300  1
  C  659  1  0.70375700  0.00670700  0.54227500  1
  C  660  1  0.72605000  0.99993800  0.55358100  1
  C  661  1  0.75065100  0.99877700  0.54403000  1
  C  662  1  0.75293000  0.00463700  0.52360100  1
  C  669  1  0.72379300  0.99511100  0.57371200  1
  C  670  1  0.74079200  0.03680500  0.43011100  1
  C  673  1  0.29122200  0.00148200  0.45017300  1
  C  674  1  0.31183100  0.01753900  0.45718500  1
  C  675  1  0.31437200  0.02329700  0.47760900  1
  C  676  1  0.29639300  0.01327300  0.49172800  1
  C  677  1  0.27586100  0.99713500  0.48469200  1
  C  678  1  0.27337300  0.99124300  0.46427700  1
  C  681  1  0.29899000  0.01914200  0.51244600  1
  C  682  1  0.32362300  0.01768900  0.52207200  1
  C  683  1  0.32615900  0.02313300  0.54255700  1
  C  684  1  0.30401200  0.03000600  0.55398100  1
  C  685  1  0.27940400  0.03178200  0.54449900  1
  C  686  1  0.27697000  0.02643200  0.52400000  1
  C  693  1  0.30639900  0.03457800  0.57412700  1
  C  694  1  0.28834300  0.99554900  0.43008900  1
  C  697  1  0.02878200  0.29143500  0.95008100  1
  C  698  1  0.01274100  0.31214300  0.95693900  1
  C  699  1  0.00673300  0.31475800  0.97731200  1
  C  700  1  0.01648800  0.29676200  0.99152800  1
  C  701  1  0.03261600  0.27613300  0.98465000  1
  C  702  1  0.03875700  0.27356800  0.96428300  1
  C  705  1  0.01039400  0.29946300  0.01219600  1
  C  706  1  0.01192900  0.32411600  0.02177500  1
  C  707  1  0.00634600  0.32675100  0.04222800  1
  C  708  1  0.99923700  0.30468800  0.05367300  1
  C  709  1  0.99734500  0.28006800  0.04422000  1
  C  710  1  0.00284000  0.27753100  0.02375200  1
  C  717  1  0.99475200  0.30717300  0.07383000  1
  C  718  1  0.03490200  0.28846500  0.93004100  1
  C  721  1  0.99976300  0.73828700  0.95022400  1
  C  722  1  0.01634700  0.71810100  0.95722200  1
  C  723  1  0.02224000  0.71577900  0.97763700  1
  C  724  1  0.01183400  0.73357200  0.99173100  1
  C  725  1  0.99513200  0.75365600  0.98469500  1
  C  726  1  0.98907500  0.75590600  0.96428700  1
  C  729  1  0.01794900  0.73125000  0.01242400  1
  C  730  1  0.01714700  0.70665600  0.02214700  1
  C  731  1  0.02293200  0.70436700  0.04259500  1
  C  732  1  0.02951600  0.72672500  0.05388000  1
  C  733  1  0.03062700  0.75130500  0.04429900  1
  C  734  1  0.02492800  0.75349700  0.02383700  1
  C  741  1  0.03440500  0.72455100  0.07399700  1
  C  742  1  0.99381400  0.74090900  0.93015100  1
  N  41  1  0.73584900  0.01001500  0.58609400  1
  N  42  1  0.62648200  0.01935700  0.67748700  1
  N  43  1  0.79953900  0.09296800  0.70997000  1
  N  44  1  0.79417100  0.93461400  0.71317200  1
  N  86  1  0.29487800  0.01922800  0.58649200  1
  N  87  1  0.40448900  0.01157200  0.67836300  1
  N  88  1  0.23152500  0.93747500  0.71027400  1
  N  89  1  0.23745100  0.09702700  0.71295200  1
  N  131  1  0.00955900  0.29487400  0.08614600  1
  N  132  1  0.01931700  0.40436100  0.17748600  1
  N  133  1  0.09295400  0.23126800  0.21001300  1
  N  134  1  0.93467900  0.23659900  0.21324100  1
  N  176  1  0.01895200  0.73578700  0.08643400  1
  N  177  1  0.01153700  0.62634900  0.17834400  1
  N  178  1  0.93757700  0.79933900  0.21020900  1
  N  179  1  0.09714900  0.79335800  0.21286900  1
  N  221  1  0.73590800  0.01961500  0.41663000  1
  N  222  1  0.62676600  0.01333800  0.32416500  1
  N  223  1  0.79897000  0.93462300  0.29590700  1
  N  224  1  0.79485000  0.09572500  0.28918600  1
  N  266  1  0.29579400  0.01164000  0.41648800  1
  N  267  1  0.40408000  0.01698400  0.32247400  1
  N  268  1  0.23092900  0.09596600  0.29708200  1
  N  269  1  0.23585800  0.93453900  0.28979000  1
  N  311  1  0.01102300  0.73578900  0.91673100  1
  N  312  1  0.01739900  0.62666700  0.82412000  1
  N  313  1  0.09615600  0.79895700  0.79610300  1
  N  314  1  0.93506200  0.79486500  0.78931700  1
  N  356  1  0.01888600  0.29582000  0.91636200  1
  N  357  1  0.01370500  0.40395100  0.82229500  1
  N  358  1  0.93470100  0.23071700  0.79715500  1
  N  359  1  0.09623500  0.23574500  0.78977100  1
