# generated using pymatgen
data_CoH3(C2O)4
_symmetry_space_group_name_H-M   'P 1'
_cell_length_a   12.94499140
_cell_length_b   14.33473903
_cell_length_c   18.06248282
_cell_angle_alpha   81.97639950
_cell_angle_beta   89.99941076
_cell_angle_gamma   89.99981606
_symmetry_Int_Tables_number   1
_chemical_formula_structural   CoH3(C2O)4
_chemical_formula_sum   'Co8 H24 C64 O32'
_cell_volume   3318.91859821
_cell_formula_units_Z   8
loop_
 _symmetry_equiv_pos_site_id
 _symmetry_equiv_pos_as_xyz
  1  'x, y, z'
loop_
 _atom_site_type_symbol
 _atom_site_label
 _atom_site_symmetry_multiplicity
 _atom_site_fract_x
 _atom_site_fract_y
 _atom_site_fract_z
 _atom_site_occupancy
  Co  Co1  1  0.92496499  0.99314503  0.76184393  1.0
  Co  Co2  1  0.69134089  0.56836550  0.16591571  1.0
  Co  Co3  1  0.42496001  0.50685102  0.73815367  1.0
  Co  Co4  1  0.19134006  0.93164425  0.33408136  1.0
  Co  Co5  1  0.07503523  0.00685939  0.23815995  1.0
  Co  Co6  1  0.30866415  0.43163713  0.83408229  1.0
  Co  Co7  1  0.57503646  0.49314850  0.26184681  1.0
  Co  Co8  1  0.80865016  0.06836133  0.66590492  1.0
  H  H1  1  0.39124550  0.76353384  0.23131551  1.0
  H  H2  1  0.44304934  0.69034780  0.01199501  1.0
  H  H3  1  0.19865090  0.88479223  0.04984397  1.0
  H  H4  1  0.17116462  0.90455598  0.93718218  1.0
  H  H5  1  0.18028637  0.77690507  0.73641344  1.0
  H  H6  1  0.36460180  0.66098823  0.92488373  1.0
  H  H7  1  0.89124392  0.73647141  0.26868776  1.0
  H  H8  1  0.94305646  0.80964830  0.48800987  1.0
  H  H9  1  0.69865347  0.61521406  0.45015810  1.0
  H  H10  1  0.67116432  0.59544737  0.56282126  1.0
  H  H11  1  0.68029203  0.72309683  0.76358630  1.0
  H  H12  1  0.86460891  0.83900955  0.57511697  1.0
  H  H13  1  0.60874954  0.23647868  0.76868272  1.0
  H  H14  1  0.55695869  0.30965927  0.98800581  1.0
  H  H15  1  0.80134556  0.11520692  0.95014905  1.0
  H  H16  1  0.82883664  0.09544638  0.06281688  1.0
  H  H17  1  0.81971209  0.22310111  0.26358210  1.0
  H  H18  1  0.63539472  0.33901503  0.07511531  1.0
  H  H19  1  0.10875155  0.26351201  0.73131335  1.0
  H  H20  1  0.05695871  0.19033238  0.51199549  1.0
  H  H21  1  0.30134611  0.38478507  0.54984797  1.0
  H  H22  1  0.32883904  0.40454786  0.43718205  1.0
  H  H23  1  0.31971107  0.27691201  0.23641063  1.0
  H  H24  1  0.13539648  0.16098710  0.42488137  1.0
  C  C1  1  0.37145959  0.77149624  0.17222530  1.0
  C  C2  1  0.50541966  0.65323680  0.15459364  1.0
  C  C3  1  0.42439024  0.72082527  0.12361654  1.0
  C  C4  1  0.39822545  0.73013573  0.04793466  1.0
  C  C5  1  0.27804917  0.78598776  0.94162563  1.0
  C  C6  1  0.29310609  0.83313265  0.14364266  1.0
  C  C7  1  0.31414943  0.78634962  0.01960717  1.0
  C  C8  1  0.26354824  0.83922437  0.06847200  1.0
  C  C9  1  0.20456971  0.85034760  0.90778556  1.0
  C  C10  1  0.08096962  0.90749477  0.80611148  1.0
  C  C11  1  0.27892593  0.71289334  0.82701366  1.0
  C  C12  1  0.31712353  0.63560405  0.78815057  1.0
  C  C13  1  0.20789023  0.77911496  0.79315449  1.0
  C  C14  1  0.31197511  0.71586909  0.90047780  1.0
  C  C15  1  0.16850973  0.84584437  0.83529266  1.0
  C  C16  1  0.23814254  0.88885682  0.19447864  1.0
  C  C17  1  0.87145903  0.72850765  0.32777633  1.0
  C  C18  1  0.00541948  0.84675935  0.34541033  1.0
  C  C19  1  0.92439151  0.77917360  0.37638691  1.0
  C  C20  1  0.89823202  0.76986478  0.45206818  1.0
  C  C21  1  0.77805638  0.71401728  0.55837675  1.0
  C  C22  1  0.79310542  0.66687045  0.35635910  1.0
  C  C23  1  0.81415428  0.71365450  0.48039541  1.0
  C  C24  1  0.76355394  0.66077927  0.43153150  1.0
  C  C25  1  0.70457357  0.64965407  0.59221681  1.0
  C  C26  1  0.58096431  0.59250196  0.69388764  1.0
  C  C27  1  0.77893146  0.78710539  0.67298811  1.0
  C  C28  1  0.81713462  0.86438999  0.71187146  1.0
  C  C29  1  0.70789251  0.72088273  0.70684726  1.0
  C  C30  1  0.81197996  0.78413061  0.59952655  1.0
  C  C31  1  0.66850911  0.65415600  0.66470942  1.0
  C  C32  1  0.73813934  0.61113837  0.30552471  1.0
  C  C33  1  0.62853809  0.22851148  0.82777129  1.0
  C  C34  1  0.49458302  0.34676850  0.84540849  1.0
  C  C35  1  0.57561411  0.27918305  0.87638363  1.0
  C  C36  1  0.60177659  0.26986964  0.95206478  1.0
  C  C37  1  0.72194879  0.21402057  0.05837238  1.0
  C  C38  1  0.70689228  0.16687459  0.85635331  1.0
  C  C39  1  0.68585314  0.21365662  0.98039082  1.0
  C  C40  1  0.73645190  0.16078230  0.93152389  1.0
  C  C41  1  0.79542949  0.14965513  0.09221147  1.0
  C  C42  1  0.91903017  0.09250405  0.19388514  1.0
  C  C43  1  0.72107049  0.28710771  0.17298538  1.0
  C  C44  1  0.68286999  0.36439683  0.21186725  1.0
  C  C45  1  0.79211121  0.22088569  0.20684314  1.0
  C  C46  1  0.68802415  0.28413419  0.09952338  1.0
  C  C47  1  0.83149132  0.15415781  0.16470381  1.0
  C  C48  1  0.76185029  0.11114653  0.80551485  1.0
  C  C49  1  0.12854271  0.27147915  0.67222530  1.0
  C  C50  1  0.99457854  0.15323240  0.65458713  1.0
  C  C51  1  0.07561387  0.22081124  0.62361501  1.0
  C  C52  1  0.10177936  0.23012282  0.54793468  1.0
  C  C53  1  0.22195140  0.28597711  0.44162461  1.0
  C  C54  1  0.20689455  0.33312037  0.64364526  1.0
  C  C55  1  0.18585533  0.28633668  0.51960827  1.0
  C  C56  1  0.23645319  0.33921224  0.56847414  1.0
  C  C57  1  0.29542838  0.35034095  0.40778543  1.0
  C  C58  1  0.41902998  0.40749939  0.30611365  1.0
  C  C59  1  0.22107618  0.21289094  0.32700887  1.0
  C  C60  1  0.18287035  0.13560704  0.28814327  1.0
  C  C61  1  0.29210716  0.27911908  0.29315214  1.0
  C  C62  1  0.18802524  0.21586231  0.40047424  1.0
  C  C63  1  0.33148730  0.34584612  0.33529035  1.0
  C  C64  1  0.26185776  0.38885226  0.69447832  1.0
  O  O1  1  0.04524996  0.90346525  0.74036236  1.0
  O  O2  1  0.03673293  0.96079934  0.84760300  1.0
  O  O3  1  0.49074269  0.60781331  0.21893747  1.0
  O  O4  1  0.58662499  0.64431587  0.11415776  1.0
  O  O5  1  0.16390492  0.94163477  0.17023174  1.0
  O  O6  1  0.26946084  0.87921924  0.26370391  1.0
  O  O7  1  0.35078999  0.55916780  0.83244287  1.0
  O  O8  1  0.32324275  0.63796173  0.71909130  1.0
  O  O9  1  0.54522906  0.59653459  0.75963318  1.0
  O  O10  1  0.53674488  0.53919198  0.65239229  1.0
  O  O11  1  0.99073981  0.89218575  0.28106910  1.0
  O  O12  1  0.08662663  0.85567965  0.38584169  1.0
  O  O13  1  0.66390372  0.55836369  0.32978280  1.0
  O  O14  1  0.76945186  0.62077588  0.23629925  1.0
  O  O15  1  0.85080116  0.94082469  0.66756585  1.0
  O  O16  1  0.82325730  0.86201957  0.78090766  1.0
  O  O17  1  0.95475555  0.09653259  0.25963277  1.0
  O  O18  1  0.96325467  0.03919501  0.15239045  1.0
  O  O19  1  0.50925898  0.39219640  0.78106569  1.0
  O  O20  1  0.41337288  0.35568292  0.88583995  1.0
  O  O21  1  0.83608109  0.05836285  0.82976935  1.0
  O  O22  1  0.73054109  0.12078695  0.73628963  1.0
  O  O23  1  0.64920241  0.44082854  0.16756646  1.0
  O  O24  1  0.67675292  0.36202899  0.28090771  1.0
  O  O25  1  0.45476243  0.40346999  0.24036814  1.0
  O  O26  1  0.46325347  0.46080786  0.34760760  1.0
  O  O27  1  0.00925047  0.10780621  0.71893224  1.0
  O  O28  1  0.91337631  0.14431715  0.61415173  1.0
  O  O29  1  0.33608788  0.44163544  0.67021879  1.0
  O  O30  1  0.23055014  0.37921226  0.76370649  1.0
  O  O31  1  0.14919897  0.05917641  0.33243792  1.0
  O  O32  1  0.17674988  0.13796943  0.21908477  1.0
