# generated using pymatgen
data_Zn2H18C40S(N2O5)2
_symmetry_space_group_name_H-M   'P 1'
_cell_length_a   12.10290000
_cell_length_b   12.10492000
_cell_length_c   14.02051000
_cell_angle_alpha   87.33039000
_cell_angle_beta   87.36285000
_cell_angle_gamma   71.83537000
_symmetry_Int_Tables_number   1
_chemical_formula_structural   Zn2H18C40S(N2O5)2
_chemical_formula_sum   'Zn4 H36 C80 S2 N8 O20'
_cell_volume   1948.51301549
_cell_formula_units_Z   2
loop_
 _symmetry_equiv_pos_site_id
 _symmetry_equiv_pos_as_xyz
  1  'x, y, z'
loop_
 _atom_site_type_symbol
 _atom_site_label
 _atom_site_symmetry_multiplicity
 _atom_site_fract_x
 _atom_site_fract_y
 _atom_site_fract_z
 _atom_site_occupancy
  Zn  Zn0  1  0.31019000  0.22366000  0.34646000  1
  Zn  Zn1  1  0.77602000  0.69004000  0.15326000  1
  Zn  Zn2  1  0.68981000  0.77634000  0.65354000  1
  Zn  Zn3  1  0.22398000  0.30996000  0.84674000  1
  H  H4  1  0.17624000  0.60049000  0.29844000  1
  H  H5  1  0.21064000  0.80992000  0.04841000  1
  H  H6  1  0.23129000  0.63868000  0.94693000  1
  H  H7  1  0.07853000  0.21037000  0.29353000  1
  H  H8  1  0.94074000  0.10567000  0.35385000  1
  H  H9  1  0.15879000  0.98996000  0.59844000  1
  H  H10  1  0.28925000  0.09225000  0.52601000  1
  H  H11  1  0.22664000  0.09911000  0.18763000  1
  H  H12  1  0.29819000  0.03282000  0.02570000  1
  H  H13  1  0.39925000  0.82371000  0.20136000  1
  H  H14  1  0.19009000  0.78938000  0.45140000  1
  H  H15  1  0.36136000  0.76881000  0.55295000  1
  H  H16  1  0.78946000  0.92141000  0.20625000  1
  H  H17  1  0.89421000  0.05922000  0.14602000  1
  H  H18  1  0.01003000  0.84130000  0.90152000  1
  H  H19  1  0.90765000  0.71087000  0.97387000  1
  H  H20  1  0.90045000  0.77346000  0.31236000  1
  H  H21  1  0.96686000  0.70181000  0.47433000  1
  H  H22  1  0.82377000  0.39951000  0.70156000  1
  H  H23  1  0.78936000  0.19008000  0.95159000  1
  H  H24  1  0.76872000  0.36132000  0.05307000  1
  H  H25  1  0.92147000  0.78964000  0.70647000  1
  H  H26  1  0.05927000  0.89434000  0.64615000  1
  H  H27  1  0.84121000  0.01005000  0.40155000  1
  H  H28  1  0.71076000  0.90775000  0.47398000  1
  H  H29  1  0.77336000  0.90089000  0.81237000  1
  H  H30  1  0.70182000  0.96718000  0.97430000  1
  H  H31  1  0.60075000  0.17630000  0.79863000  1
  H  H32  1  0.80991000  0.21062000  0.54859000  1
  H  H33  1  0.63864000  0.23119000  0.44705000  1
  H  H34  1  0.21054000  0.07860000  0.79375000  1
  H  H35  1  0.10579000  0.94078000  0.85398000  1
  H  H36  1  0.98997000  0.15870000  0.09848000  1
  H  H37  1  0.09235000  0.28914000  0.02613000  1
  H  H38  1  0.09955000  0.22655000  0.68764000  1
  H  H39  1  0.03314000  0.29820000  0.52567000  1
  C  C40  1  0.20369000  0.39986000  0.21593000  1
  C  C41  1  0.20155000  0.51330000  0.16519000  1
  C  C42  1  0.18705000  0.60973000  0.22138000  1
  C  C43  1  0.18759000  0.71607000  0.17845000  1
  C  C44  1  0.20689000  0.72743000  0.07993000  1
  C  C45  1  0.21853000  0.63213000  0.02400000  1
  C  C46  1  0.21489000  0.52542000  0.06527000  1
  C  C47  1  0.23338000  0.42555000  0.00022000  1
  C  C48  1  0.09333000  0.15701000  0.35931000  1
  C  C49  1  0.01642000  0.09955000  0.39495000  1
  C  C50  1  0.03841000  0.03365000  0.48119000  1
  C  C51  1  0.13730000  0.03440000  0.52950000  1
  C  C52  1  0.21201000  0.09185000  0.48929000  1
  C  C53  1  0.31630000  0.08746000  0.16510000  1
  C  C54  1  0.35691000  0.05105000  0.07453000  1
  C  C55  1  0.47662000  0.03565000  0.04335000  1
  C  C56  1  0.55738000  0.02241000  0.12662000  1
  C  C57  1  0.48708000  0.10523000  0.18795000  1
  C  C58  1  0.51681000  0.14991000  0.04669000  1
  C  C59  1  0.53315000  0.18923000  0.13013000  1
  C  C60  1  0.60002000  0.79647000  0.28394000  1
  C  C61  1  0.48660000  0.79862000  0.33463000  1
  C  C62  1  0.39016000  0.81290000  0.27844000  1
  C  C63  1  0.28390000  0.81228000  0.32142000  1
  C  C64  1  0.27260000  0.79311000  0.41996000  1
  C  C65  1  0.36794000  0.78162000  0.47588000  1
  C  C66  1  0.47456000  0.78542000  0.43459000  1
  C  C67  1  0.57448000  0.76718000  0.49964000  1
  C  C68  1  0.84286000  0.90666000  0.14052000  1
  C  C69  1  0.90037000  0.98356000  0.10493000  1
  C  C70  1  0.96633000  0.96160000  0.01877000  1
  C  C71  1  0.96558000  0.86276000  0.97043000  1
  C  C72  1  0.90808000  0.78806000  0.01059000  1
  C  C73  1  0.91229000  0.68375000  0.33486000  1
  C  C74  1  0.94874000  0.64310000  0.42545000  1
  C  C75  1  0.96433000  0.52337000  0.45662000  1
  C  C76  1  0.97761000  0.44268000  0.37335000  1
  C  C77  1  0.89475000  0.51296000  0.31197000  1
  C  C78  1  0.85008000  0.48307000  0.45327000  1
  C  C79  1  0.81084000  0.46677000  0.36978000  1
  C  C80  1  0.79632000  0.60014000  0.78407000  1
  C  C81  1  0.79845000  0.48670000  0.83481000  1
  C  C82  1  0.81295000  0.39027000  0.77862000  1
  C  C83  1  0.81242000  0.28393000  0.82155000  1
  C  C84  1  0.79311000  0.27258000  0.92007000  1
  C  C85  1  0.78147000  0.36788000  0.97600000  1
  C  C86  1  0.78512000  0.47458000  0.93473000  1
  C  C87  1  0.76662000  0.57445000  0.99978000  1
  C  C88  1  0.90667000  0.84299000  0.64069000  1
  C  C89  1  0.98359000  0.90046000  0.60505000  1
  C  C90  1  0.96160000  0.96635000  0.51881000  1
  C  C91  1  0.86271000  0.96560000  0.47049000  1
  C  C92  1  0.78799000  0.90816000  0.51071000  1
  C  C93  1  0.68370000  0.91254000  0.83490000  1
  C  C94  1  0.64309000  0.94896000  0.92547000  1
  C  C95  1  0.52339000  0.96436000  0.95664000  1
  C  C96  1  0.44262000  0.97759000  0.87338000  1
  C  C97  1  0.51292000  0.89477000  0.81205000  1
  C  C98  1  0.48319000  0.85009000  0.95331000  1
  C  C99  1  0.46685000  0.81078000  0.86987000  1
  C  C100  1  0.39998000  0.20353000  0.71606000  1
  C  C101  1  0.51340000  0.20139000  0.66537000  1
  C  C102  1  0.60985000  0.18711000  0.72155000  1
  C  C103  1  0.71610000  0.18773000  0.67858000  1
  C  C104  1  0.72740000  0.20689000  0.58004000  1
  C  C105  1  0.63207000  0.21838000  0.52412000  1
  C  C106  1  0.52544000  0.21458000  0.56541000  1
  C  C107  1  0.42552000  0.23282000  0.50036000  1
  C  C108  1  0.15714000  0.09335000  0.85948000  1
  C  C109  1  0.09963000  0.01645000  0.89507000  1
  C  C110  1  0.03368000  0.03840000  0.98123000  1
  C  C111  1  0.03442000  0.13725000  0.02957000  1
  C  C112  1  0.09192000  0.21194000  0.98940000  1
  C  C113  1  0.08772000  0.31625000  0.66514000  1
  C  C114  1  0.05126000  0.35690000  0.57455000  1
  C  C115  1  0.03568000  0.47663000  0.54338000  1
  C  C116  1  0.02239000  0.55732000  0.62665000  1
  C  C117  1  0.10525000  0.48705000  0.68803000  1
  C  C118  1  0.14993000  0.51693000  0.54673000  1
  C  C119  1  0.18917000  0.53323000  0.63022000  1
  S  S120  1  0.16040000  0.83948000  0.24997000  1
  S  S121  1  0.83960000  0.16052000  0.75003000  1
  N  N122  1  0.19149000  0.15074000  0.40441000  1
  N  N123  1  0.38403000  0.11751000  0.22943000  1
  N  N124  1  0.84914000  0.80855000  0.09541000  1
  N  N125  1  0.88236000  0.61604000  0.27047000  1
  N  N126  1  0.80852000  0.84926000  0.59558000  1
  N  N127  1  0.61598000  0.88249000  0.77057000  1
  N  N128  1  0.15087000  0.19145000  0.90459000  1
  N  N129  1  0.11764000  0.38397000  0.72953000  1
  O  O130  1  0.27107000  0.37799000  0.28891000  1
  O  O131  1  0.14438000  0.33948000  0.19034000  1
  O  O132  1  0.30367000  0.32804000  0.01939000  1
  O  O133  1  0.17318000  0.45132000  0.92308000  1
  O  O134  1  0.15569000  0.93958000  0.18526000  1
  O  O135  1  0.62193000  0.72898000  0.21107000  1
  O  O136  1  0.66042000  0.85575000  0.30954000  1
  O  O137  1  0.67201000  0.69696000  0.48057000  1
  O  O138  1  0.54875000  0.82744000  0.57670000  1
  O  O139  1  0.06032000  0.84443000  0.31461000  1
  O  O140  1  0.72894000  0.62201000  0.71109000  1
  O  O141  1  0.85563000  0.66052000  0.80966000  1
  O  O142  1  0.69633000  0.67197000  0.98061000  1
  O  O143  1  0.82682000  0.54868000  0.07692000  1
  O  O144  1  0.84432000  0.06043000  0.81473000  1
  O  O145  1  0.37807000  0.27102000  0.78893000  1
  O  O146  1  0.33958000  0.14426000  0.69046000  1
  O  O147  1  0.32799000  0.30304000  0.51943000  1
  O  O148  1  0.45125000  0.17256000  0.42330000  1
  O  O149  1  0.93968000  0.15557000  0.68538000  1
