# generated using pymatgen
data_Zn2H20C31N4O9
_symmetry_space_group_name_H-M   'P 1'
_cell_length_a   4.60033000
_cell_length_b   11.77158000
_cell_length_c   25.23149000
_cell_angle_alpha   84.90742000
_cell_angle_beta   89.87963000
_cell_angle_gamma   89.82241000
_symmetry_Int_Tables_number   1
_chemical_formula_structural   Zn2H20C31N4O9
_chemical_formula_sum   'Zn4 H40 C62 N8 O18'
_cell_volume   1360.96227485
_cell_formula_units_Z   2
loop_
 _symmetry_equiv_pos_site_id
 _symmetry_equiv_pos_as_xyz
  1  'x, y, z'
loop_
 _atom_site_type_symbol
 _atom_site_label
 _atom_site_symmetry_multiplicity
 _atom_site_fract_x
 _atom_site_fract_y
 _atom_site_fract_z
 _atom_site_occupancy
  Zn  Zn0  1  0.70672000  0.92248000  0.54894000  1
  Zn  Zn1  1  0.80527000  0.18566000  0.96835000  1
  Zn  Zn2  1  0.20602000  0.07634000  0.44920000  1
  Zn  Zn3  1  0.30771000  0.81960000  0.03030000  1
  H  H4  1  0.13440000  0.75992000  0.42411000  1
  H  H5  1  0.96575000  0.72162000  0.33307000  1
  H  H6  1  0.65891000  0.93114000  0.26463000  1
  H  H7  1  0.99221000  0.03083000  0.20794000  1
  H  H8  1  0.24620000  0.16872000  0.14207000  1
  H  H9  1  0.60628000  0.77236000  0.17190000  1
  H  H10  1  0.53797000  0.77640000  0.65680000  1
  H  H11  1  0.22911000  0.73675000  0.55016000  1
  H  H12  1  0.24283000  0.55609000  0.62952000  1
  H  H13  1  0.77077000  0.47811000  0.69352000  1
  H  H14  1  0.56103000  0.59116000  0.71575000  1
  H  H15  1  0.95591000  0.76244000  0.74740000  1
  H  H16  1  0.33168000  0.77940000  0.81443000  1
  H  H17  1  0.50766000  0.41889000  0.81711000  1
  H  H18  1  0.12760000  0.40096000  0.75186000  1
  H  H19  1  0.90465000  0.61495000  0.84752000  1
  H  H20  1  0.64587000  0.69100000  0.88247000  1
  H  H21  1  0.00987000  0.40428000  0.88726000  1
  H  H22  1  0.33232000  0.36069000  0.99990000  1
  H  H23  1  0.27179000  0.57541000  0.94230000  1
  H  H24  1  0.62459000  0.23586000  0.57503000  1
  H  H25  1  0.46243000  0.27831000  0.66609000  1
  H  H26  1  0.16721000  0.07307000  0.73376000  1
  H  H27  1  0.48344000  0.97835000  0.79172000  1
  H  H28  1  0.72338000  0.83805000  0.85889000  1
  H  H29  1  0.12675000  0.22598000  0.82555000  1
  H  H30  1  0.04606000  0.22505000  0.34153000  1
  H  H31  1  0.73224000  0.25883000  0.44925000  1
  H  H32  1  0.74937000  0.44217000  0.37146000  1
  H  H33  1  0.28210000  0.52399000  0.30771000  1
  H  H34  1  0.07308000  0.41288000  0.28408000  1
  H  H35  1  0.48214000  0.24113000  0.25335000  1
  H  H36  1  0.86126000  0.22650000  0.18638000  1
  H  H37  1  0.01388000  0.58816000  0.18302000  1
  H  H38  1  0.63070000  0.60391000  0.24813000  1
  H  H39  1  0.42696000  0.39512000  0.15313000  1
  H  H40  1  0.17189000  0.31547000  0.11899000  1
  H  H41  1  0.51879000  0.60452000  0.11206000  1
  H  H42  1  0.83709000  0.64128000  0.00041000  1
  H  H43  1  0.78986000  0.42733000  0.05897000  1
  C  C44  1  0.59588000  0.87355000  0.45070000  1
  C  C45  1  0.50390000  0.85739000  0.39487000  1
  C  C46  1  0.25941000  0.79075000  0.38898000  1
  C  C47  1  0.15366000  0.77492000  0.33845000  1
  C  C48  1  0.30328000  0.82414000  0.29298000  1
  C  C49  1  0.55005000  0.88994000  0.29927000  1
  C  C50  1  0.65764000  0.90690000  0.35016000  1
  C  C51  1  0.88330000  0.99622000  0.35746000  1
  C  C52  1  0.17178000  0.81713000  0.24055000  1
  C  C53  1  0.29176000  0.89365000  0.19495000  1
  C  C54  1  0.17385000  0.00367000  0.18446000  1
  C  C55  1  0.32252000  0.08159000  0.14933000  1
  C  C56  1  0.56036000  0.04905000  0.12054000  1
  C  C57  1  0.65581000  0.93456000  0.12618000  1
  C  C58  1  0.52122000  0.85859000  0.16477000  1
  C  C59  1  0.84128000  0.88860000  0.08295000  1
  C  C60  1  0.68693000  0.13450000  0.07930000  1
  C  C61  1  0.70433000  0.73490000  0.63502000  1
  C  C62  1  0.08426000  0.71629000  0.58341000  1
  C  C63  1  0.09251000  0.62659000  0.62241000  1
  C  C64  1  0.78274000  0.56724000  0.70298000  1
  C  C65  1  0.00827000  0.57983000  0.74476000  1
  C  C66  1  0.07886000  0.68670000  0.76196000  1
  C  C67  1  0.29066000  0.69633000  0.80053000  1
  C  C68  1  0.45396000  0.60109000  0.82110000  1
  C  C69  1  0.38515000  0.49479000  0.80303000  1
  C  C70  1  0.17079000  0.48466000  0.76513000  1
  C  C71  1  0.67852000  0.61218000  0.86329000  1
  C  C72  1  0.83216000  0.42379000  0.91298000  1
  C  C73  1  0.46667000  0.40309000  0.96917000  1
  C  C74  1  0.42727000  0.50667000  0.94016000  1
  C  C75  1  0.09210000  0.12545000  0.54788000  1
  C  C76  1  0.00212000  0.14202000  0.60381000  1
  C  C77  1  0.75482000  0.20776000  0.60990000  1
  C  C78  1  0.65261000  0.22582000  0.66053000  1
  C  C79  1  0.80741000  0.17896000  0.70578000  1
  C  C80  1  0.05419000  0.11280000  0.69928000  1
  C  C81  1  0.15928000  0.09402000  0.64844000  1
  C  C82  1  0.38729000  0.00450000  0.64189000  1
  C  C83  1  0.68071000  0.18777000  0.75850000  1
  C  C84  1  0.79791000  0.11012000  0.80383000  1
  C  C85  1  0.66725000  0.00291000  0.81508000  1
  C  C86  1  0.80804000  0.92362000  0.85080000  1
  C  C87  1  0.04916000  0.95240000  0.87953000  1
  C  C88  1  0.15515000  0.06548000  0.87333000  1
  C  C89  1  0.03066000  0.14195000  0.83366000  1
  C  C90  1  0.34159000  0.11416000  0.91597000  1
  C  C91  1  0.16930000  0.86392000  0.92021000  1
  C  C92  1  0.21137000  0.26529000  0.36380000  1
  C  C93  1  0.58862000  0.28080000  0.41605000  1
  C  C94  1  0.59901000  0.37180000  0.37777000  1
  C  C95  1  0.29424000  0.43545000  0.29736000  1
  C  C96  1  0.52259000  0.42414000  0.25571000  1
  C  C97  1  0.60112000  0.31761000  0.23878000  1
  C  C98  1  0.81557000  0.30915000  0.20043000  1
  C  C99  1  0.97407000  0.40533000  0.17975000  1
  C  C100  1  0.89650000  0.51138000  0.19734000  1
  C  C101  1  0.67985000  0.52032000  0.23515000  1
  C  C102  1  0.20088000  0.39515000  0.13756000  1
  C  C103  1  0.34126000  0.58348000  0.08684000  1
  C  C104  1  0.97307000  0.60067000  0.03134000  1
  C  C105  1  0.94125000  0.49715000  0.06067000  1
  N  N106  1  0.84578000  0.78280000  0.59179000  1
  N  N107  1  0.85065000  0.63865000  0.65386000  1
  N  N108  1  0.65944000  0.51839000  0.90534000  1
  N  N109  1  0.71531000  0.35215000  0.95213000  1
  N  N110  1  0.35059000  0.21536000  0.40683000  1
  N  N111  1  0.35874000  0.36172000  0.34592000  1
  N  N112  1  0.17490000  0.48761000  0.09505000  1
  N  N113  1  0.21873000  0.65373000  0.04780000  1
  O  O114  1  0.79743000  0.81732000  0.47347000  1
  O  O115  1  0.42971000  0.93756000  0.47856000  1
  O  O116  1  0.88838000  0.02260000  0.40669000  1
  O  O117  1  0.02932000  0.04003000  0.31967000  1
  O  O118  1  0.95762000  0.75516000  0.23555000  1
  O  O119  1  0.10053000  0.92164000  0.07676000  1
  O  O120  1  0.72844000  0.81567000  0.05391000  1
  O  O121  1  0.72877000  0.23512000  0.08987000  1
  O  O122  1  0.72931000  0.09333000  0.03425000  1
  O  O123  1  0.28887000  0.18282000  0.52431000  1
  O  O124  1  0.92926000  0.06016000  0.52060000  1
  O  O125  1  0.39758000  0.97794000  0.59279000  1
  O  O126  1  0.52921000  0.96053000  0.68019000  1
  O  O127  1  0.46959000  0.25132000  0.76419000  1
  O  O128  1  0.60747000  0.08996000  0.91834000  1
  O  O129  1  0.22696000  0.18352000  0.94695000  1
  O  O130  1  0.15533000  0.76025000  0.91273000  1
  O  O131  1  0.27374000  0.90604000  0.96167000  1
