# generated using pymatgen
data_NiH2(CO2)2
_symmetry_space_group_name_H-M   'P 1'
_cell_length_a   9.98026000
_cell_length_b   11.30573000
_cell_length_c   14.65988000
_cell_angle_alpha   88.67946000
_cell_angle_beta   89.99681000
_cell_angle_gamma   89.99865000
_symmetry_Int_Tables_number   1
_chemical_formula_structural   NiH2(CO2)2
_chemical_formula_sum   'Ni12 H24 C24 O48'
_cell_volume   1653.69540929
_cell_formula_units_Z   12
loop_
 _symmetry_equiv_pos_site_id
 _symmetry_equiv_pos_as_xyz
  1  'x, y, z'
loop_
 _atom_site_type_symbol
 _atom_site_label
 _atom_site_symmetry_multiplicity
 _atom_site_fract_x
 _atom_site_fract_y
 _atom_site_fract_z
 _atom_site_occupancy
  Ni  Ni0  1  0.07513000  0.75542000  0.36636000  1
  Ni  Ni1  1  0.38295000  0.76020000  0.30783000  1
  Ni  Ni2  1  0.57514000  0.74458000  0.13364000  1
  Ni  Ni3  1  0.88299000  0.73974000  0.19220000  1
  Ni  Ni4  1  0.92487000  0.24458000  0.63363000  1
  Ni  Ni5  1  0.61704000  0.23980000  0.69216000  1
  Ni  Ni6  1  0.42485000  0.25542000  0.86635000  1
  Ni  Ni7  1  0.11701000  0.26026000  0.80780000  1
  Ni  Ni8  1  1.00000000  0.50000000  0.50000000  1
  Ni  Ni9  1  0.50000000  0.00000000  0.00000000  1
  Ni  Ni10  1  0.00000000  0.00000000  0.50000000  1
  Ni  Ni11  1  0.50000000  0.50000000  0.00000000  1
  H  H12  1  0.29323000  0.00184000  0.49223000  1
  H  H13  1  0.39301000  0.55597000  0.45248000  1
  H  H14  1  0.79622000  0.98747000  0.26434000  1
  H  H15  1  0.24639000  0.85666000  0.12373000  1
  H  H16  1  0.83556000  0.68681000  0.57782000  1
  H  H17  1  0.94101000  0.47122000  0.22977000  1
  H  H18  1  0.79327000  0.49821000  0.00772000  1
  H  H19  1  0.89304000  0.94388000  0.04754000  1
  H  H20  1  0.29616000  0.51249000  0.23570000  1
  H  H21  1  0.74623000  0.64318000  0.37631000  1
  H  H22  1  0.33553000  0.81316000  0.92217000  1
  H  H23  1  0.44102000  0.02879000  0.27022000  1
  H  H24  1  0.70677000  0.99816000  0.50777000  1
  H  H25  1  0.60699000  0.44403000  0.54752000  1
  H  H26  1  0.20378000  0.01253000  0.73566000  1
  H  H27  1  0.75361000  0.14334000  0.87626000  1
  H  H28  1  0.16443000  0.31319000  0.42218000  1
  H  H29  1  0.05899000  0.52878000  0.77023000  1
  H  H30  1  0.20672000  0.50179000  0.99228000  1
  H  H31  1  0.10696000  0.05612000  0.95246000  1
  H  H32  1  0.70384000  0.48751000  0.76430000  1
  H  H33  1  0.25376000  0.35682000  0.62369000  1
  H  H34  1  0.66446000  0.18684000  0.07782000  1
  H  H35  1  0.55897000  0.97121000  0.72978000  1
  C  C36  1  0.27482000  0.92959000  0.44497000  1
  C  C37  1  0.28449000  0.57222000  0.44641000  1
  C  C38  1  0.86654000  0.95634000  0.31779000  1
  C  C39  1  0.16432000  0.82558000  0.16831000  1
  C  C40  1  0.89742000  0.74237000  0.53206000  1
  C  C41  1  0.97307000  0.51718000  0.29153000  1
  C  C42  1  0.77486000  0.57041000  0.05503000  1
  C  C43  1  0.78451000  0.92762000  0.05361000  1
  C  C44  1  0.36652000  0.54366000  0.18228000  1
  C  C45  1  0.66426000  0.67440000  0.33171000  1
  C  C46  1  0.39740000  0.75762000  0.96794000  1
  C  C47  1  0.47309000  0.98283000  0.20845000  1
  C  C48  1  0.72517000  0.07041000  0.55503000  1
  C  C49  1  0.71551000  0.42778000  0.55359000  1
  C  C50  1  0.13346000  0.04366000  0.68221000  1
  C  C51  1  0.83568000  0.17442000  0.83168000  1
  C  C52  1  0.10258000  0.25763000  0.46794000  1
  C  C53  1  0.02693000  0.48282000  0.70846000  1
  C  C54  1  0.22514000  0.42959000  0.94497000  1
  C  C55  1  0.21549000  0.07238000  0.94639000  1
  C  C56  1  0.63348000  0.45634000  0.81772000  1
  C  C57  1  0.33574000  0.32560000  0.66829000  1
  C  C58  1  0.60259000  0.24238000  0.03206000  1
  C  C59  1  0.52691000  0.01717000  0.79155000  1
  O  O60  1  0.15128000  0.89806000  0.43664000  1
  O  O61  1  0.37449000  0.88707000  0.40474000  1
  O  O62  1  0.19321000  0.80990000  0.25343000  1
  O  O63  1  0.25063000  0.65201000  0.38646000  1
  O  O64  1  0.91254000  0.85088000  0.30800000  1
  O  O65  1  0.98706000  0.63024000  0.28220000  1
  O  O66  1  0.97375000  0.68471000  0.47721000  1
  O  O67  1  0.05191000  0.81026000  0.13153000  1
  O  O68  1  0.99306000  0.45717000  0.36307000  1
  O  O69  1  0.20706000  0.51185000  0.49622000  1
  O  O70  1  0.89229000  0.02514000  0.38112000  1
  O  O71  1  0.88617000  0.85221000  0.53677000  1
  O  O72  1  0.65131000  0.60193000  0.06336000  1
  O  O73  1  0.87453000  0.61290000  0.09527000  1
  O  O74  1  0.69319000  0.69009000  0.24659000  1
  O  O75  1  0.75072000  0.84764000  0.11346000  1
  O  O76  1  0.41260000  0.64906000  0.19216000  1
  O  O77  1  0.48707000  0.86978000  0.21779000  1
  O  O78  1  0.47371000  0.81529000  0.02279000  1
  O  O79  1  0.55184000  0.68978000  0.36849000  1
  O  O80  1  0.49306000  0.04285000  0.13691000  1
  O  O81  1  0.70708000  0.98809000  0.00387000  1
  O  O82  1  0.39223000  0.47493000  0.11887000  1
  O  O83  1  0.38619000  0.64777000  0.96324000  1
  O  O84  1  0.84872000  0.10194000  0.56335000  1
  O  O85  1  0.62550000  0.11293000  0.59526000  1
  O  O86  1  0.80679000  0.19010000  0.74657000  1
  O  O87  1  0.74936000  0.34799000  0.61354000  1
  O  O88  1  0.08746000  0.14912000  0.69200000  1
  O  O89  1  0.01294000  0.36976000  0.71780000  1
  O  O90  1  0.02625000  0.31529000  0.52279000  1
  O  O91  1  0.94809000  0.18974000  0.86847000  1
  O  O92  1  0.00693000  0.54283000  0.63693000  1
  O  O93  1  0.79293000  0.48815000  0.50377000  1
  O  O94  1  0.10771000  0.97486000  0.61888000  1
  O  O95  1  0.11383000  0.14779000  0.46323000  1
  O  O96  1  0.34869000  0.39807000  0.93663000  1
  O  O97  1  0.12547000  0.38710000  0.90473000  1
  O  O98  1  0.30680000  0.30991000  0.75340000  1
  O  O99  1  0.24927000  0.15236000  0.88654000  1
  O  O100  1  0.58739000  0.35094000  0.80784000  1
  O  O101  1  0.51293000  0.13022000  0.78221000  1
  O  O102  1  0.52628000  0.18471000  0.97721000  1
  O  O103  1  0.44815000  0.31022000  0.63151000  1
  O  O104  1  0.50693000  0.95715000  0.86309000  1
  O  O105  1  0.29292000  0.01191000  0.99613000  1
  O  O106  1  0.60776000  0.52507000  0.88113000  1
  O  O107  1  0.61381000  0.35223000  0.03676000  1
