# generated using pymatgen
data_H5C9N
_symmetry_space_group_name_H-M   'P 1'
_cell_length_a   32.94494035
_cell_length_b   32.94494035
_cell_length_c   32.94494035
_cell_angle_alpha   98.39174200
_cell_angle_beta   115.27920954
_cell_angle_gamma   115.27920954
_symmetry_Int_Tables_number   1
_chemical_formula_structural   H5C9N
_chemical_formula_sum   'H120 C216 N24'
_cell_volume   26776.71551324
_cell_formula_units_Z   24
loop_
 _symmetry_equiv_pos_site_id
 _symmetry_equiv_pos_as_xyz
  1  'x, y, z'
loop_
 _atom_site_type_symbol
 _atom_site_label
 _atom_site_symmetry_multiplicity
 _atom_site_fract_x
 _atom_site_fract_y
 _atom_site_fract_z
 _atom_site_occupancy
  C  1  1  0.27804200  0.60566350  0.95150450  1
  C  3  1  0.30864050  0.59182800  0.90029650  1
  C  5  1  0.34462000  0.67363750  0.95038550  1
  C  7  1  0.30770150  0.55865900  0.86645650  1
  C  8  1  0.28713000  0.50932800  0.86108900  1
  C  9  1  0.28704350  0.47670300  0.82831250  1
  C  10  1  0.30693650  0.49186750  0.79911700  1
  C  11  1  0.32718700  0.54112100  0.80427000  1
  C  12  1  0.32786550  0.57393700  0.83747050  1
  C  13  1  0.24574000  0.58763100  0.97072800  1
  C  14  1  0.20669350  0.53698800  0.95219750  1
  C  15  1  0.17570300  0.51940700  0.97207800  1
  C  16  1  0.18327550  0.55189050  0.01168300  1
  C  17  1  0.22172800  0.60247650  0.02995550  1
  C  18  1  0.25219600  0.61999350  0.00975050  1
  C  19  1  0.38122950  0.72530900  0.96934050  1
  C  20  1  0.38855050  0.75761600  0.00908250  1
  C  21  1  0.42634850  0.80832650  0.02959200  1
  C  22  1  0.45804750  0.82885950  0.01087700  1
  C  23  1  0.45010600  0.79711050  0.97045650  1
  C  24  1  0.41259750  0.74620500  0.95027950  1
  C  37  1  0.79534050  0.67285850  0.40238200  1
  C  39  1  0.76344550  0.59089250  0.35660800  1
  C  41  1  0.72615500  0.60513350  0.40108350  1
  C  43  1  0.76438900  0.55787250  0.32435350  1
  C  44  1  0.80855100  0.57354200  0.31923400  1
  C  45  1  0.80918200  0.54109550  0.28693150  1
  C  46  1  0.76544100  0.49169250  0.25786450  1
  C  47  1  0.72122000  0.47611250  0.26290550  1
  C  48  1  0.72081850  0.50838750  0.29561800  1
  C  49  1  0.82819500  0.72453550  0.41763650  1
  C  50  1  0.86859850  0.74545450  0.40770700  1
  C  51  1  0.89952750  0.79638200  0.42135450  1
  C  52  1  0.89061050  0.82809600  0.44486950  1
  C  53  1  0.85085800  0.80756000  0.45542600  1
  C  54  1  0.82050500  0.75682450  0.44232450  1
  C  55  1  0.68934350  0.58792150  0.41597100  1
  C  56  1  0.68105450  0.62041050  0.43954400  1
  C  57  1  0.64382800  0.60357600  0.45317600  1
  C  58  1  0.61398250  0.55363250  0.44440200  1
  C  59  1  0.62270500  0.52110900  0.42176900  1
  C  60  1  0.65944050  0.53791800  0.40747650  1
  C  73  1  0.72703550  0.36430850  0.64130000  1
  C  75  1  0.76487650  0.31995750  0.62841000  1
  C  77  1  0.79662650  0.36689200  0.70990050  1
  C  79  1  0.76563700  0.28738600  0.59558600  1
  C  80  1  0.72177400  0.25838250  0.54623250  1
  C  81  1  0.72207050  0.22572000  0.51386250  1
  C  82  1  0.76648350  0.22102850  0.52924100  1
  C  83  1  0.81040800  0.25014300  0.57856700  1
  C  84  1  0.80988250  0.28242900  0.61113950  1
  C  85  1  0.68951150  0.37824750  0.62294200  1
  C  86  1  0.65712100  0.36609700  0.57220100  1
  C  87  1  0.61934450  0.37914400  0.55437050  1
  C  88  1  0.61218650  0.40420650  0.58670800  1
  C  89  1  0.64485000  0.41697050  0.63739250  1
  C  90  1  0.68286800  0.40439350  0.65514450  1
  C  91  1  0.82942350  0.38292050  0.76173000  1
  C  92  1  0.82049400  0.40672800  0.79341600  1
  C  93  1  0.85080850  0.42046500  0.84430350  1
  C  94  1  0.89183250  0.41155250  0.86560000  1
  C  95  1  0.90191400  0.38889550  0.83445850  1
  C  96  1  0.87100550  0.37455250  0.78340300  1
  C  109  1  0.34627800  0.91604600  0.71087200  1
  C  111  1  0.30929100  0.86442300  0.62929800  1
  C  113  1  0.27760900  0.91482100  0.64267400  1
  C  115  1  0.30854050  0.83031850  0.59651600  1
  C  116  1  0.35226550  0.82458300  0.61180150  1
  C  117  1  0.35210750  0.79178200  0.57908050  1
  C  118  1  0.30796200  0.76286250  0.52984450  1
  C  119  1  0.26401850  0.76826700  0.51474350  1
  C  120  1  0.26441950  0.80148600  0.54727750  1
  C  121  1  0.38299650  0.93546150  0.76255000  1
  C  122  1  0.41353250  0.91581000  0.78377950  1
  C  123  1  0.45035650  0.93568600  0.83477650  1
  C  124  1  0.45841300  0.97636050  0.86627350  1
  C  125  1  0.42787600  0.99595450  0.84539450  1
  C  126  1  0.39064150  0.97566500  0.79455950  1
  C  127  1  0.24491400  0.93372250  0.62467850  1
  C  128  1  0.25232300  0.97366450  0.65680650  1
  C  129  1  0.22196100  0.99396700  0.63921400  1
  C  130  1  0.18256350  0.97481300  0.58878050  1
  C  131  1  0.17396100  0.93423350  0.55659150  1
  C  132  1  0.20489300  0.91430200  0.57421900  1
  C  145  1  0.34553450  0.34491550  0.62317300  1
  C  147  1  0.30815600  0.35871000  0.66761700  1
  C  149  1  0.27643000  0.27691700  0.62173300  1
  C  151  1  0.30749050  0.39187100  0.69986450  1
  C  152  1  0.35145400  0.44119950  0.72863350  1
  C  153  1  0.35130200  0.47382000  0.76117400  1
  C  154  1  0.30693800  0.45864950  0.76589950  1
  C  155  1  0.26284100  0.40939600  0.73689700  1
  C  156  1  0.26322600  0.37658450  0.70475150  1
  C  157  1  0.38279050  0.36296650  0.60890800  1
  C  158  1  0.41487950  0.41361050  0.62049800  1
  C  159  1  0.45233650  0.43120550  0.60708500  1
  C  160  1  0.45947550  0.39873700  0.58218150  1
  C  161  1  0.42719050  0.34815000  0.57005850  1
  C  162  1  0.38946900  0.33061550  0.58300850  1
  C  163  1  0.24370700  0.22523900  0.60662000  1
  C  164  1  0.25122250  0.19296150  0.58169900  1
  C  165  1  0.22099850  0.14223950  0.56873200  1
  C  166  1  0.18164300  0.12167450  0.57976450  1
  C  167  1  0.17290350  0.15339500  0.60351550  1
  C  168  1  0.20365800  0.20430700  0.61697800  1
  C  181  1  0.72933450  0.27767450  0.07333900  1
  C  183  1  0.76544450  0.35962300  0.12338450  1
  C  185  1  0.79573400  0.34542750  0.07188850  1
  C  187  1  0.76618150  0.39263150  0.15733400  1
  C  188  1  0.74538250  0.37695550  0.18581600  1
  C  189  1  0.74551850  0.40939800  0.21889350  1
  C  190  1  0.76585250  0.45879950  0.22455700  1
  C  191  1  0.78647450  0.47438400  0.19591750  1
  C  192  1  0.78692250  0.44211650  0.16324600  1
  C  193  1  0.69296500  0.22598600  0.05452700  1
  C  194  1  0.66221700  0.20503150  0.07408250  1
  C  195  1  0.62500350  0.15409300  0.05411350  1
  C  196  1  0.61677850  0.12240350  0.01344800  1
  C  197  1  0.64774550  0.14297550  0.99413600  1
  C  198  1  0.68532800  0.19372650  0.01449950  1
  C  199  1  0.82785050  0.36266600  0.05231250  1
  C  200  1  0.81894300  0.33020250  0.01152150  1
  C  201  1  0.84942750  0.34706000  0.99115350  1
  C  202  1  0.89061550  0.39700450  0.01129300  1
  C  203  1  0.90050250  0.42950250  0.05255400  1
  C  204  1  0.86937750  0.41267050  0.07245500  1
  C  217  1  0.27676700  0.58646850  0.31371250  1
  C  219  1  0.30820900  0.63080350  0.39590750  1
  C  221  1  0.34279350  0.58389450  0.38072400  1
  C  223  1  0.30794450  0.66336650  0.42924200  1
  C  224  1  0.28758200  0.69236300  0.41438600  1
  C  225  1  0.28787100  0.72501600  0.44734800  1
  C  226  1  0.30794800  0.72971300  0.49645300  1
  C  227  1  0.32817300  0.70060550  0.51126050  1
  C  228  1  0.32846400  0.66832400  0.47844400  1
  C  229  1  0.24448250  0.57253450  0.26224900  1
  C  230  1  0.20591250  0.58470700  0.24199650  1
  C  231  1  0.17505200  0.57166500  0.19117300  1
  C  232  1  0.18232250  0.54658600  0.15896050  1
  C  233  1  0.22021750  0.53379600  0.17887050  1
  C  234  1  0.25053250  0.54636950  0.22946500  1
  C  235  1  0.37861150  0.56788150  0.39749200  1
  C  236  1  0.38647200  0.54406000  0.36474600  1
  C  237  1  0.42363500  0.53033600  0.38131800  1
  C  238  1  0.45388050  0.53927900  0.43125950  1
  C  239  1  0.44541300  0.56194700  0.46400700  1
  C  240  1  0.40868650  0.57627700  0.44744550  1
  C  253  1  0.79448500  0.03464800  0.38123600  1
  C  255  1  0.76456400  0.08629500  0.39587000  1
  C  257  1  0.72750850  0.03587400  0.31379250  1
  C  259  1  0.76590500  0.12041000  0.42922500  1
  C  260  1  0.78692300  0.12613900  0.47868300  1
  C  261  1  0.78701450  0.15894600  0.51132750  1
  C  262  1  0.76671550  0.18787600  0.49610250  1
  C  263  1  0.74621300  0.18248000  0.44675900  1
  C  264  1  0.74551500  0.14925250  0.41393750  1
  C  265  1  0.82673300  0.01522250  0.39856850  1
  C  266  1  0.86751650  0.03480200  0.44878350  1
  C  267  1  0.89860400  0.01490350  0.46576150  1
  C  268  1  0.88949050  0.97426950  0.43314900  1
  C  269  1  0.84913150  0.95476450  0.38298800  1
  C  270  1  0.81861200  0.97507150  0.36601450  1
  C  271  1  0.69057450  0.01696350  0.26220000  1
  C  272  1  0.68280100  0.97706850  0.22964750  1
  C  273  1  0.64487500  0.95675750  0.17899150  1
  C  274  1  0.61349700  0.97583050  0.15876750  1
  C  275  1  0.62184300  0.01636550  0.19076450  1
  C  276  1  0.65945300  0.03632400  0.24162200  1
  C  577  1  0.49759300  0.88012900  0.03322800  1
  C  578  1  0.53571250  0.90305500  0.08413050  1
  C  579  1  0.57409600  0.95390450  0.10749550  1
  C  580  1  0.57299100  0.98188450  0.07880850  1
  C  581  1  0.53630600  0.96106650  0.02693750  1
  C  582  1  0.49929150  0.90921300  0.00565050  1
  C  586  1  0.57450950  0.53618700  0.45616750  1
  C  587  1  0.53394400  0.54590200  0.43839800  1
  C  588  1  0.49370700  0.52792050  0.44850850  1
  C  589  1  0.49433900  0.49913950  0.47638850  1
  C  590  1  0.53468250  0.48857750  0.49623600  1
  C  591  1  0.57462200  0.50857050  0.48522350  1
  C  595  1  0.92044100  0.42289050  0.91677850  1
  C  596  1  0.89234400  0.40484050  0.93901350  1
  C  597  1  0.91982850  0.41448550  0.98927700  1
  C  598  1  0.97650150  0.44209450  0.01700600  1
  C  599  1  0.00750100  0.46215450  0.99707450  1
  C  600  1  0.97709950  0.45168750  0.94619500  1
  C  604  1  0.15322450  0.99673400  0.57127350  1
  C  605  1  0.18071900  0.04754000  0.58350700  1
  C  606  1  0.15273400  0.07041450  0.56807250  1
  C  607  1  0.09606900  0.04131450  0.54056550  1
  C  608  1  0.06548750  0.98951700  0.52607050  1
  C  609  1  0.09655550  0.96876850  0.54229500  1
  C  649  1  0.57689600  0.07127000  0.99109300  1
  C  650  1  0.53745150  0.04878100  0.94053350  1
  C  651  1  0.49765250  0.99829750  0.91754900  1
  C  652  1  0.49788650  0.97045650  0.94638800  1
  C  653  1  0.53667300  0.99072100  0.99775000  1
  C  654  1  0.57588050  0.04203500  0.01852050  1
  C  658  1  0.49842400  0.41584300  0.56980200  1
  C  659  1  0.53571300  0.40209300  0.58351600  1
  C  660  1  0.57273500  0.41597800  0.56944500  1
  C  661  1  0.57055950  0.44276750  0.53960400  1
  C  662  1  0.53506400  0.45935000  0.52574300  1
  C  663  1  0.49996100  0.44542400  0.54273800  1
  C  667  1  0.15329150  0.53479600  0.10772950  1
  C  668  1  0.18124950  0.54861700  0.08458150  1
  C  669  1  0.15378900  0.53480600  0.03353300  1
  C  670  1  0.09714500  0.50520600  0.00548800  1
  C  671  1  0.06623000  0.49136850  0.02668050  1
  C  672  1  0.09666500  0.50801800  0.07876400  1
  C  676  1  0.91884450  0.95233500  0.45041850  1
  C  677  1  0.89134700  0.90179500  0.43947400  1
  C  678  1  0.91940850  0.87924200  0.45617050  1
  C  679  1  0.97607200  0.90844800  0.48426200  1
  C  680  1  0.00663250  0.95985800  0.49677250  1
  C  681  1  0.97552550  0.98020400  0.47863750  1
  H  25  1  0.14857300  0.48249000  0.95825900  1
  H  26  1  0.20041350  0.51209100  0.92400650  1
  H  27  1  0.22783150  0.62720900  0.05819150  1
  H  28  1  0.27979750  0.65690250  0.02461600  1
  H  29  1  0.36714700  0.74462250  0.02444250  1
  H  30  1  0.43051050  0.83021000  0.05848750  1
  H  31  1  0.40891800  0.72451450  0.92164650  1
  H  32  1  0.47280700  0.81063400  0.95632600  1
  H  33  1  0.34256850  0.60906300  0.83959050  1
  H  34  1  0.34108800  0.55357300  0.78330900  1
  H  35  1  0.27313100  0.44180100  0.82675200  1
  H  36  1  0.27295950  0.49669500  0.88182650  1
  H  61  1  0.92750900  0.80995300  0.41255000  1
  H  62  1  0.87572900  0.72377350  0.38993850  1
  H  63  1  0.84354600  0.82943750  0.47274150  1
  H  64  1  0.79173250  0.74378850  0.45023100  1
  H  65  1  0.70132300  0.65685900  0.44636300  1
  H  66  1  0.63877750  0.62824050  0.46971100  1
  H  67  1  0.66395600  0.51297600  0.39064000  1
  H  68  1  0.60110300  0.48451950  0.41409250  1
  H  69  1  0.68751050  0.49540950  0.29728000  1
  H  70  1  0.68807750  0.44111150  0.24195100  1
  H  71  1  0.84258400  0.55396300  0.28543600  1
  H  72  1  0.84135150  0.60877150  0.33958900  1
  H  97  1  0.59599200  0.36890900  0.51739400  1
  H  98  1  0.66040750  0.34729300  0.54743050  1
  H  99  1  0.64131450  0.43570950  0.66201800  1
  H  100  1  0.70508650  0.41410250  0.69212000  1
  H  101  1  0.79078050  0.41342850  0.77979700  1
  H  102  1  0.84249800  0.43696100  0.86572400  1
  H  103  1  0.87902750  0.35742150  0.76218800  1
  H  104  1  0.93070300  0.38109100  0.84854000  1
  H  105  1  0.84282400  0.30297800  0.64628600  1
  H  106  1  0.84386750  0.24875750  0.59122700  1
  H  107  1  0.68879950  0.20466350  0.47893300  1
  H  108  1  0.68838750  0.25991100  0.53335050  1
  H  133  1  0.47236450  0.92101450  0.84858700  1
  H  134  1  0.40950100  0.88676750  0.76231850  1
  H  135  1  0.43240350  0.02522050  0.86711200  1
  H  136  1  0.36987500  0.99147800  0.78124700  1
  H  137  1  0.28073700  0.98929500  0.69357600  1
  H  138  1  0.22890100  0.02297000  0.66374400  1
  H  139  1  0.19794550  0.88549000  0.54948150  1
  H  140  1  0.14619800  0.91979600  0.51974800  1
  H  141  1  0.23154050  0.80381100  0.53457350  1
  H  142  1  0.23069400  0.74750600  0.47981800  1
  H  143  1  0.38534950  0.79006000  0.59150450  1
  H  144  1  0.38554400  0.84519400  0.64676700  1
  H  169  1  0.47542050  0.46812400  0.61686950  1
  H  170  1  0.41156900  0.43849600  0.63911000  1
  H  171  1  0.43071500  0.32342950  0.55144050  1
  H  172  1  0.36744850  0.29370700  0.57371250  1
  H  173  1  0.27965250  0.20598400  0.57338650  1
  H  174  1  0.22808450  0.12037600  0.55108150  1
  H  175  1  0.19665300  0.22597500  0.63493300  1
  H  176  1  0.14517900  0.13984150  0.61261050  1
  H  177  1  0.23022150  0.34145850  0.68432800  1
  H  178  1  0.22942900  0.39694100  0.73834500  1
  H  179  1  0.38464150  0.50872250  0.78216500  1
  H  180  1  0.38482450  0.45383800  0.72709450  1
  H  205  1  0.60268800  0.14049550  0.06857150  1
  H  206  1  0.66615350  0.22669200  0.10292750  1
  H  207  1  0.64312200  0.12111850  0.96489050  1
  H  208  1  0.70618400  0.20679500  0.99870100  1
  H  209  1  0.78929650  0.29375350  0.99531000  1
  H  210  1  0.84129800  0.32241500  0.96142100  1
  H  211  1  0.87747900  0.43759250  0.10192550  1
  H  212  1  0.92942600  0.46609200  0.06757000  1
  H  213  1  0.80157000  0.45510000  0.14292300  1
  H  214  1  0.80052050  0.50938600  0.19777650  1
  H  215  1  0.73115300  0.39652700  0.23942300  1
  H  216  1  0.73051300  0.34172650  0.18338750  1
  H  241  1  0.14832500  0.58191450  0.17804650  1
  H  242  1  0.19995100  0.60352450  0.26408250  1
  H  243  1  0.22609750  0.51503800  0.15660350  1
  H  244  1  0.27777800  0.53663750  0.24198050  1
  H  245  1  0.36612450  0.53733550  0.32832800  1
  H  246  1  0.42853500  0.51382200  0.35650100  1
  H  247  1  0.40461550  0.59341550  0.47260500  1
  H  248  1  0.46731900  0.56976750  0.50060150  1
  H  249  1  0.34306950  0.64778150  0.49083600  1
  H  250  1  0.34222400  0.70199000  0.54610400  1
  H  251  1  0.27398800  0.74606700  0.43513400  1
  H  252  1  0.27316350  0.69083050  0.37946800  1
  H  277  1  0.92701700  0.02952600  0.50245500  1
  H  278  1  0.87504750  0.06381150  0.47379300  1
  H  279  1  0.84165300  0.92555400  0.35823800  1
  H  280  1  0.78957100  0.95931950  0.32941350  1
  H  281  1  0.70401900  0.96149750  0.24240850  1
  H  282  1  0.64046600  0.92780500  0.15691500  1
  H  283  1  0.66349000  0.06509550  0.26350050  1
  H  284  1  0.59938450  0.03076150  0.17745900  1
  H  285  1  0.73049200  0.14692950  0.37873550  1
  H  286  1  0.73206000  0.20324800  0.43419900  1
  H  287  1  0.80115750  0.16066600  0.54629250  1
  H  288  1  0.80126100  0.10551600  0.49134500  1
  H  583  1  0.60108050  0.01846800  0.09734250  1
  H  584  1  0.47139650  0.89099300  0.96900750  1
  H  585  1  0.53553350  0.88235450  0.10454500  1
  H  592  1  0.46303650  0.48486850  0.48068700  1
  H  593  1  0.60612150  0.50453050  0.49931000  1
  H  594  1  0.53369100  0.56637300  0.41776200  1
  H  601  1  0.99463550  0.44604050  0.05251900  1
  H  602  1  0.99568050  0.46601750  0.92918900  1
  H  603  1  0.85123950  0.38436550  0.91828900  1
  H  610  1  0.07767300  0.05948700  0.53049400  1
  H  611  1  0.07853450  0.93226400  0.53424250  1
  H  612  1  0.22183100  0.06824100  0.60403200  1
  H  655  1  0.46748150  0.93449900  0.92841150  1
  H  656  1  0.60610600  0.05965950  0.05453450  1
  H  657  1  0.53776600  0.06947400  0.92011400  1
  H  664  1  0.59686800  0.45070150  0.52898750  1
  H  665  1  0.47352300  0.45586750  0.53498650  1
  H  666  1  0.53597150  0.38165750  0.60420500  1
  H  673  1  0.07893950  0.49469800  0.96859650  1
  H  674  1  0.07809950  0.50016800  0.09713750  1
  H  675  1  0.22237400  0.56905200  0.10527600  1
  H  682  1  0.99444100  0.89071100  0.49646500  1
  H  683  1  0.99349550  0.01625450  0.48455800  1
  H  684  1  0.85023550  0.88110150  0.41909300  1
  N  2  1  0.27735250  0.57514550  0.91831000  1
  N  4  1  0.34193600  0.64123400  0.91700200  1
  N  6  1  0.31232200  0.65454350  0.96689250  1
  N  38  1  0.79621150  0.64031400  0.37270650  1
  N  40  1  0.72870300  0.57436050  0.37127050  1
  N  42  1  0.75977200  0.65392800  0.41560100  1
  N  74  1  0.72985650  0.33418150  0.61121800  1
  N  76  1  0.79778900  0.33684900  0.67793300  1
  N  78  1  0.76070800  0.37962050  0.69026350  1
  N  110  1  0.34375450  0.88260450  0.67870500  1
  N  112  1  0.27673850  0.88122600  0.61233350  1
  N  114  1  0.31291800  0.93144600  0.69155000  1
  N  146  1  0.34286000  0.37541600  0.65302200  1
  N  148  1  0.27544750  0.30930100  0.65147250  1
  N  150  1  0.31204050  0.29603450  0.60854400  1
  N  182  1  0.73215900  0.31019600  0.10673700  1
  N  184  1  0.79665300  0.37618150  0.10519050  1
  N  186  1  0.76148950  0.29662950  0.05671600  1
  N  218  1  0.27679850  0.61658400  0.34666250  1
  N  220  1  0.34085250  0.61392350  0.41193000  1
  N  222  1  0.31043200  0.57117050  0.33207850  1
  N  254  1  0.79577700  0.06810400  0.41215000  1
  N  256  1  0.73078400  0.06948300  0.34651800  1
  N  258  1  0.75974900  0.01923650  0.33247250  1
