# generated using pymatgen
data_EuH4C12(SO4)2
_symmetry_space_group_name_H-M   'P 1'
_cell_length_a   11.85329000
_cell_length_b   12.07972000
_cell_length_c   16.55775000
_cell_angle_alpha   90.04510000
_cell_angle_beta   90.04984000
_cell_angle_gamma   112.32484000
_symmetry_Int_Tables_number   1
_chemical_formula_structural   EuH4C12(SO4)2
_chemical_formula_sum   'Eu4 H16 C48 S8 O32'
_cell_volume   2193.10555430
_cell_formula_units_Z   4
loop_
 _symmetry_equiv_pos_site_id
 _symmetry_equiv_pos_as_xyz
  1  'x, y, z'
loop_
 _atom_site_type_symbol
 _atom_site_label
 _atom_site_symmetry_multiplicity
 _atom_site_fract_x
 _atom_site_fract_y
 _atom_site_fract_z
 _atom_site_occupancy
  Eu  Eu0  1  0.80658000  0.42409000  0.97216000  1
  Eu  Eu1  1  0.19374000  0.07751000  0.47154000  1
  Eu  Eu2  1  0.19440000  0.57821000  0.02760000  1
  Eu  Eu3  1  0.80650000  0.92295000  0.52853000  1
  H  H4  1  0.23593000  0.79090000  0.86185000  1
  H  H5  1  0.26994000  0.91776000  0.72566000  1
  H  H6  1  0.69464000  0.06986000  0.74816000  1
  H  H7  1  0.56853000  0.00904000  0.61178000  1
  H  H8  1  0.76447000  0.70854000  0.36192000  1
  H  H9  1  0.73180000  0.58086000  0.22562000  1
  H  H10  1  0.30668000  0.43197000  0.24772000  1
  H  H11  1  0.43225000  0.49205000  0.11135000  1
  H  H12  1  0.76391000  0.20769000  0.13744000  1
  H  H13  1  0.73059000  0.08095000  0.27379000  1
  H  H14  1  0.30590000  0.93028000  0.25189000  1
  H  H15  1  0.43242000  0.99186000  0.38808000  1
  H  H16  1  0.23538000  0.28961000  0.64011000  1
  H  H17  1  0.26823000  0.41853000  0.77568000  1
  H  H18  1  0.69283000  0.56636000  0.75165000  1
  H  H19  1  0.56883000  0.50865000  0.88886000  1
  C  C20  1  0.04191000  0.75968000  0.85058000  1
  C  C21  1  0.16531000  0.80691000  0.82740000  1
  C  C22  1  0.18310000  0.87296000  0.75598000  1
  C  C23  1  0.07309000  0.87430000  0.72480000  1
  C  C24  1  0.98578000  0.67831000  0.91890000  1
  C  C25  1  0.05358000  0.93126000  0.64951000  1
  C  C26  1  0.60427000  0.19548000  0.76928000  1
  C  C27  1  0.62939000  0.10681000  0.72716000  1
  C  C28  1  0.56293000  0.07442000  0.65505000  1
  C  C29  1  0.48676000  0.13777000  0.64323000  1
  C  C30  1  0.66362000  0.26170000  0.84257000  1
  C  C31  1  0.40521000  0.12959000  0.57421000  1
  C  C32  1  0.95872000  0.74076000  0.35115000  1
  C  C33  1  0.83538000  0.69271000  0.32775000  1
  C  C34  1  0.81824000  0.62662000  0.25629000  1
  C  C35  1  0.92862000  0.62631000  0.22525000  1
  C  C36  1  0.01469000  0.82298000  0.41918000  1
  C  C37  1  0.94760000  0.56947000  0.14975000  1
  C  C38  1  0.39615000  0.30548000  0.26874000  1
  C  C39  1  0.37146000  0.39449000  0.22669000  1
  C  C40  1  0.43796000  0.42681000  0.15467000  1
  C  C41  1  0.51396000  0.36325000  0.14300000  1
  C  C42  1  0.33673000  0.23917000  0.34195000  1
  C  C43  1  0.59508000  0.37063000  0.07404000  1
  C  C44  1  0.95851000  0.24181000  0.14956000  1
  C  C45  1  0.83486000  0.19286000  0.17225000  1
  C  C46  1  0.81732000  0.12661000  0.24355000  1
  C  C47  1  0.92758000  0.12647000  0.27506000  1
  C  C48  1  0.01449000  0.32352000  0.08125000  1
  C  C49  1  0.94673000  0.06905000  0.35023000  1
  C  C50  1  0.39629000  0.80463000  0.23096000  1
  C  C51  1  0.37117000  0.89339000  0.27296000  1
  C  C52  1  0.43772000  0.92609000  0.34503000  1
  C  C53  1  0.51362000  0.86250000  0.35702000  1
  C  C54  1  0.33679000  0.73857000  0.15765000  1
  C  C55  1  0.59510000  0.87052000  0.42597000  1
  C  C56  1  0.04158000  0.25997000  0.64944000  1
  C  C57  1  0.16460000  0.30667000  0.67362000  1
  C  C58  1  0.18183000  0.37370000  0.74470000  1
  C  C59  1  0.07180000  0.37620000  0.77480000  1
  C  C60  1  0.98583000  0.17771000  0.58127000  1
  C  C61  1  0.05208000  0.43356000  0.85000000  1
  C  C62  1  0.60482000  0.69428000  0.73094000  1
  C  C63  1  0.62906000  0.60495000  0.77296000  1
  C  C64  1  0.56339000  0.57378000  0.84535000  1
  C  C65  1  0.48838000  0.63835000  0.85725000  1
  C  C66  1  0.66389000  0.76068000  0.65768000  1
  C  C67  1  0.40726000  0.63167000  0.92613000  1
  S  S68  1  0.94896000  0.79528000  0.78374000  1
  S  S69  1  0.49591000  0.23620000  0.72092000  1
  S  S70  1  0.05242000  0.70610000  0.28442000  1
  S  S71  1  0.50443000  0.26467000  0.22050000  1
  S  S72  1  0.05186000  0.20740000  0.21672000  1
  S  S73  1  0.50431000  0.76373000  0.27956000  1
  S  S74  1  0.94831000  0.29746000  0.71507000  1
  S  S75  1  0.49794000  0.73667000  0.77962000  1
  O  O76  1  0.86985000  0.62993000  0.92043000  1
  O  O77  1  0.05704000  0.65745000  0.96874000  1
  O  O78  1  0.94793000  0.93332000  0.63958000  1
  O  O79  1  0.14392000  0.97292000  0.60240000  1
  O  O80  1  0.71419000  0.21602000  0.89275000  1
  O  O81  1  0.66306000  0.36670000  0.85299000  1
  O  O82  1  0.35500000  0.20620000  0.56806000  1
  O  O83  1  0.38296000  0.04431000  0.52374000  1
  O  O84  1  0.13061000  0.87171000  0.42064000  1
  O  O85  1  0.94328000  0.84422000  0.46868000  1
  O  O86  1  0.05289000  0.56707000  0.13931000  1
  O  O87  1  0.85660000  0.52790000  0.10287000  1
  O  O88  1  0.28606000  0.28490000  0.39209000  1
  O  O89  1  0.33716000  0.13412000  0.35257000  1
  O  O90  1  0.64504000  0.29385000  0.06789000  1
  O  O91  1  0.61718000  0.45578000  0.02359000  1
  O  O92  1  0.13036000  0.37197000  0.07952000  1
  O  O93  1  0.94286000  0.34414000  0.03158000  1
  O  O94  1  0.05218000  0.06668000  0.36031000  1
  O  O95  1  0.85625000  0.02747000  0.39730000  1
  O  O96  1  0.28600000  0.78424000  0.10758000  1
  O  O97  1  0.33701000  0.63344000  0.14704000  1
  O  O98  1  0.64524000  0.79384000  0.43213000  1
  O  O99  1  0.61734000  0.95580000  0.47643000  1
  O  O100  1  0.86985000  0.12873000  0.57968000  1
  O  O101  1  0.05705000  0.15679000  0.53150000  1
  O  O102  1  0.94573000  0.43336000  0.86038000  1
  O  O103  1  0.14317000  0.47758000  0.89662000  1
  O  O104  1  0.71445000  0.71516000  0.60738000  1
  O  O105  1  0.66305000  0.86563000  0.64737000  1
  O  O106  1  0.35968000  0.71028000  0.93245000  1
  O  O107  1  0.38289000  0.54542000  0.97601000  1
