# generated using pymatgen
data_PrH12(C4O)6
_symmetry_space_group_name_H-M   'P 1'
_cell_length_a   10.52800000
_cell_length_b   11.43267000
_cell_length_c   13.02387000
_cell_angle_alpha   72.21538000
_cell_angle_beta   89.71170000
_cell_angle_gamma   86.61891000
_symmetry_Int_Tables_number   1
_chemical_formula_structural   PrH12(C4O)6
_chemical_formula_sum   'Pr2 H24 C48 O12'
_cell_volume   1489.94370314
_cell_formula_units_Z   2
loop_
 _symmetry_equiv_pos_site_id
 _symmetry_equiv_pos_as_xyz
  1  'x, y, z'
loop_
 _atom_site_type_symbol
 _atom_site_label
 _atom_site_symmetry_multiplicity
 _atom_site_fract_x
 _atom_site_fract_y
 _atom_site_fract_z
 _atom_site_occupancy
  Pr  Pr1  1  0.51554000  0.44203000  0.65156000  1.0
  Pr  Pr2  1  0.48123000  0.56122000  0.34404000  1.0
  H  H1  1  0.60287000  0.10574000  0.72886000  1.0
  H  H2  1  0.72614000  0.77055000  0.47480000  1.0
  H  H3  1  0.75452000  0.29479000  0.59132000  1.0
  H  H4  1  0.68978000  0.91921000  0.69144000  1.0
  H  H5  1  0.92477000  0.87669000  0.42819000  1.0
  H  H6  1  0.84021000  0.14540000  0.75728000  1.0
  H  H7  1  0.69143000  0.71503000  0.83401000  1.0
  H  H8  1  0.92795000  0.10166000  0.40420000  1.0
  H  H9  1  0.06245000  0.15817000  0.81980000  1.0
  H  H10  1  0.60284000  0.69785000  0.01301000  1.0
  H  H11  1  0.73318000  0.21983000  0.42878000  1.0
  H  H12  1  0.19394000  0.32213000  0.71879000  1.0
  H  H13  1  0.39545000  0.89765000  0.26797000  1.0
  H  H14  1  0.27279000  0.22996000  0.52283000  1.0
  H  H15  1  0.24215000  0.70534000  0.40622000  1.0
  H  H16  1  0.31028000  0.08448000  0.30578000  1.0
  H  H17  1  0.07538000  0.12269000  0.57239000  1.0
  H  H18  1  0.15621000  0.85531000  0.24052000  1.0
  H  H19  1  0.30885000  0.28875000  0.16360000  1.0
  H  H20  1  0.07229000  0.89771000  0.59656000  1.0
  H  H21  1  0.93401000  0.84222000  0.17839000  1.0
  H  H22  1  0.39655000  0.30573000  0.98429000  1.0
  H  H23  1  0.26635000  0.78071000  0.56921000  1.0
  H  H24  1  0.80291000  0.67769000  0.27868000  1.0
  C  C1  1  0.50472000  0.24010000  0.83513000  1.0
  C  C2  1  0.49336000  0.74118000  0.51723000  1.0
  C  C3  1  0.73785000  0.49297000  0.43155000  1.0
  C  C4  1  0.50240000  0.11748000  0.91936000  1.0
  C  C5  1  0.49693000  0.87462000  0.50878000  1.0
  C  C6  1  0.87293000  0.49370000  0.46449000  1.0
  C  C7  1  0.55350000  0.01204000  0.89542000  1.0
  C  C8  1  0.61179000  0.93313000  0.48175000  1.0
  C  C9  1  0.92120000  0.40440000  0.55911000  1.0
  C  C10  1  0.60465000  0.01774000  0.79216000  1.0
  C  C11  1  0.72683000  0.86840000  0.46571000  1.0
  C  C12  1  0.84896000  0.30496000  0.61979000  1.0
  C  C13  1  0.65268000  0.91322000  0.77090000  1.0
  C  C14  1  0.83799000  0.92754000  0.43983000  1.0
  C  C15  1  0.89797000  0.21930000  0.71193000  1.0
  C  C16  1  0.65236000  0.79688000  0.85171000  1.0
  C  C17  1  0.83987000  0.05562000  0.42681000  1.0
  C  C18  1  0.02355000  0.22690000  0.74751000  1.0
  C  C19  1  0.60241000  0.78708000  0.95149000  1.0
  C  C20  1  0.73109000  0.12138000  0.44129000  1.0
  C  C21  1  0.09769000  0.31932000  0.69029000  1.0
  C  C22  1  0.55059000  0.89329000  0.97681000  1.0
  C  C23  1  0.61407000  0.06304000  0.47011000  1.0
  C  C24  1  0.04967000  0.41118000  0.59500000  1.0
  C  C25  1  0.49039000  0.76286000  0.16031000  1.0
  C  C26  1  0.50427000  0.25970000  0.48188000  1.0
  C  C27  1  0.25819000  0.50820000  0.56732000  1.0
  C  C28  1  0.49462000  0.88584000  0.07713000  1.0
  C  C29  1  0.50133000  0.12704000  0.48695000  1.0
  C  C30  1  0.12351000  0.50676000  0.53322000  1.0
  C  C31  1  0.44406000  0.99129000  0.10127000  1.0
  C  C32  1  0.38663000  0.06825000  0.51405000  1.0
  C  C33  1  0.07544000  0.59575000  0.43839000  1.0
  C  C34  1  0.39370000  0.98572000  0.20473000  1.0
  C  C35  1  0.27194000  0.13229000  0.53146000  1.0
  C  C36  1  0.14772000  0.69525000  0.37773000  1.0
  C  C37  1  0.34680000  0.09044000  0.22621000  1.0
  C  C38  1  0.16155000  0.07239000  0.55903000  1.0
  C  C39  1  0.09868000  0.78115000  0.28580000  1.0
  C  C40  1  0.34737000  0.20687000  0.14561000  1.0
  C  C41  1  0.15965000  0.94437000  0.57211000  1.0
  C  C42  1  0.97309000  0.77342000  0.25042000  1.0
  C  C43  1  0.39646000  0.21642000  0.04559000  1.0
  C  C44  1  0.26803000  0.87929000  0.55602000  1.0
  C  C45  1  0.89899000  0.68083000  0.30735000  1.0
  C  C46  1  0.44716000  0.11005000  0.01996000  1.0
  C  C47  1  0.38434000  0.93842000  0.52587000  1.0
  C  C48  1  0.94698000  0.58893000  0.40249000  1.0
  O  O1  1  0.61074000  0.29168000  0.80811000  1.0
  O  O2  1  0.51834000  0.66152000  0.60809000  1.0
  O  O3  1  0.65000000  0.51448000  0.49598000  1.0
  O  O4  1  0.40026000  0.29238000  0.78880000  1.0
  O  O5  1  0.46399000  0.71561000  0.43142000  1.0
  O  O6  1  0.70673000  0.47992000  0.34275000  1.0
  O  O7  1  0.38382000  0.71288000  0.18677000  1.0
  O  O8  1  0.47534000  0.34245000  0.39319000  1.0
  O  O9  1  0.34702000  0.48616000  0.50381000  1.0
  O  O10  1  0.59439000  0.70808000  0.20630000  1.0
  O  O11  1  0.53632000  0.28116000  0.56868000  1.0
  O  O12  1  0.28742000  0.52189000  0.65617000  1.0
