# generated using pymatgen
data_CoH8(C3N)4
_symmetry_space_group_name_H-M   'P 1'
_cell_length_a   12.02270000
_cell_length_b   17.35305298
_cell_length_c   17.35305298
_cell_angle_alpha   83.14268289
_cell_angle_beta   69.84411902
_cell_angle_gamma   69.84411902
_symmetry_Int_Tables_number   1
_chemical_formula_structural   CoH8(C3N)4
_chemical_formula_sum   'Co8 H64 C96 N32'
_cell_volume   3190.52064358
_cell_formula_units_Z   8
loop_
 _symmetry_equiv_pos_site_id
 _symmetry_equiv_pos_as_xyz
  1  'x, y, z'
loop_
 _atom_site_type_symbol
 _atom_site_label
 _atom_site_symmetry_multiplicity
 _atom_site_fract_x
 _atom_site_fract_y
 _atom_site_fract_z
 _atom_site_occupancy
  Co  Co1  1  0.66085000  0.17859000  0.25034000  1.0
  Co  Co2  1  0.08874000  0.32144000  0.24984000  1.0
  Co  Co3  1  0.33914000  0.24967000  0.32142000  1.0
  Co  Co4  1  0.91126000  0.25016000  0.17857000  1.0
  Co  Co5  1  0.33915000  0.82141000  0.74967000  1.0
  Co  Co6  1  0.91125000  0.67857000  0.75016000  1.0
  Co  Co7  1  0.66086000  0.75033000  0.67859000  1.0
  Co  Co8  1  0.08874000  0.74984000  0.82144000  1.0
  H  H1  1  0.78560000  0.01860000  0.34749000  1.0
  H  H2  1  0.09544000  0.11449000  0.25608000  1.0
  H  H3  1  0.21121000  0.00622000  0.32031000  1.0
  H  H4  1  0.14974000  0.48193000  0.15373000  1.0
  H  H5  1  0.46592000  0.38504000  0.24329000  1.0
  H  H6  1  0.53704000  0.49369000  0.17957000  1.0
  H  H7  1  0.30388000  0.34702000  0.48165000  1.0
  H  H8  1  0.70906000  0.25682000  0.38582000  1.0
  H  H9  1  0.71634000  0.32076000  0.49445000  1.0
  H  H10  1  0.13237000  0.15315000  0.01799000  1.0
  H  H11  1  0.35073000  0.24437000  0.11467000  1.0
  H  H12  1  0.53094000  0.17987000  0.00684000  1.0
  H  H13  1  0.21440000  0.15251000  0.48140000  1.0
  H  H14  1  0.90457000  0.24392000  0.38551000  1.0
  H  H15  1  0.78880000  0.17969000  0.49378000  1.0
  H  H16  1  0.85026000  0.34628000  0.01807000  1.0
  H  H17  1  0.53409000  0.25671000  0.11496000  1.0
  H  H18  1  0.46296000  0.32044000  0.00631000  1.0
  H  H19  1  0.69612000  0.01836000  0.15298000  1.0
  H  H20  1  0.29095000  0.11418000  0.24318000  1.0
  H  H21  1  0.28367000  0.00555000  0.17924000  1.0
  H  H22  1  0.86763000  0.48201000  0.34686000  1.0
  H  H23  1  0.64927000  0.38533000  0.25564000  1.0
  H  H24  1  0.46907000  0.49316000  0.32013000  1.0
  H  H25  1  0.21440000  0.98140000  0.65251000  1.0
  H  H26  1  0.90456000  0.88551000  0.74392000  1.0
  H  H27  1  0.78880000  0.99378000  0.67969000  1.0
  H  H28  1  0.85025000  0.51807000  0.84628000  1.0
  H  H29  1  0.53408000  0.61496000  0.75671000  1.0
  H  H30  1  0.46296000  0.50631000  0.82044000  1.0
  H  H31  1  0.69612000  0.65298000  0.51836000  1.0
  H  H32  1  0.29094000  0.74318000  0.61418000  1.0
  H  H33  1  0.28367000  0.67924000  0.50555000  1.0
  H  H34  1  0.86763000  0.84685000  0.98201000  1.0
  H  H35  1  0.64927000  0.75563000  0.88533000  1.0
  H  H36  1  0.46907000  0.82013000  0.99316000  1.0
  H  H37  1  0.78560000  0.84749000  0.51860000  1.0
  H  H38  1  0.09544000  0.75608000  0.61449000  1.0
  H  H39  1  0.21120000  0.82031000  0.50622000  1.0
  H  H40  1  0.14974000  0.65373000  0.98193000  1.0
  H  H41  1  0.46592000  0.74329000  0.88504000  1.0
  H  H42  1  0.53704000  0.67956000  0.99369000  1.0
  H  H43  1  0.30388000  0.98164000  0.84702000  1.0
  H  H44  1  0.70906000  0.88582000  0.75682000  1.0
  H  H45  1  0.71633000  0.99445000  0.82076000  1.0
  H  H46  1  0.13237000  0.51799000  0.65315000  1.0
  H  H47  1  0.35073000  0.61467000  0.74437000  1.0
  H  H48  1  0.53093000  0.50684000  0.67987000  1.0
  H  H49  1  0.87923000  0.93810000  0.43810000  1.0
  H  H50  1  0.31924000  0.90503000  0.40503000  1.0
  H  H51  1  0.25436000  0.56184000  0.06184000  1.0
  H  H52  1  0.62888000  0.59473000  0.09474000  1.0
  H  H53  1  0.31671000  0.43837000  0.56184000  1.0
  H  H54  1  0.72326000  0.40585000  0.59554000  1.0
  H  H55  1  0.31671000  0.06184000  0.93837000  1.0
  H  H56  1  0.72326000  0.09554000  0.90585000  1.0
  H  H57  1  0.12077000  0.06190000  0.56190000  1.0
  H  H58  1  0.68077000  0.09497000  0.59497000  1.0
  H  H59  1  0.74564000  0.43816000  0.93816000  1.0
  H  H60  1  0.37112000  0.40527000  0.90527000  1.0
  H  H61  1  0.68328000  0.93816000  0.06164000  1.0
  H  H62  1  0.27675000  0.90446000  0.09415000  1.0
  H  H63  1  0.68330000  0.56163000  0.43816000  1.0
  H  H64  1  0.27675000  0.59415000  0.40446000  1.0
  C  C1  1  0.85065000  0.05205000  0.31840000  1.0
  C  C2  1  0.97044000  0.03929000  0.32303000  1.0
  C  C3  1  0.00942000  0.10034000  0.27130000  1.0
  C  C4  1  0.03706000  0.97855000  0.37189000  1.0
  C  C5  1  0.16158000  0.96914000  0.36397000  1.0
  C  C6  1  0.21966000  0.44827000  0.18233000  1.0
  C  C7  1  0.33184000  0.46070000  0.17711000  1.0
  C  C8  1  0.38058000  0.39940000  0.22848000  1.0
  C  C9  1  0.38660000  0.52141000  0.12808000  1.0
  C  C10  1  0.49394000  0.53079000  0.13592000  1.0
  C  C11  1  0.40225000  0.31814000  0.44823000  1.0
  C  C12  1  0.50908000  0.32327000  0.46095000  1.0
  C  C13  1  0.60904000  0.27169000  0.39997000  1.0
  C  C14  1  0.51484000  0.37229000  0.52170000  1.0
  C  C15  1  0.62976000  0.36447000  0.53136000  1.0
  C  C16  1  0.16848000  0.18212000  0.05153000  1.0
  C  C17  1  0.29285000  0.17729000  0.03925000  1.0
  C  C18  1  0.28007000  0.22911000  0.10028000  1.0
  C  C19  1  0.40828000  0.12830000  0.97886000  1.0
  C  C20  1  0.52479000  0.13628000  0.96970000  1.0
  C  C21  1  0.14935000  0.18160000  0.44795000  1.0
  C  C22  1  0.02956000  0.17698000  0.46071000  1.0
  C  C23  1  0.99059000  0.22870000  0.39966000  1.0
  C  C24  1  0.96295000  0.12811000  0.52145000  1.0
  C  C25  1  0.83843000  0.13603000  0.53086000  1.0
  C  C26  1  0.78034000  0.31767000  0.05173000  1.0
  C  C27  1  0.66816000  0.32289000  0.03930000  1.0
  C  C28  1  0.61942000  0.27152000  0.10061000  1.0
  C  C29  1  0.61341000  0.37192000  0.97859000  1.0
  C  C30  1  0.50607000  0.36408000  0.96921000  1.0
  C  C31  1  0.59776000  0.05177000  0.18186000  1.0
  C  C32  1  0.49092000  0.03905000  0.17673000  1.0
  C  C33  1  0.39096000  0.10004000  0.22831000  1.0
  C  C34  1  0.48517000  0.97830000  0.12771000  1.0
  C  C35  1  0.37024000  0.96864000  0.13553000  1.0
  C  C36  1  0.83153000  0.44847000  0.31788000  1.0
  C  C37  1  0.70716000  0.46075000  0.32271000  1.0
  C  C38  1  0.71994000  0.39972000  0.27089000  1.0
  C  C39  1  0.59171000  0.52114000  0.37171000  1.0
  C  C40  1  0.47520000  0.53030000  0.36373000  1.0
  C  C41  1  0.14935000  0.94795000  0.68160000  1.0
  C  C42  1  0.02956000  0.96071000  0.67698000  1.0
  C  C43  1  0.99057000  0.89966000  0.72871000  1.0
  C  C44  1  0.96295000  0.02145000  0.62811000  1.0
  C  C45  1  0.83843000  0.03086000  0.63603000  1.0
  C  C46  1  0.78034000  0.55173000  0.81767000  1.0
  C  C47  1  0.66816000  0.53930000  0.82289000  1.0
  C  C48  1  0.61943000  0.60060000  0.77152000  1.0
  C  C49  1  0.61341000  0.47859000  0.87192000  1.0
  C  C50  1  0.50607000  0.46921000  0.86408000  1.0
  C  C51  1  0.59776000  0.68186000  0.55177000  1.0
  C  C52  1  0.49092000  0.67673000  0.53905000  1.0
  C  C53  1  0.39095000  0.72831000  0.60004000  1.0
  C  C54  1  0.48517000  0.62771000  0.47830000  1.0
  C  C55  1  0.37024000  0.63553000  0.46864000  1.0
  C  C56  1  0.83153000  0.81788000  0.94847000  1.0
  C  C57  1  0.70716000  0.82271000  0.96075000  1.0
  C  C58  1  0.71994000  0.77089000  0.89972000  1.0
  C  C59  1  0.59172000  0.87170000  0.02114000  1.0
  C  C60  1  0.47520000  0.86372000  0.03031000  1.0
  C  C61  1  0.85065000  0.81840000  0.55205000  1.0
  C  C62  1  0.97045000  0.82302000  0.53929000  1.0
  C  C63  1  0.00942000  0.77130000  0.60034000  1.0
  C  C64  1  0.03706000  0.87189000  0.47855000  1.0
  C  C65  1  0.16158000  0.86397000  0.46914000  1.0
  C  C66  1  0.21966000  0.68233000  0.94827000  1.0
  C  C67  1  0.33184000  0.67711000  0.96070000  1.0
  C  C68  1  0.38058000  0.72848000  0.89940000  1.0
  C  C69  1  0.38660000  0.62808000  0.02141000  1.0
  C  C70  1  0.49394000  0.63592000  0.03079000  1.0
  C  C71  1  0.40224000  0.94823000  0.81814000  1.0
  C  C72  1  0.50908000  0.96095000  0.82327000  1.0
  C  C73  1  0.60904000  0.89996000  0.77170000  1.0
  C  C74  1  0.51484000  0.02170000  0.87229000  1.0
  C  C75  1  0.62976000  0.03136000  0.86447000  1.0
  C  C76  1  0.16847000  0.55153000  0.68212000  1.0
  C  C77  1  0.29285000  0.53925000  0.67729000  1.0
  C  C78  1  0.28007000  0.60028000  0.72911000  1.0
  C  C79  1  0.40828000  0.47886000  0.62830000  1.0
  C  C80  1  0.52479000  0.46970000  0.63628000  1.0
  C  C81  1  0.97668000  0.92966000  0.42966000  1.0
  C  C82  1  0.22273000  0.91217000  0.41217000  1.0
  C  C83  1  0.33498000  0.57031000  0.07031000  1.0
  C  C84  1  0.54645000  0.58768000  0.08768000  1.0
  C  C85  1  0.40564000  0.42998000  0.57044000  1.0
  C  C86  1  0.63403000  0.41280000  0.58823000  1.0
  C  C87  1  0.40564000  0.07044000  0.92998000  1.0
  C  C88  1  0.63402000  0.08824000  0.91280000  1.0
  C  C89  1  0.02333000  0.07034000  0.57034000  1.0
  C  C90  1  0.77728000  0.08783000  0.58783000  1.0
  C  C91  1  0.66502000  0.42969000  0.92969000  1.0
  C  C92  1  0.45355000  0.41232000  0.91232000  1.0
  C  C93  1  0.59436000  0.92956000  0.07002000  1.0
  C  C94  1  0.36597000  0.91177000  0.08721000  1.0
  C  C95  1  0.59435000  0.57002000  0.42957000  1.0
  C  C96  1  0.36598000  0.58720000  0.41177000  1.0
  N  N1  1  0.82073000  0.11601000  0.26834000  1.0
  N  N2  1  0.91937000  0.14642000  0.23918000  1.0
  N  N3  1  0.20377000  0.38427000  0.23236000  1.0
  N  N4  1  0.30419000  0.35351000  0.26094000  1.0
  N  N5  1  0.43626000  0.26793000  0.38441000  1.0
  N  N6  1  0.56516000  0.23915000  0.35403000  1.0
  N  N7  1  0.08856000  0.23233000  0.11523000  1.0
  N  N8  1  0.15790000  0.26141000  0.14590000  1.0
  N  N9  1  0.17928000  0.23166000  0.38399000  1.0
  N  N10  1  0.08063000  0.26083000  0.35358000  1.0
  N  N11  1  0.79622000  0.26765000  0.11574000  1.0
  N  N12  1  0.69581000  0.23906000  0.14650000  1.0
  N  N13  1  0.56373000  0.11560000  0.23208000  1.0
  N  N14  1  0.43485000  0.14597000  0.26085000  1.0
  N  N15  1  0.91145000  0.38477000  0.26767000  1.0
  N  N16  1  0.84209000  0.35410000  0.23860000  1.0
  N  N17  1  0.17927000  0.88399000  0.73166000  1.0
  N  N18  1  0.08063000  0.85358000  0.76083000  1.0
  N  N19  1  0.79623000  0.61573000  0.76765000  1.0
  N  N20  1  0.69582000  0.64649000  0.73906000  1.0
  N  N21  1  0.56372000  0.73208000  0.61560000  1.0
  N  N22  1  0.43485000  0.76085000  0.64597000  1.0
  N  N23  1  0.91145000  0.76767000  0.88477000  1.0
  N  N24  1  0.84209000  0.73859000  0.85411000  1.0
  N  N25  1  0.82073000  0.76834000  0.61601000  1.0
  N  N26  1  0.91938000  0.73917000  0.64642000  1.0
  N  N27  1  0.20378000  0.73235000  0.88427000  1.0
  N  N28  1  0.30418000  0.76094000  0.85351000  1.0
  N  N29  1  0.43627000  0.88440000  0.76793000  1.0
  N  N30  1  0.56516000  0.85403000  0.73915000  1.0
  N  N31  1  0.08855000  0.61523000  0.73233000  1.0
  N  N32  1  0.15790000  0.64590000  0.76141000  1.0
