# generated using pymatgen
data_H28C41(NO)8
_symmetry_space_group_name_H-M   'P 1'
_cell_length_a   36.61600000
_cell_length_b   36.61600000
_cell_length_c   43.80330000
_cell_angle_alpha   90.00000000
_cell_angle_beta   90.00000000
_cell_angle_gamma   90.00000000
_symmetry_Int_Tables_number   1
_chemical_formula_structural   H28C41(NO)8
_chemical_formula_sum   'H224 C328 N64 O64'
_cell_volume   58728.46218660
_cell_formula_units_Z   8
loop_
 _symmetry_equiv_pos_site_id
 _symmetry_equiv_pos_as_xyz
  1  'x, y, z'
loop_
 _atom_site_type_symbol
 _atom_site_label
 _atom_site_symmetry_multiplicity
 _atom_site_fract_x
 _atom_site_fract_y
 _atom_site_fract_z
 _atom_site_occupancy
  H  25  1  0.99165900  0.08046700  0.06933300  1
  H  26  1  0.98155700  0.12223200  0.11107800  1
  H  27  1  0.98472800  0.16868400  0.15517400  1
  H  28  1  0.00034700  0.21379000  0.19303400  1
  H  29  1  0.11179700  0.20529800  0.16868700  1
  H  30  1  0.10547700  0.09879400  0.07533400  1
  H  31  1  0.09498900  0.09850400  0.17317500  1
  H  32  1  0.20900000  0.08204100  0.18017300  1
  H  33  1  0.21894300  0.12387600  0.13846700  1
  H  34  1  0.08822600  0.20517500  0.07987900  1
  H  35  1  0.21564600  0.17042600  0.09456900  1
  H  36  1  0.19992500  0.21563000  0.05683000  1
  H  39  1  0.05663400  0.23249100  0.22912900  1
  H  40  1  0.09555500  0.24707700  0.20908200  1
  H  42  1  0.08204600  0.06525300  0.03172000  1
  H  43  1  0.03533800  0.07082500  0.02396600  1
  H  45  1  0.11854300  0.06555700  0.21711100  1
  H  46  1  0.16518800  0.07123400  0.22497200  1
  H  48  1  0.10452200  0.24748500  0.03968600  1
  H  49  1  0.14409700  0.23355700  0.02012400  1
  H  74  1  0.70868500  0.21492700  0.56262200  1
  H  75  1  0.71957900  0.17234400  0.60363500  1
  H  76  1  0.71727900  0.12624800  0.64793500  1
  H  77  1  0.70219600  0.08247400  0.68701200  1
  H  78  1  0.58991200  0.09452400  0.66684500  1
  H  79  1  0.59468800  0.20055500  0.57289300  1
  H  80  1  0.61053400  0.20361600  0.66683300  1
  H  81  1  0.49756900  0.21625000  0.68391200  1
  H  82  1  0.48384300  0.17201400  0.64483500  1
  H  83  1  0.60907000  0.09694100  0.57346100  1
  H  84  1  0.48310800  0.12501600  0.60105300  1
  H  85  1  0.49552900  0.08206000  0.56059000  1
  H  88  1  0.64713800  0.06773400  0.72579200  1
  H  89  1  0.60680300  0.05342700  0.70758600  1
  H  91  1  0.61738300  0.23346200  0.52828900  1
  H  92  1  0.66399400  0.22901500  0.51977600  1
  H  94  1  0.59225200  0.24493600  0.70704700  1
  H  95  1  0.55118800  0.23067600  0.72417600  1
  H  97  1  0.58864700  0.06247300  0.52947400  1
  H  98  1  0.54340200  0.07036900  0.51813200  1
  H  123  1  0.20435200  0.58009100  0.68218400  1
  H  124  1  0.21555000  0.62308800  0.64155200  1
  H  125  1  0.21355300  0.67013100  0.59799400  1
  H  126  1  0.19893600  0.71564300  0.56022700  1
  H  127  1  0.08674500  0.70593500  0.58166100  1
  H  128  1  0.09056300  0.59663300  0.67298100  1
  H  129  1  0.10450000  0.59889700  0.57650000  1
  H  130  1  0.99082600  0.58368700  0.56500300  1
  H  131  1  0.97901500  0.62546400  0.60644700  1
  H  132  1  0.10753500  0.70043400  0.67378700  1
  H  133  1  0.98039900  0.67178000  0.65077000  1
  H  134  1  0.99474300  0.71381400  0.69146800  1
  H  137  1  0.14328000  0.73287900  0.52254500  1
  H  138  1  0.10405200  0.74815700  0.54183600  1
  H  140  1  0.11241000  0.56136400  0.71601700  1
  H  141  1  0.15801400  0.56953500  0.72620100  1
  H  143  1  0.08286400  0.56684500  0.53122900  1
  H  144  1  0.03640900  0.57132900  0.52218200  1
  H  146  1  0.08920600  0.73344700  0.71926500  1
  H  147  1  0.04434900  0.72625900  0.73184400  1
  H  172  1  0.49044700  0.71368000  0.18400300  1
  H  173  1  0.47879900  0.67207500  0.14241000  1
  H  174  1  0.48035800  0.62551100  0.09824000  1
  H  175  1  0.49486600  0.58326100  0.05772500  1
  H  176  1  0.60762800  0.59773900  0.07496900  1
  H  177  1  0.60417600  0.69907100  0.17237800  1
  H  178  1  0.59051800  0.70128900  0.07556000  1
  H  179  1  0.70425000  0.71899700  0.06733600  1
  H  180  1  0.71538100  0.67596100  0.10797200  1
  H  181  1  0.58662900  0.59198200  0.16683400  1
  H  182  1  0.71330600  0.62883700  0.15150700  1
  H  183  1  0.69863400  0.58320700  0.18916200  1
  H  186  1  0.54439900  0.57080800  0.01720700  1
  H  187  1  0.58938200  0.56417100  0.02972200  1
  H  189  1  0.58241800  0.73042400  0.21792800  1
  H  190  1  0.53597600  0.72567500  0.22690300  1
  H  192  1  0.61256600  0.73667800  0.03260700  1
  H  193  1  0.65844200  0.72913200  0.02287400  1
  H  195  1  0.60380700  0.54977900  0.20662300  1
  H  196  1  0.64260400  0.56531800  0.22632700  1
  H  221  1  0.77290300  0.30265700  0.43816100  1
  H  222  1  0.81261700  0.28615400  0.39642900  1
  H  223  1  0.85736800  0.28228900  0.35113600  1
  H  224  1  0.90271200  0.29128800  0.31188100  1
  H  225  1  0.90536700  0.40433100  0.33171200  1
  H  226  1  0.80038800  0.41399100  0.42603900  1
  H  227  1  0.79418600  0.39632100  0.33193400  1
  H  228  1  0.79675800  0.50898000  0.31062700  1
  H  229  1  0.84227900  0.51869900  0.34961500  1
  H  230  1  0.89947000  0.38844800  0.42615700  1
  H  231  1  0.88720200  0.51568200  0.39481900  1
  H  232  1  0.92699400  0.49998900  0.43670900  1
  H  235  1  0.92265900  0.34826900  0.27255200  1
  H  236  1  0.94702900  0.38150800  0.29342500  1
  H  238  1  0.76221100  0.39779100  0.46900100  1
  H  239  1  0.77300600  0.35378200  0.48216200  1
  H  241  1  0.75244700  0.41841000  0.29340500  1
  H  242  1  0.77691400  0.45113300  0.27205000  1
  H  244  1  0.93754100  0.40554700  0.46899000  1
  H  245  1  0.92664400  0.44987400  0.48137900  1
  H  270  1  0.92474900  0.00042700  0.93471900  1
  H  271  1  0.88344700  0.01483500  0.89354200  1
  H  272  1  0.83743400  0.01634200  0.84916900  1
  H  273  1  0.79102000  0.00528800  0.81124200  1
  H  274  1  0.79252200  0.89255000  0.83243000  1
  H  275  1  0.90130800  0.88800300  0.92403300  1
  H  276  1  0.89989100  0.90548700  0.82640800  1
  H  277  1  0.91044900  0.79170000  0.81222600  1
  H  278  1  0.86868300  0.78023000  0.85378000  1
  H  279  1  0.80047200  0.90922800  0.92536100  1
  H  280  1  0.82282900  0.78198300  0.89819900  1
  H  281  1  0.78212500  0.79641700  0.93980300  1
  H  284  1  0.77227700  0.94569600  0.77311700  1
  H  285  1  0.74800900  0.91381100  0.79545300  1
  H  287  1  0.93864200  0.90636600  0.96689500  1
  H  288  1  0.92637100  0.95036600  0.97920700  1
  H  290  1  0.93228100  0.88463000  0.78129700  1
  H  291  1  0.92064400  0.84022300  0.76955100  1
  H  293  1  0.76517600  0.89089500  0.96970100  1
  H  294  1  0.77676200  0.84693300  0.98257400  1
  H  319  1  0.28751600  0.50509100  0.80916500  1
  H  320  1  0.32796300  0.51797000  0.85133100  1
  H  321  1  0.37318400  0.51786100  0.89629300  1
  H  322  1  0.41347500  0.50476300  0.93852000  1
  H  323  1  0.39864300  0.39143800  0.92419700  1
  H  324  1  0.30204800  0.39168700  0.82328000  1
  H  325  1  0.29296200  0.40932400  0.91700100  1
  H  326  1  0.28142600  0.29620900  0.93427400  1
  H  327  1  0.32710600  0.28299400  0.89625400  1
  H  328  1  0.40794700  0.40866800  0.83043000  1
  H  329  1  0.37300900  0.28270400  0.85177800  1
  H  330  1  0.41882500  0.29535700  0.81375300  1
  H  333  1  0.42118700  0.45556600  0.98132100  1
  H  334  1  0.43189900  0.41102300  0.96931900  1
  H  336  1  0.26863100  0.41145400  0.77830200  1
  H  337  1  0.27988000  0.45586100  0.76625300  1
  H  339  1  0.24572700  0.39010500  0.95254700  1
  H  340  1  0.26845500  0.35667700  0.97438700  1
  H  342  1  0.45556300  0.38880000  0.79540100  1
  H  343  1  0.43197500  0.35614500  0.77338400  1
  H  368  1  0.42488000  0.79696600  0.31427500  1
  H  369  1  0.38344400  0.78257900  0.35536100  1
  H  370  1  0.33743200  0.78112800  0.39977300  1
  H  371  1  0.29116200  0.79227400  0.43782300  1
  H  372  1  0.29273800  0.90499200  0.41656400  1
  H  373  1  0.40145000  0.90939500  0.32490000  1
  H  374  1  0.39963400  0.89222200  0.42258900  1
  H  375  1  0.41013200  0.00608300  0.43636200  1
  H  376  1  0.36860100  0.01732500  0.39460300  1
  H  377  1  0.30014700  0.88783900  0.32378100  1
  H  378  1  0.32275200  0.01529400  0.35012000  1
  H  379  1  0.28185200  0.00054000  0.30871900  1
  H  382  1  0.27265800  0.85162000  0.47600300  1
  H  383  1  0.24863300  0.88391700  0.45389500  1
  H  385  1  0.43897500  0.89103100  0.28215400  1
  H  386  1  0.42680800  0.84702600  0.26979000  1
  H  388  1  0.43134100  0.91334700  0.46794200  1
  H  389  1  0.41994500  0.95797200  0.47925100  1
  H  391  1  0.26417200  0.90569400  0.27978500  1
  H  392  1  0.27652100  0.94915100  0.26623100  1
  H  403  1  0.94858000  0.01305800  0.08130900  1
  H  406  1  0.01194800  0.00774400  0.92418800  1
  H  408  1  0.07353100  0.01126100  0.05613000  1
  H  410  1  0.99267500  0.92549200  0.94707200  1
  H  421  1  0.74149300  0.28357000  0.58657900  1
  H  424  1  0.69075800  0.29756100  0.42366700  1
  H  426  1  0.62542900  0.28647600  0.55402000  1
  H  428  1  0.70706500  0.38039400  0.45080400  1
  H  439  1  0.24763400  0.51465200  0.66282200  1
  H  442  1  0.19413700  0.51146800  0.82336500  1
  H  444  1  0.12532100  0.50741200  0.69389700  1
  H  446  1  0.21613900  0.42992700  0.80149600  1
  H  457  1  0.45210600  0.78312500  0.16598300  1
  H  460  1  0.51149800  0.78969600  0.32563500  1
  H  462  1  0.57404700  0.78457800  0.19401900  1
  H  464  1  0.49298900  0.87199300  0.30203400  1
  H  475  1  0.15419100  0.88535900  0.45613400  1
  H  478  1  0.21117800  0.81200000  0.58408800  1
  H  480  1  0.21238000  0.83775900  0.43194000  1
  H  482  1  0.13338500  0.79679900  0.56224100  1
  H  493  1  0.65906200  0.41568700  0.29492500  1
  H  496  1  0.71041100  0.48597100  0.16394400  1
  H  498  1  0.71710700  0.46500200  0.31654000  1
  H  500  1  0.63350200  0.50094800  0.18735300  1
  H  511  1  0.55339700  0.38766900  0.78861400  1
  H  514  1  0.48636700  0.31137200  0.66471000  1
  H  516  1  0.49447500  0.34428400  0.81564400  1
  H  518  1  0.56543600  0.29412000  0.68419700  1
  H  529  1  0.95189500  0.51481000  0.58381900  1
  H  532  1  0.01091100  0.50523000  0.42450900  1
  H  534  1  0.07464700  0.51297800  0.55557400  1
  H  536  1  0.99249200  0.42282100  0.44991300  1
  H  547  1  0.75163000  0.78427700  0.08214500  1
  H  550  1  0.69083500  0.79095200  0.92500300  1
  H  552  1  0.62459900  0.79046300  0.05561900  1
  H  554  1  0.71203800  0.87195200  0.94836400  1
  H  565  1  0.24615300  0.01361700  0.16163300  1
  H  568  1  0.19378100  0.00868200  0.32347800  1
  H  570  1  0.12713500  0.01149100  0.19312700  1
  H  572  1  0.21107100  0.92593900  0.30037200  1
  H  583  1  0.14809200  0.39106900  0.95915800  1
  H  586  1  0.21204200  0.31049800  0.08224600  1
  H  588  1  0.20608400  0.34669500  0.93165300  1
  H  590  1  0.13321700  0.29555100  0.06205100  1
  H  601  1  0.65222600  0.91487100  0.79369300  1
  H  604  1  0.71121100  0.98570800  0.66494300  1
  H  606  1  0.71214000  0.96039700  0.81713700  1
  H  608  1  0.63389000  0.00348100  0.68697800  1
  H  619  1  0.44951700  0.01677600  0.58012700  1
  H  622  1  0.50681100  0.01169900  0.42158500  1
  H  624  1  0.57526500  0.00853900  0.55122300  1
  H  626  1  0.48343900  0.93152400  0.44395500  1
  H  637  1  0.95540200  0.78039700  0.66579700  1
  H  640  1  0.00556700  0.78501700  0.82788300  1
  H  642  1  0.07601400  0.78796200  0.69883500  1
  H  644  1  0.98408300  0.86579400  0.80536400  1
  H  655  1  0.04096300  0.38384300  0.29513300  1
  H  658  1  0.98985700  0.31090500  0.16521700  1
  H  660  1  0.98235200  0.33552000  0.31739400  1
  H  662  1  0.06649300  0.29595000  0.18926600  1
  H  673  1  0.45151000  0.51694100  0.08176800  1
  H  676  1  0.50619400  0.50896100  0.92185900  1
  H  678  1  0.57668000  0.50986200  0.05080300  1
  H  680  1  0.48465700  0.42860800  0.94636900  1
  C  1  1  0.12448100  0.17144700  0.10448700  1
  C  2  1  0.16104900  0.16158900  0.10888900  1
  C  3  1  0.16272800  0.13507600  0.13159400  1
  C  4  1  0.12716600  0.12757700  0.14145600  1
  C  5  1  0.12107200  0.10304500  0.16574000  1
  C  6  1  0.15110000  0.08599100  0.18028100  1
  C  7  1  0.18689000  0.09342500  0.16956100  1
  C  8  1  0.19292400  0.11792100  0.14529100  1
  C  9  1  0.18898200  0.17789100  0.09162500  1
  C  10  1  0.17958500  0.20442400  0.06974200  1
  C  11  1  0.14277900  0.21535100  0.06534100  1
  C  12  1  0.11507100  0.19834000  0.08284600  1
  C  13  1  0.07322600  0.12735700  0.10731600  1
  C  14  1  0.03766200  0.13437500  0.11743000  1
  C  15  1  0.03921500  0.16086000  0.14017200  1
  C  16  1  0.07568700  0.17123900  0.14426600  1
  C  17  1  0.01130300  0.17660700  0.15782100  1
  C  18  1  0.02063000  0.20310900  0.17975900  1
  C  19  1  0.05731100  0.21463700  0.18378200  1
  C  20  1  0.08500400  0.19813900  0.16592400  1
  C  21  1  0.07941300  0.10292900  0.08298000  1
  C  22  1  0.04947600  0.08545500  0.06865900  1
  C  23  1  0.01370600  0.09228100  0.07970800  1
  C  24  1  0.00757800  0.11671400  0.10401100  1
  C  37  1  0.10013600  0.14962000  0.12434500  1
  C  38  1  0.06604600  0.24284200  0.20700800  1
  C  41  1  0.05471800  0.06181600  0.04149300  1
  C  44  1  0.14590100  0.06222300  0.20737300  1
  C  47  1  0.13403300  0.24358800  0.04214700  1
  C  50  1  0.57499700  0.12733100  0.60280600  1
  C  51  1  0.53886800  0.13569000  0.61058200  1
  C  52  1  0.53921500  0.16230300  0.63325300  1
  C  53  1  0.57554100  0.17136200  0.63967800  1
  C  54  1  0.58382700  0.19767300  0.66214200  1
  C  55  1  0.55523500  0.21484100  0.67849200  1
  C  56  1  0.51861500  0.20492700  0.67188300  1
  C  57  1  0.51036700  0.17898800  0.64917700  1
  C  58  1  0.50949000  0.11866200  0.59559600  1
  C  59  1  0.51696300  0.09348400  0.57210700  1
  C  60  1  0.55337800  0.08522600  0.56348500  1
  C  61  1  0.58253800  0.10214100  0.57932100  1
  C  62  1  0.62764900  0.17031000  0.60324400  1
  C  63  1  0.66348300  0.16199600  0.61195800  1
  C  64  1  0.66233900  0.13568800  0.63485100  1
  C  65  1  0.62581100  0.12666900  0.64044000  1
  C  66  1  0.69061900  0.11926000  0.65164200  1
  C  67  1  0.68159000  0.09355700  0.67432600  1
  C  68  1  0.64477800  0.08352900  0.67999200  1
  C  69  1  0.61676000  0.10053700  0.66284500  1
  C  70  1  0.62099400  0.19524600  0.57937200  1
  C  71  1  0.65073700  0.21192000  0.56412200  1
  C  72  1  0.68682000  0.20364000  0.57366200  1
  C  73  1  0.69341000  0.17870300  0.59750300  1
  C  86  1  0.60100500  0.14893000  0.62131800  1
  C  87  1  0.63629000  0.05666900  0.70438000  1
  C  90  1  0.64482500  0.23680800  0.53786300  1
  C  93  1  0.56290100  0.24169900  0.70307000  1
  C  96  1  0.56023100  0.06067400  0.53717600  1
  C  99  1  0.07209300  0.67048000  0.64527100  1
  C  100  1  0.03563500  0.66192100  0.63881000  1
  C  101  1  0.03489500  0.63618900  0.61542800  1
  C  102  1  0.07088900  0.62817900  0.60702500  1
  C  103  1  0.07806900  0.60384500  0.58281400  1
  C  104  1  0.04870900  0.58724100  0.56702300  1
  C  105  1  0.01243800  0.59500800  0.57636300  1
  C  106  1  0.00531900  0.61948300  0.60045000  1
  C  107  1  0.00701000  0.67820400  0.65531800  1
  C  108  1  0.01559500  0.70287900  0.67891400  1
  C  109  1  0.05238100  0.71138600  0.68616000  1
  C  110  1  0.08074500  0.69508400  0.66892700  1
  C  111  1  0.12368600  0.62666900  0.64262300  1
  C  112  1  0.15955400  0.63449300  0.63372800  1
  C  113  1  0.15862500  0.66170300  0.61158200  1
  C  114  1  0.12224000  0.67190000  0.60674900  1
  C  115  1  0.18703500  0.67799900  0.59486100  1
  C  116  1  0.17828200  0.70472700  0.57295700  1
  C  117  1  0.14166200  0.71596800  0.56807100  1
  C  118  1  0.11350000  0.69911500  0.58517700  1
  C  119  1  0.11686100  0.60130000  0.66615500  1
  C  120  1  0.14646200  0.58385700  0.68100100  1
  C  121  1  0.18256900  0.59169800  0.67128000  1
  C  122  1  0.18933400  0.61691300  0.64767500  1
  C  135  1  0.09723300  0.64942100  0.62551700  1
  C  136  1  0.13348700  0.74378100  0.54436500  1
  C  139  1  0.14055700  0.55956100  0.70765900  1
  C  142  1  0.05526400  0.56310600  0.54036800  1
  C  145  1  0.06053900  0.73574100  0.71234300  1
  C  148  1  0.62211900  0.62632200  0.14204300  1
  C  149  1  0.65847200  0.63679000  0.13746400  1
  C  150  1  0.65940600  0.66405100  0.11535500  1
  C  151  1  0.62356100  0.67162200  0.10623300  1
  C  152  1  0.61678000  0.69683500  0.08257700  1
  C  153  1  0.64639000  0.71451300  0.06794200  1
  C  154  1  0.68245600  0.70707900  0.07799800  1
  C  155  1  0.68918000  0.68190400  0.10164200  1
  C  156  1  0.68682800  0.62071200  0.15439700  1
  C  157  1  0.67804800  0.59391000  0.17623700  1
  C  158  1  0.64147600  0.58232200  0.18080100  1
  C  159  1  0.61336800  0.59898700  0.16350400  1
  C  160  1  0.57067900  0.66987700  0.14170300  1
  C  161  1  0.53471700  0.66167200  0.13333800  1
  C  162  1  0.53556600  0.63597300  0.10993200  1
  C  163  1  0.57206400  0.62762500  0.10342900  1
  C  164  1  0.50700500  0.61934900  0.09358400  1
  C  165  1  0.51568400  0.59457300  0.07008400  1
  C  166  1  0.55251300  0.58636900  0.06273900  1
  C  167  1  0.58081700  0.60298000  0.07983300  1
  C  168  1  0.57776700  0.69407400  0.16603200  1
  C  169  1  0.54834800  0.71043800  0.18192000  1
  C  170  1  0.51210400  0.70256700  0.17255900  1
  C  171  1  0.50508000  0.67817300  0.14839000  1
  C  184  1  0.59711600  0.64873600  0.12321700  1
  C  185  1  0.56076000  0.56175400  0.03674900  1
  C  188  1  0.55481800  0.73422300  0.20881100  1
  C  191  1  0.64056400  0.73878100  0.04125500  1
  C  194  1  0.63324200  0.55437500  0.20438900  1
  C  197  1  0.87442100  0.42461200  0.39508400  1
  C  198  1  0.87060600  0.46116700  0.38624200  1
  C  199  1  0.84441500  0.46319900  0.36329000  1
  C  200  1  0.83065300  0.42810000  0.35808900  1
  C  201  1  0.80353700  0.42223600  0.33576900  1
  C  202  1  0.79046600  0.45195000  0.31822200  1
  C  203  1  0.80534500  0.48720800  0.32339100  1
  C  204  1  0.83186900  0.49313400  0.34614500  1
  C  205  1  0.89043000  0.48894500  0.40094500  1
  C  206  1  0.91365300  0.47954700  0.42533100  1
  C  207  1  0.91740200  0.44274400  0.43499000  1
  C  208  1  0.89791300  0.41510000  0.41930400  1
  C  209  1  0.82545900  0.37720900  0.39548800  1
  C  210  1  0.82925800  0.34048800  0.38714200  1
  C  211  1  0.85528500  0.33803800  0.36408900  1
  C  212  1  0.86900800  0.37303900  0.35837700  1
  C  213  1  0.86773000  0.30779200  0.34727700  1
  C  214  1  0.89415600  0.31329700  0.32437000  1
  C  215  1  0.90901800  0.34845700  0.31871300  1
  C  216  1  0.89603500  0.37849300  0.33591500  1
  C  217  1  0.80201600  0.38718900  0.41960800  1
  C  218  1  0.78253800  0.35985900  0.43567900  1
  C  219  1  0.78630100  0.32286700  0.42654100  1
  C  220  1  0.80944700  0.31300300  0.40223200  1
  C  233  1  0.84988300  0.40074600  0.37708100  1
  C  234  1  0.93661500  0.35349300  0.29419500  1
  C  237  1  0.76063500  0.36874000  0.46319100  1
  C  240  1  0.76289600  0.44642800  0.29374900  1
  C  243  1  0.93914700  0.43446000  0.46272100  1
  C  246  1  0.82796900  0.87374400  0.89518100  1
  C  247  1  0.83489700  0.83720500  0.88770000  1
  C  248  1  0.86033200  0.83618900  0.86411500  1
  C  249  1  0.86985200  0.87208300  0.85659000  1
  C  250  1  0.89402400  0.87908000  0.83222200  1
  C  251  1  0.90903200  0.84961500  0.81549100  1
  C  252  1  0.90004400  0.81337400  0.82414100  1
  C  253  1  0.87563600  0.80646200  0.84831500  1
  C  254  1  0.81762600  0.80864600  0.90355700  1
  C  255  1  0.79386600  0.81730400  0.92776800  1
  C  256  1  0.78729200  0.85411000  0.93627400  1
  C  257  1  0.80433100  0.88246700  0.91951700  1
  C  258  1  0.87429300  0.92334000  0.89343900  1
  C  259  1  0.86875400  0.95977400  0.88495600  1
  C  260  1  0.84163800  0.96092400  0.86273800  1
  C  261  1  0.82880400  0.92539600  0.85782100  1
  C  262  1  0.82759200  0.99050100  0.84599500  1
  C  263  1  0.80055400  0.98377800  0.82384400  1
  C  264  1  0.78647300  0.94811000  0.81905400  1
  C  265  1  0.80105100  0.91875700  0.83621100  1
  C  266  1  0.89872700  0.91458900  0.91721600  1
  C  267  1  0.91732800  0.94286900  0.93285600  1
  C  268  1  0.91204700  0.97955000  0.92338200  1
  C  269  1  0.88795300  0.98819100  0.89938900  1
  C  282  1  0.85001400  0.89865400  0.87594300  1
  C  283  1  0.75851000  0.94180400  0.79503300  1
  C  286  1  0.93935700  0.93530200  0.96057800  1
  C  289  1  0.93245800  0.85593700  0.78836000  1
  C  292  1  0.76454600  0.86190700  0.96353700  1
  C  295  1  0.37388300  0.37444600  0.85668200  1
  C  296  1  0.36417700  0.33828900  0.86312000  1
  C  297  1  0.33627900  0.33844500  0.88464100  1
  C  298  1  0.32678100  0.37470000  0.89088900  1
  C  299  1  0.29919400  0.38267700  0.91233500  1
  C  300  1  0.28181700  0.35390300  0.92832900  1
  C  301  1  0.29283600  0.31739900  0.92241400  1
  C  302  1  0.31944000  0.30941400  0.90020100  1
  C  303  1  0.38085000  0.30904500  0.84771400  1
  C  304  1  0.40755700  0.31670600  0.82550600  1
  C  305  1  0.41886100  0.35308900  0.81946100  1
  C  306  1  0.40160300  0.38209300  0.83526800  1
  C  307  1  0.33029000  0.42610600  0.85385800  1
  C  308  1  0.33821300  0.46232800  0.86164500  1
  C  309  1  0.36284100  0.46227100  0.88583900  1
  C  310  1  0.37065800  0.42601300  0.89357800  1
  C  311  1  0.37887000  0.49137800  0.90192700  1
  C  312  1  0.40240600  0.48350400  0.92648900  1
  C  313  1  0.40979600  0.44693800  0.93524200  1
  C  314  1  0.39391500  0.41806000  0.91834800  1
  C  315  1  0.30687400  0.41828200  0.82916100  1
  C  316  1  0.29100700  0.44724700  0.81235400  1
  C  317  1  0.29856100  0.48376900  0.82113200  1
  C  318  1  0.32218700  0.49151700  0.84566200  1
  C  331  1  0.35040700  0.40031400  0.87372800  1
  C  332  1  0.43280000  0.43977800  0.96247100  1
  C  335  1  0.26800300  0.44023900  0.78508700  1
  C  338  1  0.25457800  0.36154100  0.95266100  1
  C  341  1  0.44612200  0.36043000  0.79507200  1
  C  344  1  0.32792500  0.92356300  0.35357600  1
  C  345  1  0.33488600  0.96015100  0.36085900  1
  C  346  1  0.36033700  0.96131500  0.38443000  1
  C  347  1  0.36981900  0.92546200  0.39213000  1
  C  348  1  0.39385800  0.91859600  0.41661500  1
  C  349  1  0.40873900  0.94815100  0.43330500  1
  C  350  1  0.39987200  0.98434800  0.42443800  1
  C  351  1  0.37560100  0.99113000  0.40013900  1
  C  352  1  0.31754400  0.98859200  0.34490300  1
  C  353  1  0.29366400  0.97974900  0.32081800  1
  C  354  1  0.28694000  0.94287200  0.31260400  1
  C  355  1  0.30405800  0.91464700  0.32945200  1
  C  356  1  0.37429800  0.87407100  0.35542100  1
  C  357  1  0.36875100  0.83764200  0.36392200  1
  C  358  1  0.34162700  0.83652200  0.38614000  1
  C  359  1  0.32884800  0.87206700  0.39107300  1
  C  360  1  0.32763500  0.80698300  0.40296500  1
  C  361  1  0.30067500  0.81375400  0.42517300  1
  C  362  1  0.28669700  0.84945100  0.43001100  1
  C  363  1  0.30121000  0.87876900  0.41277000  1
  C  364  1  0.39877100  0.88280000  0.33166200  1
  C  365  1  0.41747900  0.85452500  0.31610800  1
  C  366  1  0.41217500  0.81785300  0.32559900  1
  C  367  1  0.38801900  0.80922300  0.34955300  1
  C  380  1  0.35000800  0.89877400  0.37288000  1
  C  381  1  0.25887400  0.85582300  0.45413200  1
  C  384  1  0.43967100  0.86209900  0.28847600  1
  C  387  1  0.43183000  0.94195700  0.46065200  1
  C  390  1  0.26403300  0.93482100  0.28549200  1
  C  393  1  0.03263900  0.00109900  0.02716700  1
  C  395  1  0.03158100  0.98108200  0.97491300  1
  C  396  1  0.99774700  0.96330000  0.98006100  1
  C  398  1  0.99948900  0.98251900  0.03266400  1
  C  399  1  0.98207600  0.98311900  0.06053800  1
  C  400  1  0.04817900  0.98235500  0.94648300  1
  C  411  1  0.66694600  0.29842700  0.52620400  1
  C  413  1  0.66892300  0.32122000  0.47477700  1
  C  414  1  0.70202100  0.33967400  0.48131700  1
  C  416  1  0.69943500  0.31756600  0.53312900  1
  C  417  1  0.71590300  0.31655300  0.56144400  1
  C  418  1  0.65323600  0.32099100  0.44597100  1
  C  429  1  0.16805900  0.50079500  0.72165100  1
  C  431  1  0.17325800  0.48218800  0.77409700  1
  C  432  1  0.20768200  0.46612700  0.76783000  1
  C  434  1  0.20181800  0.48386800  0.71509000  1
  C  435  1  0.21736300  0.48425600  0.68650500  1
  C  436  1  0.15821300  0.48328300  0.80315400  1
  C  447  1  0.53302100  0.79525100  0.22271100  1
  C  449  1  0.53171800  0.81571700  0.27483800  1
  C  450  1  0.49809400  0.83375600  0.26938600  1
  C  452  1  0.50013100  0.81416300  0.21687900  1
  C  453  1  0.48301600  0.81366600  0.18887600  1
  C  454  1  0.54809400  0.81458700  0.30336300  1
  C  465  1  0.20653100  0.82235100  0.47670100  1
  C  467  1  0.20892000  0.79705300  0.52751500  1
  C  468  1  0.17033800  0.79626400  0.52838200  1
  C  470  1  0.16782300  0.82312700  0.47844300  1
  C  471  1  0.14494000  0.83470900  0.45530300  1
  C  472  1  0.23082700  0.78475800  0.55126400  1
  C  483  1  0.70973900  0.47874400  0.27163700  1
  C  485  1  0.71012900  0.50247700  0.22025200  1
  C  486  1  0.67152600  0.50286500  0.22029700  1
  C  488  1  0.67100200  0.47741200  0.27079200  1
  C  489  1  0.64903600  0.46617900  0.29462400  1
  C  490  1  0.73108800  0.51421500  0.19571800  1
  C  501  1  0.49755600  0.32620200  0.77129100  1
  C  503  1  0.49158000  0.29868600  0.72148000  1
  C  504  1  0.53001700  0.29657300  0.71918800  1
  C  506  1  0.53614000  0.32528700  0.76817900  1
  C  507  1  0.56058000  0.33673000  0.79018700  1
  C  508  1  0.46799800  0.28594300  0.69903800  1
  C  519  1  0.03331000  0.50184100  0.52732100  1
  C  521  1  0.03157700  0.48023300  0.47553300  1
  C  522  1  0.99800900  0.46231400  0.48147000  1
  C  524  1  0.00045600  0.48309200  0.53362200  1
  C  525  1  0.98356700  0.48424700  0.56169500  1
  C  526  1  0.04768300  0.48074100  0.44688900  1
  C  537  1  0.66681000  0.79815100  0.02747400  1
  C  539  1  0.67061400  0.81822200  0.97533000  1
  C  540  1  0.70499500  0.83452300  0.98135700  1
  C  542  1  0.70063900  0.81504500  0.03376600  1
  C  543  1  0.71700600  0.81353500  0.06202600  1
  C  544  1  0.65494300  0.81775700  0.94651300  1
  C  555  1  0.16897100  0.00162000  0.22118100  1
  C  557  1  0.17191800  0.98187100  0.27345600  1
  C  558  1  0.20531500  0.96367400  0.26742300  1
  C  560  1  0.20169800  0.98265000  0.21481400  1
  C  561  1  0.21789500  0.98252400  0.18642800  1
  C  562  1  0.15647000  0.98346100  0.30232600  1
  C  573  1  0.20232200  0.32795200  0.97577800  1
  C  575  1  0.20731200  0.29928200  0.02520900  1
  C  576  1  0.16881300  0.29787000  0.02721600  1
  C  578  1  0.16370800  0.32785100  0.97868400  1
  C  579  1  0.13969000  0.34036500  0.95676100  1
  C  580  1  0.23046300  0.28569200  0.04762100  1
  C  591  1  0.70659500  0.97603200  0.77238200  1
  C  593  1  0.70961100  0.00099400  0.72147100  1
  C  594  1  0.67107300  0.00296400  0.72068100  1
  C  596  1  0.66786900  0.97649900  0.77073800  1
  C  597  1  0.64469900  0.96573600  0.79393100  1
  C  598  1  0.73180800  0.01248300  0.69763000  1
  C  609  1  0.53239300  0.00198000  0.52362500  1
  C  611  1  0.52704000  0.98291700  0.47132300  1
  C  612  1  0.49229000  0.96758500  0.47762100  1
  C  614  1  0.49830100  0.98580100  0.53023800  1
  C  615  1  0.48266600  0.98704100  0.55880000  1
  C  616  1  0.54221100  0.98342000  0.44232300  1
  C  627  1  0.03284700  0.79459000  0.72605700  1
  C  629  1  0.02709500  0.81346400  0.77838400  1
  C  630  1  0.99278500  0.82956900  0.77177900  1
  C  632  1  0.99924100  0.81161500  0.71912400  1
  C  633  1  0.98413000  0.81129800  0.69036100  1
  C  634  1  0.04184900  0.81256600  0.80753000  1
  C  645  1  0.98986000  0.32061700  0.27276700  1
  C  647  1  0.98959500  0.29572600  0.22176700  1
  C  648  1  0.02819200  0.29505100  0.22200600  1
  C  650  1  0.02861100  0.32161400  0.27208200  1
  C  651  1  0.05051700  0.33326700  0.29580900  1
  C  652  1  0.96866900  0.28359200  0.19732800  1
  C  663  1  0.53336000  0.50252100  0.02386500  1
  C  665  1  0.52763800  0.48204600  0.97197200  1
  C  666  1  0.49326800  0.46625000  0.97889200  1
  C  668  1  0.49963100  0.48594900  0.03108000  1
  C  669  1  0.48438400  0.48760700  0.05974400  1
  C  670  1  0.54242100  0.48199700  0.94282600  1
  N  394  1  0.04724100  0.99923500  0.99865300  1
  N  397  1  0.98369600  0.96489500  0.00879600  1
  N  407  1  0.04909400  0.02287400  0.04994700  1
  N  409  1  0.97788400  0.94695200  0.95577200  1
  N  412  1  0.65311600  0.30142000  0.49749200  1
  N  415  1  0.71525800  0.33699200  0.51025600  1
  N  425  1  0.65006600  0.27530900  0.54780800  1
  N  427  1  0.72182100  0.35820400  0.45815900  1
  N  430  1  0.15525800  0.49882600  0.75075600  1
  N  433  1  0.21993200  0.46768900  0.73852200  1
  N  443  1  0.14896500  0.52104000  0.69931000  1
  N  445  1  0.22970200  0.45141700  0.79152700  1
  N  448  1  0.54740600  0.79722300  0.25129600  1
  N  451  1  0.48431300  0.83212000  0.24056200  1
  N  461  1  0.54951100  0.77315700  0.20016300  1
  N  463  1  0.47817600  0.85047500  0.29346000  1
  N  466  1  0.22473800  0.80909400  0.50135900  1
  N  469  1  0.15164200  0.80934800  0.50387700  1
  N  479  1  0.22781600  0.83005000  0.45038400  1
  N  481  1  0.15155900  0.77891100  0.55249200  1
  N  484  1  0.72695800  0.49144400  0.24628300  1
  N  487  1  0.65382100  0.49025300  0.24547900  1
  N  497  1  0.73196100  0.47229100  0.29764900  1
  N  499  1  0.65167700  0.51937700  0.19636900  1
  N  502  1  0.47763000  0.31239600  0.74779000  1
  N  505  1  0.55046700  0.30987300  0.74261300  1
  N  515  1  0.47800400  0.33551200  0.79819100  1
  N  517  1  0.54667100  0.27762700  0.69484200  1
  N  520  1  0.04746200  0.49924600  0.49868800  1
  N  523  1  0.98443300  0.46459500  0.51032900  1
  N  533  1  0.05005300  0.52431200  0.54946800  1
  N  535  1  0.97800100  0.44491800  0.45780800  1
  N  538  1  0.65330200  0.80078400  0.99863400  1
  N  541  1  0.71802800  0.83210600  0.01038800  1
  N  551  1  0.64839100  0.77732700  0.04982500  1
  N  553  1  0.72619100  0.85040400  0.95765100  1
  N  556  1  0.15550100  0.00003900  0.25009300  1
  N  559  1  0.21819400  0.96493100  0.23829900  1
  N  569  1  0.15164300  0.02332100  0.19880000  1
  N  571  1  0.22587100  0.94709700  0.29117200  1
  N  574  1  0.22176500  0.31325100  0.99918200  1
  N  577  1  0.14885300  0.31217200  0.00391600  1
  N  587  1  0.22224800  0.33731700  0.94909300  1
  N  589  1  0.15144100  0.27873900  0.05109800  1
  N  592  1  0.72512000  0.98861400  0.74764000  1
  N  595  1  0.65204600  0.99062200  0.74527700  1
  N  605  1  0.72770400  0.96789900  0.79871100  1
  N  607  1  0.65282900  0.02073100  0.69650700  1
  N  610  1  0.54526400  0.99945900  0.49457900  1
  N  613  1  0.47994300  0.96973200  0.50688600  1
  N  623  1  0.55168800  0.02226900  0.54578700  1
  N  625  1  0.47005700  0.95310500  0.45396300  1
  N  628  1  0.04532500  0.79669300  0.75524900  1
  N  631  1  0.98089900  0.82793900  0.74236400  1
  N  641  1  0.05229800  0.77430600  0.70397600  1
  N  643  1  0.97051600  0.84439600  0.79526200  1
  N  646  1  0.97269500  0.30746900  0.24754500  1
  N  649  1  0.04584800  0.30809200  0.24705200  1
  N  659  1  0.96755800  0.32775800  0.29859800  1
  N  661  1  0.04806100  0.27788100  0.19843300  1
  N  664  1  0.54589800  0.49947300  0.99475600  1
  N  667  1  0.48124900  0.46894000  0.00821200  1
  N  677  1  0.55285400  0.52328800  0.04559000  1
  N  679  1  0.47114900  0.45051300  0.95574300  1
  O  401  1  0.97169800  0.95369500  0.07065300  1
  O  402  1  0.96336800  0.01054800  0.06542300  1
  O  404  1  0.08138400  0.97914800  0.94533000  1
  O  405  1  0.03492100  0.00020500  0.92522000  1
  O  419  1  0.73025200  0.34453000  0.57108200  1
  O  420  1  0.72832400  0.28681200  0.56981100  1
  O  422  1  0.61999900  0.32338300  0.44421500  1
  O  423  1  0.66756600  0.30444600  0.42445600  1
  O  437  1  0.22790300  0.45503900  0.67606300  1
  O  438  1  0.23437300  0.51220000  0.67963300  1
  O  440  1  0.12542000  0.47775600  0.80558100  1
  O  441  1  0.17162400  0.50255600  0.82344900  1
  O  455  1  0.47172800  0.84292700  0.17906400  1
  O  456  1  0.46627700  0.78550100  0.18227400  1
  O  458  1  0.58131100  0.81756300  0.30467100  1
  O  459  1  0.53453700  0.79704800  0.32467400  1
  O  473  1  0.13602100  0.81152800  0.43669100  1
  O  474  1  0.14639000  0.86631000  0.44546900  1
  O  476  1  0.26016200  0.77055100  0.54518900  1
  O  477  1  0.22897000  0.79777700  0.57727800  1
  O  491  1  0.64013000  0.48960300  0.31304000  1
  O  492  1  0.65111400  0.43496000  0.30522100  1
  O  494  1  0.76054700  0.52873900  0.20075600  1
  O  495  1  0.72834300  0.50049200  0.17001500  1
  O  509  1  0.56959000  0.31404600  0.80920600  1
  O  510  1  0.56108500  0.36864500  0.79936400  1
  O  512  1  0.43897500  0.27232700  0.70683500  1
  O  513  1  0.46872100  0.29778000  0.67259700  1
  O  527  1  0.97309100  0.45507700  0.57229500  1
  O  528  1  0.96602600  0.51216100  0.56753500  1
  O  530  1  0.08088800  0.47773100  0.44541600  1
  O  531  1  0.03395300  0.49788300  0.42542900  1
  O  545  1  0.72544000  0.84286700  0.07349100  1
  O  546  1  0.73726500  0.78702200  0.06601700  1
  O  548  1  0.62195200  0.82234300  0.94457900  1
  O  549  1  0.66816400  0.79942900  0.92551900  1
  O  563  1  0.23030500  0.95357800  0.17692700  1
  O  564  1  0.23276900  0.01124000  0.17838600  1
  O  566  1  0.12330300  0.98054700  0.30441300  1
  O  567  1  0.17070900  0.00135500  0.32311300  1
  O  581  1  0.13023600  0.31832300  0.93737000  1
  O  582  1  0.14001200  0.37248200  0.94808100  1
  O  584  1  0.25939100  0.27185800  0.03983800  1
  O  585  1  0.22957300  0.29683200  0.07426800  1
  O  599  1  0.63719400  0.98936000  0.81261900  1
  O  600  1  0.64521500  0.93434000  0.80420600  1
  O  602  1  0.76158200  0.02581900  0.70358600  1
  O  603  1  0.72944900  0.99941800  0.67165900  1
  O  617  1  0.47364000  0.95767400  0.56988200  1
  O  618  1  0.46335200  0.01403800  0.56367700  1
  O  620  1  0.57500000  0.97781600  0.43992100  1
  O  621  1  0.52920900  0.00250600  0.42171500  1
  O  635  1  0.97289200  0.84034800  0.68010100  1
  O  636  1  0.96830600  0.78291500  0.68279500  1
  O  638  1  0.07470700  0.81750900  0.81026700  1
  O  639  1  0.02814800  0.79374900  0.82799400  1
  O  653  1  0.05908600  0.31025000  0.31468900  1
  O  654  1  0.04866200  0.36477500  0.30581700  1
  O  656  1  0.93928600  0.26902500  0.20256600  1
  O  657  1  0.97184600  0.29653700  0.17138400  1
  O  671  1  0.47644500  0.45829100  0.07152700  1
  O  672  1  0.46486500  0.51432700  0.06502900  1
  O  674  1  0.57528100  0.47696600  0.94022100  1
  O  675  1  0.52876900  0.50020800  0.92195800  1
