# generated using pymatgen
data_H34C55(N3O2)2
_symmetry_space_group_name_H-M   'P 1'
_cell_length_a   42.97090000
_cell_length_b   42.97090000
_cell_length_c   42.97090000
_cell_angle_alpha   90.00000000
_cell_angle_beta   90.00000000
_cell_angle_gamma   90.00000000
_symmetry_Int_Tables_number   1
_chemical_formula_structural   H34C55(N3O2)2
_chemical_formula_sum   'H204 C330 N36 O24'
_cell_volume   79345.69151385
_cell_formula_units_Z   6
loop_
 _symmetry_equiv_pos_site_id
 _symmetry_equiv_pos_as_xyz
  1  'x, y, z'
loop_
 _atom_site_type_symbol
 _atom_site_label
 _atom_site_symmetry_multiplicity
 _atom_site_fract_x
 _atom_site_fract_y
 _atom_site_fract_z
 _atom_site_occupancy
  H  25  1  0.07102000  0.60747100  0.50125300  1
  H  26  1  0.09614500  0.55825200  0.49899600  1
  H  27  1  0.09578400  0.44503100  0.50005700  1
  H  28  1  0.07029700  0.39596300  0.50213500  1
  H  29  1  0.98322100  0.44067200  0.50646800  1
  H  30  1  0.98377500  0.56351800  0.50682600  1
  H  31  1  0.02294500  0.49958000  0.56552700  1
  H  32  1  0.93594900  0.50391500  0.61038700  1
  H  33  1  0.91038800  0.50621700  0.56136600  1
  H  34  1  0.02220600  0.49929800  0.44271300  1
  H  35  1  0.90985500  0.50738700  0.44813600  1
  H  36  1  0.93490700  0.50500400  0.39887700  1
  H  39  1  0.08605500  0.50157200  0.47908400  1
  H  40  1  0.08906200  0.50175800  0.52028200  1
  H  42  1  0.91696000  0.48612400  0.50460400  1
  H  43  1  0.92009400  0.52731000  0.50482300  1
  H  72  1  0.50761300  0.07146600  0.61003800  1
  H  73  1  0.50739000  0.09672500  0.56078900  1
  H  74  1  0.50908800  0.09624000  0.44758200  1
  H  75  1  0.50908400  0.07060400  0.39857700  1
  H  76  1  0.50331200  0.98362800  0.44319500  1
  H  77  1  0.50403200  0.98412800  0.56590600  1
  H  78  1  0.56574100  0.02225700  0.50175600  1
  H  79  1  0.60908200  0.93457900  0.50666400  1
  H  80  1  0.55961100  0.90988700  0.50935600  1
  H  81  1  0.44290400  0.02374000  0.50126700  1
  H  82  1  0.44641800  0.91137700  0.51062200  1
  H  83  1  0.39761300  0.93718500  0.50778300  1
  H  86  1  0.48626400  0.08885600  0.50399700  1
  H  87  1  0.52754500  0.08743300  0.50436400  1
  H  89  1  0.50293500  0.91722500  0.48940300  1
  H  90  1  0.50323600  0.92088800  0.53054500  1
  H  119  1  0.60999900  0.50757100  0.07150200  1
  H  120  1  0.56073000  0.50738300  0.09672800  1
  H  121  1  0.44752600  0.50908800  0.09618000  1
  H  122  1  0.39853200  0.50910000  0.07051700  1
  H  123  1  0.44320200  0.50346600  0.98355800  1
  H  124  1  0.56592200  0.50411800  0.98413300  1
  H  125  1  0.50165600  0.56581300  0.02233800  1
  H  126  1  0.50669600  0.60934700  0.93476500  1
  H  127  1  0.50952100  0.55993200  0.90997400  1
  H  128  1  0.50109900  0.44300900  0.02357500  1
  H  129  1  0.51081100  0.44672100  0.91124600  1
  H  130  1  0.50780600  0.39786900  0.93695500  1
  H  133  1  0.50394300  0.48629900  0.08880900  1
  H  134  1  0.50431500  0.52758200  0.08741400  1
  H  136  1  0.48961700  0.50323300  0.91713400  1
  H  137  1  0.53074700  0.50352900  0.92092700  1
  H  166  1  0.56867100  0.10828400  0.00131900  1
  H  167  1  0.59409000  0.05908100  0.00035800  1
  H  168  1  0.59361300  0.94539700  0.00265500  1
  H  169  1  0.56770900  0.89648100  0.00523500  1
  H  170  1  0.48091600  0.94166700  0.00525800  1
  H  171  1  0.48147400  0.06393700  0.00354800  1
  H  172  1  0.52132000  0.00223800  0.06394000  1
  H  173  1  0.43468700  0.00341200  0.10942700  1
  H  174  1  0.40857900  0.00439800  0.06055000  1
  H  175  1  0.52024000  0.00080900  0.94159300  1
  H  176  1  0.40760100  0.00234100  0.94696600  1
  H  177  1  0.43277200  0.00019500  0.89771200  1
  H  180  1  0.58486300  0.00204500  0.98021400  1
  H  181  1  0.58632200  0.00250600  0.02147800  1
  H  183  1  0.41582300  0.98349500  0.00387000  1
  H  184  1  0.41691200  0.02477500  0.00343700  1
  H  213  1  0.00130700  0.56868200  0.10851200  1
  H  214  1  0.00048400  0.59409200  0.05930200  1
  H  215  1  0.00275500  0.59358000  0.94560500  1
  H  216  1  0.00535100  0.56765800  0.89669900  1
  H  217  1  0.00533100  0.48088600  0.94191800  1
  H  218  1  0.00343900  0.48147400  0.06418000  1
  H  219  1  0.06397700  0.52129700  0.00248500  1
  H  220  1  0.10944200  0.43465000  0.00366400  1
  H  221  1  0.06055700  0.40855500  0.00467000  1
  H  222  1  0.94163200  0.52024900  0.00101200  1
  H  223  1  0.94697100  0.40760800  0.00257100  1
  H  224  1  0.89772300  0.43279500  0.00039000  1
  H  227  1  0.98033700  0.58488400  0.00226400  1
  H  228  1  0.02160300  0.58628300  0.00272500  1
  H  230  1  0.00388900  0.41580900  0.98375800  1
  H  231  1  0.00343200  0.41691200  0.02503800  1
  H  260  1  0.10821900  0.00260800  0.57073500  1
  H  261  1  0.05902200  0.00155400  0.59618000  1
  H  262  1  0.94524600  0.00265700  0.59565400  1
  H  263  1  0.89632900  0.00481200  0.56969700  1
  H  264  1  0.94160200  0.00509900  0.48295500  1
  H  265  1  0.06382800  0.00417800  0.48355500  1
  H  266  1  0.00078800  0.06427700  0.52326100  1
  H  267  1  0.00104900  0.10960700  0.43655100  1
  H  268  1  0.00318000  0.06070500  0.41056100  1
  H  269  1  0.00184700  0.94206700  0.52260500  1
  H  270  1  0.00423200  0.94691200  0.40998000  1
  H  271  1  0.00329500  0.89770700  0.43540800  1
  H  274  1  0.00217300  0.98084700  0.58703200  1
  H  275  1  0.00218900  0.02211700  0.58833500  1
  H  277  1  0.98367700  0.00375600  0.41787800  1
  H  278  1  0.02494700  0.00375900  0.41911600  1
  H  289  1  0.97048900  0.44090300  0.32192700  1
  H  296  1  0.05939800  0.49355000  0.23756300  1
  H  297  1  0.06598100  0.50434800  0.18342900  1
  H  298  1  0.96842500  0.50407800  0.17149400  1
  H  299  1  0.02227800  0.52270000  0.33783100  1
  H  300  1  0.96193700  0.49374100  0.22564100  1
  H  301  1  0.03112100  0.52757300  0.28327500  1
  H  307  1  0.97077500  0.46311600  0.37216100  1
  H  308  1  0.03915600  0.53037500  0.13811500  1
  H  315  1  0.04771800  0.45837300  0.67606200  1
  H  322  1  0.95681200  0.48871000  0.76675100  1
  H  323  1  0.94789500  0.49581400  0.82104100  1
  H  324  1  0.04431200  0.50858100  0.83516900  1
  H  325  1  0.98431900  0.53315400  0.67263900  1
  H  326  1  0.05311900  0.50179700  0.78071400  1
  H  327  1  0.97945500  0.53186900  0.72765700  1
  H  333  1  0.03722700  0.48896600  0.62542300  1
  H  334  1  0.97040000  0.52586000  0.86640200  1
  H  341  1  0.32181500  0.97240400  0.44267400  1
  H  348  1  0.23688100  0.06098800  0.49496700  1
  H  349  1  0.18275100  0.06732500  0.50591000  1
  H  350  1  0.17131200  0.96970000  0.50593100  1
  H  351  1  0.33731600  0.02464500  0.52425500  1
  H  352  1  0.22547400  0.96346800  0.49544700  1
  H  353  1  0.28270300  0.03314100  0.52905300  1
  H  359  1  0.37195600  0.97295800  0.46502100  1
  H  360  1  0.13765100  0.04040500  0.53215100  1
  H  367  1  0.67562900  0.04629600  0.46018300  1
  H  374  1  0.76678100  0.95563000  0.49016400  1
  H  375  1  0.82109900  0.94698000  0.49744800  1
  H  376  1  0.83464400  0.04344700  0.51055700  1
  H  377  1  0.67249900  0.98258100  0.53471300  1
  H  378  1  0.78018800  0.05197400  0.50360300  1
  H  379  1  0.72752200  0.97791700  0.53335600  1
  H  385  1  0.62512700  0.03556600  0.49060600  1
  H  386  1  0.86626500  0.96969500  0.52777800  1
  H  393  1  0.44202200  0.32238800  0.97202000  1
  H  400  1  0.49374800  0.23695800  0.06044200  1
  H  401  1  0.50429700  0.18273500  0.06665000  1
  H  402  1  0.50433400  0.17154200  0.96900600  1
  H  403  1  0.52375700  0.33727500  0.02420500  1
  H  404  1  0.49423900  0.22578000  0.96289300  1
  H  405  1  0.52819000  0.28262400  0.03264100  1
  H  411  1  0.46477200  0.37235600  0.97256700  1
  H  412  1  0.53033800  0.13759000  0.03956000  1
  H  419  1  0.45970900  0.67530600  0.04666800  1
  H  426  1  0.48897300  0.76668600  0.95616300  1
  H  427  1  0.49577700  0.82105100  0.94748000  1
  H  428  1  0.50895600  0.83476200  0.04390300  1
  H  429  1  0.53431500  0.67281100  0.98301100  1
  H  430  1  0.50246500  0.78023500  0.05247500  1
  H  431  1  0.53258300  0.72783400  0.97845000  1
  H  437  1  0.49042200  0.62503000  0.03579900  1
  H  438  1  0.52581400  0.86636700  0.97006800  1
  H  445  1  0.46624800  0.96021700  0.67572000  1
  H  452  1  0.50061300  0.04900300  0.76465200  1
  H  453  1  0.49416700  0.05857200  0.81881400  1
  H  454  1  0.49889100  0.96197600  0.83647300  1
  H  455  1  0.54402100  0.01979200  0.67187500  1
  H  456  1  0.50610500  0.95254000  0.78214800  1
  H  457  1  0.54385800  0.02395200  0.72712000  1
  H  463  1  0.49785800  0.96939000  0.62483400  1
  H  464  1  0.47241500  0.03512200  0.86673500  1
  H  471  1  0.44850600  0.03363600  0.32048600  1
  H  478  1  0.49657300  0.94543500  0.23879200  1
  H  479  1  0.49410200  0.93783900  0.18390000  1
  H  480  1  0.50311000  0.03481100  0.17013900  1
  H  481  1  0.53065700  0.98317200  0.33889900  1
  H  482  1  0.50607000  0.04216400  0.22499800  1
  H  483  1  0.53737500  0.97445200  0.28435700  1
  H  489  1  0.46847500  0.03303000  0.37137400  1
  H  490  1  0.47669400  0.96288400  0.13561800  1
  H  497  1  0.95880200  0.32978800  0.54733800  1
  H  504  1  0.04976400  0.23931100  0.51613700  1
  H  505  1  0.05862600  0.18507100  0.50858600  1
  H  506  1  0.96215800  0.17110100  0.49606600  1
  H  507  1  0.02205500  0.33377500  0.47246600  1
  H  508  1  0.95340800  0.22547900  0.50328200  1
  H  509  1  0.02701800  0.27876100  0.47340900  1
  H  515  1  0.96914800  0.38062300  0.51720300  1
  H  516  1  0.03594500  0.13987000  0.47832800  1
  H  523  1  0.03530200  0.68484900  0.56460300  1
  H  530  1  0.94612800  0.76859400  0.51135500  1
  H  531  1  0.93936500  0.82262400  0.50016400  1
  H  532  1  0.03688000  0.83491300  0.50046400  1
  H  533  1  0.98347200  0.66824300  0.48297500  1
  H  534  1  0.04354800  0.78084900  0.51119000  1
  H  535  1  0.97449400  0.72273800  0.47772300  1
  H  541  1  0.03510200  0.63445000  0.54276000  1
  H  542  1  0.96597700  0.86788700  0.47392500  1
  H  549  1  0.32053100  0.44860300  0.03364700  1
  H  556  1  0.23875400  0.49645200  0.94550500  1
  H  557  1  0.18386200  0.49394100  0.93797400  1
  H  558  1  0.17020600  0.50327100  0.03493400  1
  H  559  1  0.33892700  0.53061200  0.98294100  1
  H  560  1  0.22508600  0.50626800  0.04220700  1
  H  561  1  0.28437100  0.53736300  0.97431700  1
  H  567  1  0.37146500  0.46838900  0.03273300  1
  H  568  1  0.13557200  0.47668000  0.96307500  1
  H  575  1  0.67575500  0.46635700  0.96018000  1
  H  582  1  0.76463800  0.50061500  0.04909400  1
  H  583  1  0.81879300  0.49415700  0.05869600  1
  H  584  1  0.83652400  0.49894400  0.96212000  1
  H  585  1  0.67187800  0.54399300  0.01993200  1
  H  586  1  0.78221000  0.50617700  0.95264200  1
  H  587  1  0.72712000  0.54383100  0.02410400  1
  H  593  1  0.62484100  0.49820400  0.96935600  1
  H  594  1  0.86671200  0.47241200  0.03526100  1
  C  1  1  0.98411700  0.50223500  0.47428100  1
  C  2  1  0.95112700  0.50430600  0.47525200  1
  C  3  1  0.95143200  0.50400800  0.53381400  1
  C  4  1  0.98445400  0.50214200  0.53443100  1
  C  5  1  0.99921800  0.50078700  0.56420000  1
  C  6  1  0.98178300  0.50118300  0.59219300  1
  C  7  1  0.94919800  0.50339400  0.59055100  1
  C  8  1  0.93418100  0.50472300  0.56175200  1
  C  9  1  0.93361500  0.50550000  0.44750300  1
  C  10  1  0.94831600  0.50399900  0.41855300  1
  C  11  1  0.98090100  0.50073600  0.41643000  1
  C  12  1  0.99850800  0.50084100  0.44430500  1
  C  13  1  0.02191400  0.53199700  0.50401100  1
  C  14  1  0.05490700  0.53107800  0.50201200  1
  C  15  1  0.05469100  0.47251000  0.50226100  1
  C  16  1  0.02166500  0.47183500  0.50406400  1
  C  17  1  0.07198900  0.44460300  0.50150900  1
  C  18  1  0.05701400  0.41577700  0.50271000  1
  C  19  1  0.02442900  0.41407100  0.50484400  1
  C  20  1  0.00694900  0.44203800  0.50531800  1
  C  21  1  0.00747700  0.56195900  0.50534400  1
  C  22  1  0.02504000  0.58986600  0.50547400  1
  C  23  1  0.05763300  0.58777900  0.50227200  1
  C  24  1  0.07238200  0.55885000  0.50084300  1
  C  37  1  0.00303900  0.50199300  0.50425300  1
  C  38  1  0.07267700  0.50172300  0.50076700  1
  C  41  1  0.93340300  0.50558600  0.50463200  1
  C  48  1  0.47379000  0.98515200  0.50473000  1
  C  49  1  0.47421100  0.95216500  0.50713600  1
  C  50  1  0.53276700  0.95138100  0.50681700  1
  C  51  1  0.53394500  0.98435900  0.50464800  1
  C  52  1  0.56398100  0.99857100  0.50313300  1
  C  53  1  0.59167500  0.98068200  0.50357500  1
  C  54  1  0.58947100  0.94815700  0.50608900  1
  C  55  1  0.56041200  0.93365500  0.50763900  1
  C  56  1  0.44618500  0.93512300  0.50846900  1
  C  57  1  0.41749900  0.95027800  0.50670300  1
  C  58  1  0.41590700  0.98284800  0.50301500  1
  C  59  1  0.44407000  0.00003400  0.50307000  1
  C  60  1  0.50452300  0.02239300  0.53445000  1
  C  61  1  0.50558100  0.05543400  0.53357700  1
  C  62  1  0.50604200  0.05518100  0.47502600  1
  C  63  1  0.50460600  0.02214100  0.47432800  1
  C  64  1  0.50765000  0.07244400  0.44715100  1
  C  65  1  0.50759200  0.05739400  0.41836000  1
  C  66  1  0.50511800  0.02472200  0.41652100  1
  C  67  1  0.50433900  0.00737700  0.44453600  1
  C  68  1  0.50446000  0.00786200  0.56437500  1
  C  69  1  0.50560900  0.02544900  0.59225900  1
  C  70  1  0.50663800  0.05807300  0.59031500  1
  C  71  1  0.50646600  0.07290800  0.56138200  1
  C  84  1  0.50412200  0.00351300  0.50446400  1
  C  85  1  0.50638400  0.07323300  0.50423400  1
  C  88  1  0.50326800  0.93391800  0.50865300  1
  C  95  1  0.50473400  0.47396200  0.98505500  1
  C  96  1  0.50723600  0.47444200  0.95207400  1
  C  97  1  0.50691500  0.53299800  0.95140400  1
  C  98  1  0.50467200  0.53410500  0.98438000  1
  C  99  1  0.50309600  0.56410500  0.99865200  1
  C  100  1  0.50353400  0.59183500  0.98082400  1
  C  101  1  0.50612400  0.58970600  0.94829900  1
  C  102  1  0.50775300  0.56067900  0.93373800  1
  C  103  1  0.50859300  0.44644600  0.93498300  1
  C  104  1  0.50674300  0.41773600  0.95008200  1
  C  105  1  0.50293500  0.41609300  0.98263700  1
  C  106  1  0.50299800  0.44421700  0.99987800  1
  C  107  1  0.53443800  0.50460900  0.02237600  1
  C  108  1  0.53354700  0.50563700  0.05541800  1
  C  109  1  0.47499300  0.50610000  0.05513100  1
  C  110  1  0.47431400  0.50470900  0.02208900  1
  C  111  1  0.44710900  0.50768300  0.07238200  1
  C  112  1  0.41832500  0.50764600  0.05731600  1
  C  113  1  0.41650700  0.50521800  0.02464100  1
  C  114  1  0.44452900  0.50446200  0.00730700  1
  C  115  1  0.56437500  0.50452500  0.00786500  1
  C  116  1  0.59224900  0.50564000  0.02547100  1
  C  117  1  0.59028500  0.50664000  0.05809400  1
  C  118  1  0.56134000  0.50648700  0.07291000  1
  C  131  1  0.50446200  0.50425000  0.00347800  1
  C  132  1  0.50419200  0.50643100  0.07320000  1
  C  135  1  0.50881400  0.50353400  0.93388700  1
  C  142  1  0.48202100  0.00239900  0.97305800  1
  C  143  1  0.44897800  0.00293200  0.97407500  1
  C  144  1  0.44945700  0.00347700  0.03269400  1
  C  145  1  0.48251700  0.00296900  0.03314800  1
  C  146  1  0.49754100  0.00253100  0.06279000  1
  C  147  1  0.48044100  0.00169400  0.09090500  1
  C  148  1  0.44770300  0.00301800  0.08946500  1
  C  149  1  0.43240900  0.00374800  0.06076800  1
  C  150  1  0.43143400  0.00234100  0.94631700  1
  C  151  1  0.44620900  0.00122800  0.91736500  1
  C  152  1  0.47895600  0.00136300  0.91523500  1
  C  153  1  0.49648900  0.00139600  0.94313300  1
  C  154  1  0.51983500  0.03263300  0.00256400  1
  C  155  1  0.55287600  0.03175200  0.00177300  1
  C  156  1  0.55263000  0.97310500  0.00236600  1
  C  157  1  0.51958400  0.97253900  0.00315000  1
  C  158  1  0.56977600  0.94508800  0.00287100  1
  C  159  1  0.55458700  0.91634800  0.00425500  1
  C  160  1  0.52182300  0.91474900  0.00452700  1
  C  161  1  0.50468100  0.94285900  0.00443500  1
  C  162  1  0.50523500  0.06250100  0.00306600  1
  C  163  1  0.52265800  0.09046300  0.00364700  1
  C  164  1  0.55536900  0.08852500  0.00199900  1
  C  165  1  0.57027200  0.05961400  0.00125900  1
  C  178  1  0.50099000  0.00266400  0.00295500  1
  C  179  1  0.57067900  0.00234500  0.00136800  1
  C  182  1  0.43128500  0.00374400  0.00353000  1
  C  189  1  0.97308400  0.48202100  0.00262500  1
  C  190  1  0.97409400  0.44897800  0.00316400  1
  C  191  1  0.03271100  0.44944100  0.00374700  1
  C  192  1  0.03317500  0.48250100  0.00323200  1
  C  193  1  0.06282000  0.49751800  0.00278700  1
  C  194  1  0.09093100  0.48040900  0.00194500  1
  C  195  1  0.08948300  0.44767300  0.00327900  1
  C  196  1  0.06078200  0.43238500  0.00402100  1
  C  197  1  0.94632800  0.43144100  0.00255200  1
  C  198  1  0.91738100  0.44622700  0.00143100  1
  C  199  1  0.91526100  0.47897300  0.00155900  1
  C  200  1  0.94316300  0.49649900  0.00160100  1
  C  201  1  0.00258700  0.51983300  0.03287000  1
  C  202  1  0.00184500  0.55287400  0.03198200  1
  C  203  1  0.00244300  0.55261100  0.97333000  1
  C  204  1  0.00320500  0.51956300  0.97277400  1
  C  205  1  0.00296900  0.56974300  0.94530700  1
  C  206  1  0.00434300  0.55454500  0.91657100  1
  C  207  1  0.00461800  0.52177600  0.91497900  1
  C  208  1  0.00450600  0.50465100  0.94310100  1
  C  209  1  0.00301600  0.50523500  0.06274100  1
  C  210  1  0.00355900  0.52266000  0.09070300  1
  C  211  1  0.00201000  0.55537600  0.08875700  1
  C  212  1  0.00134500  0.57027600  0.05984100  1
  C  225  1  0.00298800  0.50098100  0.00290400  1
  C  226  1  0.00147000  0.57066700  0.00256600  1
  C  229  1  0.00354200  0.43127800  0.00400300  1
  C  236  1  0.00261800  0.97336100  0.48423200  1
  C  237  1  0.00323700  0.97425200  0.45119100  1
  C  238  1  0.00330200  0.03292500  0.45149100  1
  C  239  1  0.00263200  0.03346100  0.48453900  1
  C  240  1  0.00160300  0.06312400  0.49949100  1
  C  241  1  0.00168200  0.09126600  0.48240800  1
  C  242  1  0.00193800  0.08971300  0.44963700  1
  C  243  1  0.00303400  0.06098000  0.43439800  1
  C  244  1  0.00345100  0.94638200  0.43379800  1
  C  245  1  0.00271800  0.91746700  0.44871300  1
  C  246  1  0.00137300  0.91552800  0.48144000  1
  C  247  1  0.00211500  0.94349600  0.49884000  1
  C  248  1  0.03254600  0.00328000  0.52193400  1
  C  249  1  0.03166900  0.00260400  0.55497800  1
  C  250  1  0.97300000  0.00255200  0.55470500  1
  C  251  1  0.97244600  0.00324800  0.52165700  1
  C  252  1  0.94495800  0.00282900  0.57181700  1
  C  253  1  0.91621700  0.00395100  0.55659700  1
  C  254  1  0.91464400  0.00421100  0.52382900  1
  C  255  1  0.94277200  0.00428400  0.50672400  1
  C  256  1  0.06240500  0.00385200  0.50731700  1
  C  257  1  0.09037400  0.00458600  0.52471800  1
  C  258  1  0.08845200  0.00316600  0.55744000  1
  C  259  1  0.05954400  0.00236900  0.57236100  1
  C  272  1  0.00257800  0.00331900  0.50309100  1
  C  273  1  0.00225000  0.00195000  0.57276600  1
  C  276  1  0.00386800  0.00368100  0.43341400  1
  C  283  1  0.99575900  0.48103500  0.33555300  1
  C  284  1  0.01368100  0.50582100  0.32339300  1
  C  285  1  0.01886000  0.50870700  0.29112200  1
  C  286  1  0.00601100  0.48721600  0.26967100  1
  C  287  1  0.98849600  0.46181700  0.28153000  1
  C  288  1  0.98381400  0.45905000  0.31405900  1
  C  290  1  0.01002700  0.49201900  0.23694400  1
  C  291  1  0.04002500  0.49517200  0.22379300  1
  C  292  1  0.04387900  0.50118800  0.19178800  1
  C  293  1  0.01791200  0.50409400  0.17169800  1
  C  294  1  0.98788700  0.50072500  0.18482600  1
  C  295  1  0.98405200  0.49479700  0.21685700  1
  C  305  1  0.02207500  0.51502000  0.14148400  1
  C  306  1  0.98659300  0.47924300  0.36674600  1
  C  309  1  0.01656200  0.49577700  0.66884100  1
  C  310  1  0.99699000  0.51697500  0.68471200  1
  C  311  1  0.99397900  0.51608900  0.71725200  1
  C  312  1  0.01048900  0.49409900  0.73536900  1
  C  313  1  0.03085800  0.47311100  0.71989100  1
  C  314  1  0.03362300  0.47422100  0.68694400  1
  C  316  1  0.00594000  0.49397800  0.76836600  1
  C  317  1  0.97562000  0.49184700  0.78104200  1
  C  318  1  0.97039300  0.49577000  0.81314100  1
  C  319  1  0.99533400  0.50173500  0.83380100  1
  C  320  1  0.02580700  0.50284900  0.82129500  1
  C  321  1  0.03101100  0.49897200  0.78912000  1
  C  331  1  0.98890100  0.51207400  0.86379100  1
  C  332  1  0.01784200  0.49513000  0.63641200  1
  C  335  1  0.33525700  0.99795900  0.48269200  1
  C  336  1  0.32294900  0.01587200  0.50740800  1
  C  337  1  0.29064300  0.02085700  0.51024000  1
  C  338  1  0.26928400  0.00777000  0.48879800  1
  C  339  1  0.28128100  0.99022500  0.46348300  1
  C  340  1  0.31384500  0.98575300  0.46076000  1
  C  342  1  0.23652300  0.01161000  0.49357800  1
  C  343  1  0.22321900  0.04154600  0.49668900  1
  C  344  1  0.19121500  0.04525500  0.50279800  1
  C  345  1  0.17128700  0.01918800  0.50588600  1
  C  346  1  0.18454800  0.98922000  0.50253800  1
  C  347  1  0.21657200  0.98553600  0.49645900  1
  C  357  1  0.14108100  0.02325100  0.51689600  1
  C  358  1  0.36649400  0.98887600  0.48103500  1
  C  361  1  0.66854300  0.01494500  0.49745700  1
  C  362  1  0.68450200  0.99533400  0.51854600  1
  C  363  1  0.71705000  0.99244800  0.51762400  1
  C  364  1  0.73509500  0.00912300  0.49569800  1
  C  365  1  0.71952400  0.02951400  0.47479800  1
  C  366  1  0.68656700  0.03214300  0.47594300  1
  C  368  1  0.76811500  0.00474800  0.49560500  1
  C  369  1  0.78095800  0.97450100  0.49344800  1
  C  370  1  0.81306400  0.96943000  0.49748800  1
  C  371  1  0.83355900  0.99446600  0.50359900  1
  C  372  1  0.82091100  0.02488600  0.50466900  1
  C  373  1  0.78871900  0.02992500  0.50069000  1
  C  383  1  0.86355600  0.98820800  0.51402700  1
  C  384  1  0.63610700  0.01622300  0.49692700  1
  C  387  1  0.48214900  0.33552500  0.99755800  1
  C  388  1  0.50679400  0.32303500  0.01544800  1
  C  389  1  0.50941700  0.29070600  0.02038900  1
  C  390  1  0.48781800  0.26951200  0.00729200  1
  C  391  1  0.46256900  0.28169500  0.98978300  1
  C  392  1  0.46004800  0.31428200  0.98536600  1
  C  394  1  0.49238900  0.23672100  0.01106300  1
  C  395  1  0.49536800  0.22332700  0.04097000  1
  C  396  1  0.50123700  0.19127100  0.04460200  1
  C  397  1  0.50416900  0.17136900  0.01849300  1
  C  398  1  0.50095000  0.18473600  0.98855700  1
  C  399  1  0.49516300  0.21682000  0.98494300  1
  C  409  1  0.51502000  0.14110400  0.02247800  1
  C  410  1  0.48073200  0.36677600  0.98850600  1
  C  413  1  0.49705500  0.66854300  0.01533300  1
  C  414  1  0.51807600  0.68468200  0.99579400  1
  C  415  1  0.51692600  0.71722700  0.99296200  1
  C  416  1  0.49484900  0.73507800  0.00964100  1
  C  417  1  0.47404600  0.71933500  0.02999500  1
  C  418  1  0.47541700  0.68638300  0.03256800  1
  C  420  1  0.49446900  0.76808900  0.00527200  1
  C  421  1  0.49211700  0.78090300  0.97502700  1
  C  422  1  0.49586600  0.81304100  0.96994000  1
  C  423  1  0.50186700  0.83360300  0.99495200  1
  C  424  1  0.50318200  0.82095800  0.02536100  1
  C  425  1  0.49948000  0.78873800  0.03042600  1
  C  435  1  0.51210200  0.86364700  0.98861000  1
  C  436  1  0.49670600  0.63610500  0.01649900  1
  C  439  1  0.50520400  0.98933900  0.66839200  1
  C  440  1  0.52763100  0.00757800  0.68413000  1
  C  441  1  0.52747300  0.01008800  0.71676100  1
  C  442  1  0.50499300  0.99441000  0.73502500  1
  C  443  1  0.48256800  0.97557100  0.71953100  1
  C  444  1  0.48312200  0.97310500  0.68656700  1
  C  446  1  0.50414800  0.99980200  0.76792400  1
  C  447  1  0.50150400  0.03047300  0.77960900  1
  C  448  1  0.49771600  0.03610500  0.81165400  1
  C  449  1  0.49670600  0.01132200  0.83334700  1
  C  450  1  0.50048000  0.98067900  0.82180200  1
  C  451  1  0.50426200  0.97505900  0.78967400  1
  C  461  1  0.48689700  0.01722500  0.86370000  1
  C  462  1  0.50360600  0.98879200  0.63602100  1
  C  465  1  0.48866800  0.00905200  0.33529900  1
  C  466  1  0.51425700  0.99173100  0.32390000  1
  C  467  1  0.51830600  0.98669700  0.29172500  1
  C  468  1  0.49733200  0.99941100  0.26975900  1
  C  469  1  0.47113700  0.01629800  0.28077800  1
  C  470  1  0.46723900  0.02081100  0.31317200  1
  C  472  1  0.50200000  0.99448200  0.23724600  1
  C  473  1  0.49963100  0.96427300  0.22452200  1
  C  474  1  0.49810200  0.95987500  0.19207300  1
  C  475  1  0.49913300  0.98544100  0.17124500  1
  C  476  1  0.50343600  0.01550400  0.18408800  1
  C  477  1  0.50487600  0.01991900  0.21654200  1
  C  487  1  0.49022500  0.98116800  0.14030400  1
  C  488  1  0.48543500  0.01793300  0.36641500  1
  C  491  1  0.98987600  0.33729800  0.50992200  1
  C  492  1  0.00944800  0.32158500  0.48860700  1
  C  493  1  0.01251400  0.28904400  0.48928700  1
  C  494  1  0.99606400  0.27076000  0.51118300  1
  C  495  1  0.97571300  0.28608200  0.53230600  1
  C  496  1  0.97288600  0.31903200  0.53139700  1
  C  498  1  0.00061900  0.23776100  0.51104600  1
  C  499  1  0.03093800  0.22505200  0.51297200  1
  C  500  1  0.03613300  0.19298200  0.50878100  1
  C  501  1  0.01116800  0.17237200  0.50275200  1
  C  502  1  0.98069100  0.18489800  0.50188800  1
  C  503  1  0.97551600  0.21704900  0.50602400  1
  C  513  1  0.01749700  0.14243700  0.49219300  1
  C  514  1  0.98847800  0.36972700  0.51070800  1
  C  517  1  0.01003200  0.67087700  0.52459200  1
  C  518  1  0.99205700  0.68282200  0.49973800  1
  C  519  1  0.98680900  0.71506000  0.49662400  1
  C  520  1  0.99961300  0.73670100  0.51795700  1
  C  521  1  0.01718200  0.72505800  0.54341900  1
  C  522  1  0.02196000  0.69256100  0.54640000  1
  C  524  1  0.99549600  0.76938800  0.51292400  1
  C  525  1  0.96545800  0.78241500  0.50964200  1
  C  526  1  0.96149700  0.81436200  0.50338700  1
  C  527  1  0.98740000  0.83451800  0.50035500  1
  C  528  1  0.01746500  0.82151800  0.50383600  1
  C  529  1  0.02140400  0.78954300  0.51001000  1
  C  539  1  0.98310200  0.86465700  0.48925600  1
  C  540  1  0.01926400  0.63971200  0.52660300  1
  C  543  1  0.33532900  0.48871200  0.00896400  1
  C  544  1  0.32392800  0.51425500  0.99157800  1
  C  545  1  0.29174400  0.51832500  0.98660400  1
  C  546  1  0.26978200  0.49739700  0.99940600  1
  C  547  1  0.28081100  0.47123500  0.01633400  1
  C  548  1  0.31320900  0.46731600  0.02079600  1
  C  550  1  0.23726700  0.50208100  0.99452600  1
  C  551  1  0.22449900  0.49961200  0.96433800  1
  C  552  1  0.19204400  0.49807400  0.95998400  1
  C  553  1  0.17125200  0.49913100  0.98557600  1
  C  554  1  0.18414000  0.50347300  0.01561200  1
  C  555  1  0.21659300  0.50503000  0.01997900  1
  C  565  1  0.14031600  0.49018000  0.98136800  1
  C  566  1  0.36648000  0.48541700  0.01772100  1
  C  569  1  0.66841200  0.50525800  0.98937100  1
  C  570  1  0.68413900  0.52763400  0.00768300  1
  C  571  1  0.71677100  0.52747800  0.01019500  1
  C  572  1  0.73504800  0.50503900  0.99446800  1
  C  573  1  0.71955900  0.48264700  0.97558300  1
  C  574  1  0.68659200  0.48319900  0.97311600  1
  C  576  1  0.76794300  0.50416900  0.99989000  1
  C  577  1  0.77959900  0.50149500  0.03056900  1
  C  578  1  0.81164000  0.49768800  0.03622300  1
  C  579  1  0.83335900  0.49672400  0.01146000  1
  C  580  1  0.82184600  0.50056900  0.98081200  1
  C  581  1  0.78971300  0.50430400  0.97516900  1
  C  591  1  0.86371200  0.48692200  0.01737800  1
  C  592  1  0.63604600  0.50361500  0.98884300  1
  N  44  1  0.01342700  0.38531400  0.50568600  1
  N  45  1  0.99371900  0.49926800  0.38803900  1
  N  46  1  0.99283400  0.50015500  0.62092200  1
  N  47  1  0.01216900  0.61824800  0.50675000  1
  N  91  1  0.50514600  0.01168800  0.38824200  1
  N  92  1  0.38764100  0.99592700  0.50125300  1
  N  93  1  0.62056400  0.99132200  0.50234400  1
  N  94  1  0.50656300  0.01444800  0.62106000  1
  N  138  1  0.38822800  0.50525100  0.01161300  1
  N  139  1  0.50102000  0.38781600  0.99565900  1
  N  140  1  0.50219100  0.62069000  0.99153300  1
  N  141  1  0.62106400  0.50650500  0.01449500  1
  N  185  1  0.50829500  0.88688800  0.00723100  1
  N  186  1  0.49205100  0.99905200  0.88707400  1
  N  187  1  0.49382500  0.00195900  0.11892100  1
  N  188  1  0.50927900  0.11856600  0.00344000  1
  N  232  1  0.00738400  0.50822000  0.88713700  1
  N  233  1  0.88710500  0.49207900  0.99922900  1
  N  234  1  0.11895200  0.49378700  0.00218000  1
  N  235  1  0.00321800  0.50926500  0.11879900  1
  N  279  1  0.88680400  0.00682200  0.51023600  1
  N  280  1  0.00184700  0.88746100  0.49489500  1
  N  281  1  0.99902700  0.11908300  0.49604500  1
  N  282  1  0.11845500  0.00428200  0.51128300  1
  N  302  1  0.97605100  0.43939900  0.26078800  1
  N  328  1  0.04711100  0.45051900  0.73751700  1
  N  354  1  0.26063200  0.97752400  0.44112200  1
  N  380  1  0.73707500  0.04593700  0.45226900  1
  N  406  1  0.44007000  0.26120700  0.97706500  1
  N  432  1  0.45138900  0.73670500  0.04643600  1
  N  458  1  0.45883400  0.96080100  0.73700500  1
  N  484  1  0.44899400  0.02820600  0.25940600  1
  N  510  1  0.95953700  0.26829300  0.55482600  1
  N  536  1  0.02958300  0.74598400  0.56569000  1
  N  562  1  0.25944100  0.44913200  0.02832200  1
  N  588  1  0.73703800  0.45893800  0.96078000  1
  O  303  1  0.94687100  0.43819200  0.26250800  1
  O  304  1  0.98686700  0.41274900  0.26604000  1
  O  329  1  0.07604200  0.45327400  0.73426600  1
  O  330  1  0.03934200  0.42336800  0.72993300  1
  O  355  1  0.26254500  0.94834800  0.44006500  1
  O  356  1  0.26582200  0.98823300  0.41441500  1
  O  381  1  0.73371200  0.07484200  0.45515000  1
  O  382  1  0.72950500  0.03825800  0.42508700  1
  O  407  1  0.43900900  0.26317300  0.94789200  1
  O  408  1  0.41340300  0.26654800  0.98779800  1
  O  433  1  0.45428400  0.73331500  0.07533700  1
  O  434  1  0.42426600  0.72896000  0.03873500  1
  O  459  1  0.45940800  0.93178100  0.73344000  1
  O  460  1  0.43229000  0.97065600  0.72967500  1
  O  485  1  0.44704400  0.05735000  0.26103200  1
  O  486  1  0.42246200  0.01674800  0.26387400  1
  O  511  1  0.93059700  0.27150900  0.55215200  1
  O  512  1  0.96735200  0.27572800  0.58200500  1
  O  537  1  0.05877000  0.74435200  0.56689000  1
  O  538  1  0.01880200  0.74087800  0.59238200  1
  O  563  1  0.26111400  0.44724000  0.05746600  1
  O  564  1  0.26386400  0.42257400  0.01690900  1
  O  589  1  0.73347700  0.45956000  0.93175800  1
  O  590  1  0.72970700  0.43237800  0.97059100  1
