# generated using pymatgen
data_H25C34N3O2
_symmetry_space_group_name_H-M   'P 1'
_cell_length_a   9.98680000
_cell_length_b   52.48670000
_cell_length_c   52.48670000
_cell_angle_alpha   120.00000000
_cell_angle_beta   90.00000000
_cell_angle_gamma   90.00000000
_symmetry_Int_Tables_number   1
_chemical_formula_structural   H25C34N3O2
_chemical_formula_sum   'H75 C102 N9 O6'
_cell_volume   23826.24047182
_cell_formula_units_Z   3
loop_
 _symmetry_equiv_pos_site_id
 _symmetry_equiv_pos_as_xyz
  1  'x, y, z'
loop_
 _atom_site_type_symbol
 _atom_site_label
 _atom_site_symmetry_multiplicity
 _atom_site_fract_x
 _atom_site_fract_y
 _atom_site_fract_z
 _atom_site_occupancy
  C  1  1  0.97621600  0.57252300  0.41325000  1
  C  2  1  0.93168800  0.56294400  0.38417500  1
  C  3  1  0.92792100  0.58215400  0.37277000  1
  C  4  1  0.96968300  0.61167400  0.39008200  1
  C  5  1  0.01460000  0.62152300  0.41902700  1
  C  6  1  0.01898100  0.60216600  0.43026800  1
  C  7  1  0.96351900  0.63099400  0.37937000  1
  C  8  1  0.03855700  0.62793900  0.35672000  1
  C  9  1  0.03353000  0.64684400  0.34530500  1
  C  10  1  0.03465300  0.67780100  0.36366300  1
  C  11  1  0.03370200  0.69680600  0.35183000  1
  C  12  1  0.03473100  0.68420800  0.32087300  1
  C  13  1  0.03365600  0.65337200  0.30186900  1
  C  14  1  0.03459100  0.63501400  0.31446900  1
  C  15  1  0.03869200  0.64195400  0.27154900  1
  C  16  1  0.96358900  0.61931700  0.25195400  1
  C  17  1  0.96979800  0.60860100  0.22192200  1
  C  18  1  0.01479700  0.57966300  0.20283400  1
  C  19  1  0.92800700  0.62590600  0.20970800  1
  C  20  1  0.93188800  0.61450300  0.17909200  1
  C  21  1  0.97643700  0.58542800  0.15960300  1
  C  22  1  0.01915100  0.56841200  0.17223400  1
  C  23  1  0.03876600  0.72712700  0.37073300  1
  C  24  1  0.96371900  0.74672300  0.36768300  1
  C  25  1  0.96988300  0.77675600  0.38700400  1
  C  26  1  0.92803200  0.78896400  0.41651900  1
  C  27  1  0.01484100  0.79585100  0.37715800  1
  C  28  1  0.01911000  0.82645100  0.39651000  1
  C  29  1  0.97627600  0.83907700  0.42614800  1
  C  30  1  0.93176800  0.81957900  0.43572700  1
  C  52  1  0.98078100  0.87017900  0.44616000  1
  C  53  1  0.98115300  0.57433200  0.12850000  1
  C  54  1  0.98075200  0.55250900  0.42433800  1
  C  58  1  0.99285700  0.42656000  0.58700300  1
  C  59  1  0.98015100  0.43814400  0.61770100  1
  C  60  1  0.99736300  0.42013100  0.63025300  1
  C  61  1  0.02448900  0.38973400  0.61239500  1
  C  62  1  0.03787700  0.37812900  0.58173400  1
  C  63  1  0.02226600  0.39624900  0.56925300  1
  C  64  1  0.03944800  0.37129500  0.62414600  1
  C  65  1  0.95448800  0.37079700  0.64378900  1
  C  66  1  0.96644200  0.35169200  0.65473600  1
  C  67  1  0.96550700  0.32085700  0.63572600  1
  C  68  1  0.96643200  0.30138100  0.64697700  1
  C  69  1  0.96554700  0.31320500  0.67781300  1
  C  70  1  0.96641400  0.34393300  0.69728800  1
  C  71  1  0.96554000  0.36294500  0.68546500  1
  C  72  1  0.95446300  0.35488700  0.72734300  1
  C  73  1  0.03944700  0.37452300  0.74748000  1
  C  74  1  0.02447400  0.38628300  0.77767400  1
  C  75  1  0.03787500  0.41694400  0.79672300  1
  C  76  1  0.99729300  0.36842900  0.79021500  1
  C  77  1  0.98005100  0.38098900  0.82078000  1
  C  78  1  0.99274300  0.41168700  0.83988800  1
  C  79  1  0.02224500  0.42943000  0.82732400  1
  C  80  1  0.95449800  0.27132600  0.62787800  1
  C  81  1  0.03951300  0.25119200  0.62737400  1
  C  82  1  0.02454300  0.22099900  0.60894500  1
  C  83  1  0.99733800  0.20845200  0.57855200  1
  C  84  1  0.03794700  0.20195500  0.62056200  1
  C  85  1  0.02233700  0.17135200  0.60245300  1
  C  86  1  0.99287700  0.15877900  0.57214100  1
  C  87  1  0.98015100  0.17788600  0.56055000  1
  C  109  1  0.97182900  0.12793900  0.55398600  1
  C  110  1  0.97169000  0.42437200  0.87073000  1
  C  111  1  0.97185100  0.44472600  0.57432800  1
  C  115  1  0.02728300  0.46093900  0.92103800  1
  C  116  1  0.90033100  0.47056000  0.93432000  1
  C  117  1  0.88329500  0.48590800  0.96529200  1
  C  118  1  0.99781600  0.49112900  0.98355000  1
  C  119  1  0.12503100  0.48169300  0.97015400  1
  C  120  1  0.13976600  0.46729900  0.93946300  1
  C  123  1  0.99043900  0.50523200  0.01485300  1
  C  124  1  0.91033900  0.49347800  0.02871100  1
  C  125  1  0.90500200  0.50713800  0.05957900  1
  C  126  1  0.97952000  0.53294200  0.07772300  1
  C  127  1  0.06367100  0.54390600  0.06367500  1
  C  128  1  0.06832700  0.53046300  0.03282600  1
  C  141  1  0.02734300  0.45845500  0.53774800  1
  C  142  1  0.90037600  0.46212300  0.52813900  1
  C  143  1  0.88331800  0.47775000  0.51279400  1
  C  144  1  0.99783900  0.49077400  0.50755600  1
  C  145  1  0.12507000  0.48680500  0.51697800  1
  C  146  1  0.13981500  0.47051800  0.53138200  1
  C  149  1  0.99042500  0.50796900  0.49344900  1
  C  150  1  0.91027900  0.53357500  0.50519700  1
  C  151  1  0.90488000  0.55078000  0.49153400  1
  C  152  1  0.97940000  0.54312600  0.46573500  1
  C  153  1  0.06365600  0.51813200  0.45478100  1
  C  154  1  0.06836600  0.50072800  0.46822800  1
  C  167  1  0.02719200  0.07763700  0.54026100  1
  C  168  1  0.90024600  0.06435400  0.53659900  1
  C  169  1  0.88323300  0.03338000  0.52095900  1
  C  170  1  0.99773900  0.01512800  0.50789200  1
  C  171  1  0.12493700  0.02852800  0.51183900  1
  C  172  1  0.13966200  0.05921800  0.52815000  1
  C  175  1  0.99036600  0.98382700  0.49069100  1
  C  176  1  0.91030400  0.96996800  0.46507300  1
  C  177  1  0.90493200  0.93909900  0.44786800  1
  C  178  1  0.97947900  0.92096000  0.45552400  1
  C  179  1  0.06360000  0.93500300  0.48054300  1
  C  180  1  0.06824800  0.96585300  0.49794900  1
  H  31  1  0.89932900  0.54181000  0.37092800  1
  H  32  1  0.89352700  0.57444400  0.35178300  1
  H  33  1  0.05645000  0.61005000  0.45099700  1
  H  34  1  0.04628300  0.64278300  0.43205300  1
  H  35  1  0.03752100  0.61262200  0.30094800  1
  H  36  1  0.03760000  0.68667100  0.38605400  1
  H  37  1  0.03772100  0.69772900  0.31200300  1
  H  38  1  0.89362800  0.77568600  0.42422700  1
  H  39  1  0.04642800  0.56663800  0.21107200  1
  H  40  1  0.05671100  0.54769100  0.15939500  1
  H  41  1  0.89950900  0.62774500  0.17120100  1
  H  42  1  0.89358700  0.64689200  0.22298100  1
  H  43  1  0.89934900  0.82746800  0.45685800  1
  H  44  1  0.05658100  0.83929700  0.38862700  1
  H  45  1  0.04649600  0.78761800  0.35589700  1
  H  46  1  0.90123500  0.60928200  0.25889400  1
  H  47  1  0.09987800  0.65180300  0.26413700  1
  H  48  1  0.90126600  0.64798500  0.38942300  1
  H  49  1  0.09965300  0.61066300  0.34685600  1
  H  50  1  0.90142600  0.73978600  0.35069800  1
  H  51  1  0.09985800  0.73453500  0.38801100  1
  H  88  1  0.96020000  0.46000700  0.63136300  1
  H  89  1  0.98915300  0.42944200  0.65260400  1
  H  90  1  0.02878400  0.38680000  0.54687400  1
  H  91  1  0.05688000  0.35619600  0.56808400  1
  H  92  1  0.96075500  0.38525800  0.69941400  1
  H  93  1  0.96078100  0.31248900  0.61341000  1
  H  94  1  0.96076600  0.29925600  0.68617900  1
  H  95  1  0.98909300  0.22148600  0.56923400  1
  H  96  1  0.05689700  0.43058900  0.78843700  1
  H  97  1  0.02871900  0.45181000  0.84025100  1
  H  98  1  0.96004400  0.36733100  0.82898500  1
  H  99  1  0.98907800  0.34607800  0.77717900  1
  H  100  1  0.96009400  0.16967700  0.53868500  1
  H  101  1  0.02894600  0.15842500  0.61190400  1
  H  102  1  0.05709700  0.21024200  0.64248900  1
  H  103  1  0.11479900  0.38206100  0.74067000  1
  H  104  1  0.87785500  0.34755200  0.73401700  1
  H  105  1  0.11478700  0.35694300  0.61660300  1
  H  106  1  0.87790100  0.38481200  0.65113100  1
  H  107  1  0.11488300  0.25800400  0.64171700  1
  H  108  1  0.87787500  0.26465000  0.61387400  1
  H  121  1  0.20895300  0.48507700  0.98268300  1
  H  122  1  0.23326600  0.46082700  0.93052900  1
  H  129  1  0.85556200  0.47474400  0.01640100  1
  H  130  1  0.84527300  0.49810400  0.06884200  1
  H  131  1  0.12524200  0.56144600  0.07578100  1
  H  132  1  0.81930300  0.46731900  0.92108000  1
  H  133  1  0.12977700  0.53922500  0.02355700  1
  H  135  1  0.68282300  0.49265000  0.96325200  1
  H  136  1  0.74248700  0.50843100  0.99714100  1
  H  138  1  0.95465700  0.53151600  0.11490400  1
  H  140  1  0.12196200  0.45383100  0.88429600  1
  H  147  1  0.20899300  0.49593600  0.51357600  1
  H  148  1  0.23333500  0.46803100  0.53782800  1
  H  155  1  0.85548100  0.53999200  0.52393000  1
  H  156  1  0.84508300  0.56906800  0.50056500  1
  H  157  1  0.12521100  0.51269800  0.43723800  1
  H  158  1  0.81934900  0.45213000  0.53138800  1
  H  159  1  0.12984300  0.48270200  0.45946600  1
  H  161  1  0.68291900  0.46889900  0.50599300  1
  H  162  1  0.74263900  0.48699100  0.49019800  1
  H  164  1  0.95437800  0.58172900  0.46714900  1
  H  166  1  0.12201200  0.42881000  0.54484300  1
  H  173  1  0.20885200  0.01600100  0.50268000  1
  H  174  1  0.23316400  0.06815700  0.53062700  1
  H  181  1  0.85550600  0.98228200  0.45865400  1
  H  182  1  0.84518300  0.92983800  0.42957400  1
  H  183  1  0.12511700  0.92289800  0.48598700  1
  H  184  1  0.81926900  0.07758900  0.54664600  1
  H  185  1  0.12966800  0.97512300  0.51598600  1
  H  187  1  0.68267900  0.03540600  0.52970100  1
  H  188  1  0.74235700  0.00152400  0.51156000  1
  H  190  1  0.95447800  0.88376600  0.41693500  1
  H  192  1  0.12199700  0.11435200  0.56989500  1
  N  134  1  0.75858900  0.49592400  0.97622100  1
  N  137  1  0.97499400  0.54509800  0.10787000  1
  N  139  1  0.04413000  0.44770700  0.89115200  1
  N  160  1  0.75858900  0.47866200  0.50278400  1
  N  163  1  0.97471400  0.56110900  0.45357400  1
  N  165  1  0.04420500  0.44179900  0.55097800  1
  N  186  1  0.75855400  0.02245100  0.52007300  1
  N  189  1  0.97473900  0.89081100  0.43755900  1
  N  191  1  0.04402000  0.10752400  0.55695700  1
  O  55  1  0.97846800  0.59428200  0.11928900  1
  O  56  1  0.97863900  0.52334900  0.40438000  1
  O  57  1  0.97860400  0.87938500  0.47532200  1
  O  112  1  0.88223000  0.41111500  0.87976100  1
  O  113  1  0.88238100  0.46701300  0.58758200  1
  O  114  1  0.88230700  0.11890400  0.53170700  1
