# generated using pymatgen
data_Zn3H29C55O14
_symmetry_space_group_name_H-M   'P 1'
_cell_length_a   16.17758000
_cell_length_b   16.78321000
_cell_length_c   28.68154178
_cell_angle_alpha   96.66646575
_cell_angle_beta   100.92939100
_cell_angle_gamma   110.40446000
_symmetry_Int_Tables_number   1
_chemical_formula_structural   Zn3H29C55O14
_chemical_formula_sum   'Zn12 H116 C220 O56'
_cell_volume   7024.51597775
_cell_formula_units_Z   4
loop_
 _symmetry_equiv_pos_site_id
 _symmetry_equiv_pos_as_xyz
  1  'x, y, z'
loop_
 _atom_site_type_symbol
 _atom_site_label
 _atom_site_symmetry_multiplicity
 _atom_site_fract_x
 _atom_site_fract_y
 _atom_site_fract_z
 _atom_site_occupancy
  Zn  Zn0  1  0.50941000  0.46382000  0.22571000  1
  Zn  Zn1  1  0.17001000  0.28022000  0.88712000  1
  Zn  Zn2  1  0.14928000  0.22517000  0.39985000  1
  Zn  Zn3  1  0.36091000  0.54678000  0.28437000  1
  Zn  Zn4  1  0.85072000  0.77483000  0.60015000  1
  Zn  Zn5  1  0.86301000  0.67574000  0.69207000  1
  Zn  Zn6  1  0.84497000  0.62758000  0.19601000  1
  Zn  Zn7  1  0.83000000  0.71978000  0.11289000  1
  Zn  Zn8  1  0.13699000  0.32426000  0.30793000  1
  Zn  Zn9  1  0.49059000  0.53617000  0.77429000  1
  Zn  Zn10  1  0.15503000  0.37242000  0.80399000  1
  Zn  Zn11  1  0.63908000  0.45322000  0.71563000  1
  H  H12  1  0.79202000  0.06313000  0.02601000  1
  H  H13  1  0.14258000  0.98884000  0.46073000  1
  H  H14  1  0.66281000  0.78760000  0.87013000  1
  H  H15  1  0.42813000  0.80800000  0.22405000  1
  H  H16  1  0.86970000  0.05851000  0.36239000  1
  H  H17  1  0.57187000  0.19200000  0.77595000  1
  H  H18  1  0.85920000  0.24313000  0.27201000  1
  H  H19  1  0.54732000  0.65883000  0.13723000  1
  H  H20  1  0.61400000  0.24015000  0.18333000  1
  H  H21  1  0.96558000  0.52337000  0.13697000  1
  H  H22  1  0.38385000  0.77057000  0.94028000  1
  H  H23  1  0.74971000  0.35518000  0.95619000  1
  H  H24  1  0.28555000  0.56686000  0.38279000  1
  H  H25  1  0.16477000  0.04393000  0.93199000  1
  H  H26  1  0.69377000  0.03179000  0.69301000  1
  H  H27  1  0.31069000  0.85657000  0.96552000  1
  H  H28  1  0.38601000  0.75986000  0.81668000  1
  H  H29  1  0.19732000  0.50299000  0.98791000  1
  H  H30  1  0.98284000  0.51245000  0.78296000  1
  H  H31  1  0.47656000  0.06532000  0.51076000  1
  H  H32  1  0.28004000  0.74239000  0.13181000  1
  H  H33  1  0.25374000  0.45879000  0.51005000  1
  H  H34  1  0.03442000  0.47663000  0.86303000  1
  H  H35  1  0.48518000  0.11978000  0.02139000  1
  H  H36  1  0.68931000  0.14343000  0.03448000  1
  H  H37  1  0.44157000  0.22611000  0.97939000  1
  H  H38  1  0.58489000  0.83421000  0.52643000  1
  H  H39  1  0.69948000  0.36553000  0.81908000  1
  H  H40  1  0.01716000  0.48755000  0.21704000  1
  H  H41  1  0.42306000  0.63259000  0.69808000  1
  H  H42  1  0.35146000  0.03987000  0.59664000  1
  H  H43  1  0.55509000  0.12656000  0.28011000  1
  H  H44  1  0.41005000  0.39897000  0.39725000  1
  H  H45  1  0.79680000  0.11454000  0.50320000  1
  H  H46  1  0.62221000  0.04416000  0.60990000  1
  H  H47  1  0.30623000  0.96821000  0.30699000  1
  H  H48  1  0.33718000  0.21240000  0.12987000  1
  H  H49  1  0.68120000  0.95772000  0.19854000  1
  H  H50  1  0.10456000  0.87132000  0.15074000  1
  H  H51  1  0.37779000  0.95584000  0.39010000  1
  H  H52  1  0.42266000  0.91050000  0.86127000  1
  H  H53  1  0.14080000  0.75687000  0.72799000  1
  H  H54  1  0.30081000  0.06463000  0.08293000  1
  H  H55  1  0.35747000  0.71448000  0.43301000  1
  H  H56  1  0.23356000  0.43763000  0.16857000  1
  H  H57  1  0.67856000  0.39324000  0.43910000  1
  H  H58  1  0.30954000  0.83597000  0.75865000  1
  H  H59  1  0.74625000  0.54121000  0.48995000  1
  H  H60  1  0.56794000  0.83720000  0.77052000  1
  H  H61  1  0.86541000  0.31729000  0.76504000  1
  H  H62  1  0.45204000  0.92850000  0.14103000  1
  H  H63  1  0.89544000  0.12868000  0.84926000  1
  H  H64  1  0.21745000  0.05419000  0.33188000  1
  H  H65  1  0.13030000  0.94149000  0.63761000  1
  H  H66  1  0.45268000  0.34117000  0.86277000  1
  H  H67  1  0.85742000  0.01115000  0.53927000  1
  H  H68  1  0.55843000  0.77389000  0.02061000  1
  H  H69  1  0.44491000  0.87344000  0.71989000  1
  H  H70  1  0.52817000  0.76625000  0.08923000  1
  H  H71  1  0.68638000  0.20081000  0.65061000  1
  H  H72  1  0.63744000  0.68900000  0.26526000  1
  H  H73  1  0.41570000  0.19563000  0.63719000  1
  H  H74  1  0.82442000  0.53690000  0.91347000  1
  H  H75  1  0.43206000  0.16280000  0.22948000  1
  H  H76  1  0.76643000  0.56237000  0.83143000  1
  H  H77  1  0.69864000  0.19912000  0.52712000  1
  H  H78  1  0.47959000  0.09971000  0.36686000  1
  H  H79  1  0.71996000  0.25761000  0.86819000  1
  H  H80  1  0.45718000  0.22687000  0.72135000  1
  H  H81  1  0.61615000  0.22943000  0.05972000  1
  H  H82  1  0.44797000  0.29409000  0.44294000  1
  H  H83  1  0.20320000  0.88546000  0.49680000  1
  H  H84  1  0.69889000  0.23443000  0.73884000  1
  H  H85  1  0.30111000  0.76557000  0.26116000  1
  H  H86  1  0.58430000  0.80437000  0.36281000  1
  H  H87  1  0.69918000  0.93537000  0.91707000  1
  H  H88  1  0.31363000  0.79919000  0.34940000  1
  H  H89  1  0.25029000  0.64482000  0.04381000  1
  H  H90  1  0.52344000  0.93467000  0.48924000  1
  H  H91  1  0.36256000  0.31100000  0.73474000  1
  H  H92  1  0.71445000  0.43314000  0.61721000  1
  H  H93  1  0.58995000  0.60103000  0.60275000  1
  H  H94  1  0.66163000  0.75504000  0.74869000  1
  H  H95  1  0.70279000  0.97415000  0.32857000  1
  H  H96  1  0.54282000  0.77313000  0.27865000  1
  H  H97  1  0.83523000  0.95607000  0.06801000  1
  H  H98  1  0.77037000  0.86787000  0.18134000  1
  H  H99  1  0.54795000  0.07150000  0.85897000  1
  H  H100  1  0.57694000  0.36741000  0.30192000  1
  H  H101  1  0.27148000  0.95869000  0.17950000  1
  H  H102  1  0.64252000  0.28552000  0.56699000  1
  H  H103  1  0.29721000  0.02585000  0.67143000  1
  H  H104  1  0.39113000  0.74384000  0.65514000  1
  H  H105  1  0.78255000  0.94581000  0.66812000  1
  H  H106  1  0.80268000  0.49701000  0.01209000  1
  H  H107  1  0.22963000  0.13213000  0.81866000  1
  H  H108  1  0.47183000  0.23375000  0.91077000  1
  H  H109  1  0.67268000  0.37110000  0.11602000  1
  H  H110  1  0.30136000  0.80088000  0.47288000  1
  H  H111  1  0.31879000  0.04228000  0.80146000  1
  H  H112  1  0.57734000  0.08950000  0.13873000  1
  H  H113  1  0.17558000  0.46310000  0.08653000  1
  H  H114  1  0.20797000  0.93686000  0.97399000  1
  H  H115  1  0.41511000  0.16580000  0.47358000  1
  H  H116  1  0.51482000  0.88021000  0.97861000  1
  H  H117  1  0.32732000  0.62890000  0.88398000  1
  H  H118  1  0.69047000  0.16404000  0.24136000  1
  H  H119  1  0.64854000  0.96013000  0.40336000  1
  H  H120  1  0.52041000  0.90029000  0.63314000  1
  H  H121  1  0.60887000  0.25615000  0.34486000  1
  H  H122  1  0.72852000  0.04131000  0.82050000  1
  H  H123  1  0.13459000  0.68270000  0.23496000  1
  H  H124  1  0.33837000  0.24496000  0.25131000  1
  H  H125  1  0.30052000  0.63447000  0.18092000  1
  H  H126  1  0.55202000  0.70590000  0.55706000  1
  H  H127  1  0.32144000  0.60676000  0.56090000  1
  C  C128  1  0.56335000  0.93271000  0.89264000  1
  C  C129  1  0.64774000  0.19423000  0.97274000  1
  C  C130  1  0.12598000  0.84458000  0.68097000  1
  C  C131  1  0.67808000  0.28147000  0.00349000  1
  C  C132  1  0.27011000  0.85929000  0.73240000  1
  C  C133  1  0.60681000  0.87229000  0.24032000  1
  C  C134  1  0.34945000  0.02120000  0.00093000  1
  C  C135  1  0.24135000  0.89833000  0.19155000  1
  C  C136  1  0.65013000  0.17735000  0.49192000  1
  C  C137  1  0.77314000  0.52732000  0.10126000  1
  C  C138  1  0.50430000  0.67779000  0.81313000  1
  C  C139  1  0.42468000  0.07483000  0.60896000  1
  C  C140  1  0.62990000  0.04193000  0.97158000  1
  C  C141  1  0.78247000  0.58470000  0.58839000  1
  C  C142  1  0.54410000  0.12245000  0.76208000  1
  C  C143  1  0.58695000  0.01397000  0.26410000  1
  C  C144  1  0.75044000  0.05349000  0.50870000  1
  C  C145  1  0.37971000  0.90954000  0.53070000  1
  C  C146  1  0.37010000  0.95806000  0.02842000  1
  C  C147  1  0.39116000  0.82673000  0.07788000  1
  C  C148  1  0.06856000  0.49547000  0.10778000  1
  C  C149  1  0.31542000  0.59861000  0.52215000  1
  C  C150  1  0.97653000  0.49608000  0.85596000  1
  C  C151  1  0.72472000  0.91599000  0.53431000  1
  C  C152  1  0.25849000  0.78953000  0.23732000  1
  C  C153  1  0.73654000  0.92382000  0.69122000  1
  C  C154  1  0.31131000  0.63306000  0.91914000  1
  C  C155  1  0.60883000  0.17327000  0.92212000  1
  C  C156  1  0.32821000  0.10106000  0.78702000  1
  C  C157  1  0.59131000  0.29964000  0.67312000  1
  C  C158  1  0.65013000  0.33654000  0.83936000  1
  C  C159  1  0.68869000  0.36694000  0.08086000  1
  C  C160  1  0.74151000  0.21047000  0.76268000  1
  C  C161  1  0.59352000  0.79526000  0.25809000  1
  C  C162  1  0.41305000  0.98603000  0.73590000  1
  C  C163  1  0.66638000  0.34091000  0.54981000  1
  C  C164  1  0.87109000  0.53846000  0.80239000  1
  C  C165  1  0.74064000  0.00032000  0.02558000  1
  C  C166  1  0.72989000  0.14071000  0.26760000  1
  C  C167  1  0.14375000  0.47144000  0.11588000  1
  C  C168  1  0.83498000  0.25736000  0.77738000  1
  C  C169  1  0.62029000  0.09046000  0.46930000  1
  C  C170  1  0.56011000  0.20896000  0.42431000  1
  C  C171  1  0.42546000  0.63978000  0.16247000  1
  C  C172  1  0.34408000  0.96835000  0.50659000  1
  C  C173  1  0.73708000  0.03343000  0.31658000  1
  C  C174  1  0.61502000  0.86091000  0.74819000  1
  C  C175  1  0.65592000  0.03165000  0.49341000  1
  C  C176  1  0.38682000  0.83552000  0.36067000  1
  C  C177  1  0.75865000  0.10166000  0.80845000  1
  C  C178  1  0.25989000  0.55712000  0.93282000  1
  C  C179  1  0.59651000  0.95211000  0.50030000  1
  C  C180  1  0.55526000  0.06083000  0.42368000  1
  C  C181  1  0.21753000  0.41530000  0.41161000  1
  C  C182  1  0.16502000  0.74265000  0.22263000  1
  C  C183  1  0.47639000  0.30986000  0.41219000  1
  C  C184  1  0.26292000  0.96657000  0.68342000  1
  C  C185  1  0.82353000  0.18524000  0.28479000  1
  C  C186  1  0.72788000  0.79415000  0.07120000  1
  C  C187  1  0.39083000  0.16241000  0.97796000  1
  C  C188  1  0.65754000  0.12758000  0.99585000  1
  C  C189  1  0.29748000  0.86933000  0.22329000  1
  C  C190  1  0.27212000  0.20585000  0.92880000  1
  C  C191  1  0.58800000  0.02067000  0.92123000  1
  C  C192  1  0.35365000  0.25250000  0.74941000  1
  C  C193  1  0.47519000  0.88347000  0.86348000  1
  C  C194  1  0.85151000  0.15011000  0.82461000  1
  C  C195  1  0.37917000  0.76207000  0.52877000  1
  C  C196  1  0.27528000  0.08401000  0.46569000  1
  C  C197  1  0.48884000  0.67694000  0.13609000  1
  C  C198  1  0.44474000  0.93917000  0.57632000  1
  C  C199  1  0.38918000  0.18505000  0.13104000  1
  C  C200  1  0.60917000  0.83759000  0.02204000  1
  C  C201  1  0.32192000  0.71853000  0.99651000  1
  C  C202  1  0.54514000  0.63139000  0.61337000  1
  C  C203  1  0.84521000  0.56795000  0.75671000  1
  C  C204  1  0.43256000  0.01219000  0.25574000  1
  C  C205  1  0.45590000  0.87755000  0.23792000  1
  C  C206  1  0.34986000  0.66346000  0.16064000  1
  C  C207  1  0.45199000  0.65012000  0.66767000  1
  C  C208  1  0.26346000  0.07618000  0.30878000  1
  C  C209  1  0.40869000  0.70035000  0.32688000  1
  C  C210  1  0.31425000  0.93690000  0.71756000  1
  C  C211  1  0.97503000  0.20269000  0.33677000  1
  C  C212  1  0.70582000  0.42380000  0.57818000  1
  C  C213  1  0.60395000  0.07969000  0.75986000  1
  C  C214  1  0.43664000  0.06729000  0.10736000  1
  C  C215  1  0.72345000  0.48461000  0.50628000  1
  C  C216  1  0.66163000  0.27629000  0.86702000  1
  C  C217  1  0.65616000  0.32773000  0.49916000  1
  C  C218  1  0.49569000  0.32220000  0.18687000  1
  C  C219  1  0.57731000  0.07707000  0.61702000  1
  C  C220  1  0.54558000  0.20034000  0.16161000  1
  C  C221  1  0.22686000  0.47268000  0.89874000  1
  C  C222  1  0.72183000  0.84928000  0.20349000  1
  C  C223  1  0.26426000  0.50354000  0.44331000  1
  C  C224  1  0.36921000  0.10272000  0.10514000  1
  C  C225  1  0.56744000  0.98781000  0.74426000  1
  C  C226  1  0.10935000  0.77306000  0.19190000  1
  C  C227  1  0.94707000  0.51516000  0.81126000  1
  C  C228  1  0.68458000  0.40138000  0.47785000  1
  C  C229  1  0.99138000  0.27265000  0.82196000  1
  C  C230  1  0.89065000  0.22694000  0.80810000  1
  C  C231  1  0.31314000  0.02883000  0.29505000  1
  C  C232  1  0.38498000  0.13909000  0.25181000  1
  C  C233  1  0.34251000  0.71235000  0.95087000  1
  C  C234  1  0.43988000  0.79104000  0.57569000  1
  C  C235  1  0.25936000  0.99968000  0.97442000  1
  C  C236  1  0.15479000  0.43205000  0.24329000  1
  C  C237  1  0.74011000  0.44287000  0.06718000  1
  C  C238  1  0.50723000  0.60904000  0.65243000  1
  C  C239  1  0.27655000  0.51539000  0.49372000  1
  C  C240  1  0.34986000  0.82265000  0.50808000  1
  C  C241  1  0.37530000  0.06005000  0.26667000  1
  C  C242  1  0.44986000  0.07782000  0.75138000  1
  C  C243  1  0.51748000  0.96901000  0.39855000  1
  C  C244  1  0.71016000  0.77394000  0.22286000  1
  C  C245  1  0.41505000  0.10298000  0.00175000  1
  C  C246  1  0.33253000  0.18499000  0.26392000  1
  C  C247  1  0.43881000  0.57589000  0.19194000  1
  C  C248  1  0.34246000  0.87242000  0.00415000  1
  C  C249  1  0.48252000  0.03099000  0.60145000  1
  C  C250  1  0.39318000  0.12771000  0.75968000  1
  C  C251  1  0.46772000  0.73075000  0.60275000  1
  C  C252  1  0.17013000  0.91997000  0.66459000  1
  C  C253  1  0.56549000  0.28775000  0.35621000  1
  C  C254  1  0.21544000  0.00409000  0.47145000  1
  C  C255  1  0.46031000  0.16161000  0.63166000  1
  C  C256  1  0.17526000  0.45650000  0.16146000  1
  C  C257  1  0.76392000  0.72225000  0.21299000  1
  C  C258  1  0.78313000  0.79698000  0.69216000  1
  C  C259  1  0.30014000  0.14166000  0.95300000  1
  C  C260  1  0.57532000  0.92517000  0.39104000  1
  C  C261  1  0.85625000  0.52856000  0.88412000  1
  C  C262  1  0.52780000  0.12135000  0.40219000  1
  C  C263  1  0.23608000  0.27775000  0.78701000  1
  C  C264  1  0.78456000  0.99590000  0.52855000  1
  C  C265  1  0.62470000  0.93995000  0.73333000  1
  C  C266  1  0.61082000  0.81495000  0.86896000  1
  C  C267  1  0.69986000  0.85834000  0.04700000  1
  C  C268  1  0.02497000  0.79731000  0.66323000  1
  C  C269  1  0.12891000  0.46154000  0.19761000  1
  C  C270  1  0.43450000  0.71224000  0.64379000  1
  C  C271  1  0.57804000  0.08691000  0.89783000  1
  C  C272  1  0.21686000  0.20302000  0.30784000  1
  C  C273  1  0.64635000  0.74750000  0.25059000  1
  C  C274  1  0.33362000  0.65909000  0.45019000  1
  C  C275  1  0.76517000  0.94063000  0.04879000  1
  C  C276  1  0.47742000  0.73727000  0.10870000  1
  C  C277  1  0.02347000  0.50392000  0.14404000  1
  C  C278  1  0.58495000  0.89702000  0.99825000  1
  C  C279  1  0.68686000  0.97117000  0.70495000  1
  C  C280  1  0.96858000  0.49118000  0.94294000  1
  C  C281  1  0.52704000  0.05694000  0.26611000  1
  C  C282  1  0.33837000  0.72371000  0.13298000  1
  C  C283  1  0.63058000  0.89544000  0.52089000  1
  C  C284  1  0.39605000  0.92031000  0.24014000  1
  C  C285  1  0.82474000  0.54349000  0.83854000  1
  C  C286  1  0.53968000  0.83839000  0.36834000  1
  C  C287  1  0.47361000  0.45666000  0.32133000  1
  C  C288  1  0.73574000  0.49646000  0.55669000  1
  C  C289  1  0.66747000  0.81501000  0.73608000  1
  C  C290  1  0.49277000  0.39096000  0.34757000  1
  C  C291  1  0.62083000  0.23793000  0.47123000  1
  C  C292  1  0.65055000  0.97880000  0.99907000  1
  C  C293  1  0.17647000  0.81476000  0.71521000  1
  C  C294  1  0.00862000  0.72734000  0.17804000  1
  C  C295  1  0.47770000  0.23483000  0.15927000  1
  C  C296  1  0.57454000  0.36022000  0.83753000  1
  C  C297  1  0.73065000  0.35814000  0.99050000  1
  C  C298  1  0.54801000  0.34988000  0.33233000  1
  C  C299  1  0.42269000  0.92293000  0.38298000  1
  C  C300  1  0.27817000  0.15072000  0.79651000  1
  C  C301  1  0.45442000  0.79966000  0.83839000  1
  C  C302  1  0.56119000  0.42411000  0.80806000  1
  C  C303  1  0.03142000  0.50881000  0.05706000  1
  C  C304  1  0.52638000  0.54333000  0.67867000  1
  C  C305  1  0.29418000  0.57619000  0.42182000  1
  C  C306  1  0.72804000  0.84592000  0.70715000  1
  C  C307  1  0.53228000  0.26924000  0.39725000  1
  C  C308  1  0.40209000  0.76104000  0.10668000  1
  C  C309  1  0.87402000  0.15542000  0.31903000  1
  C  C310  1  0.52230000  0.76517000  0.84073000  1
  C  C311  1  0.52258000  0.26273000  0.89130000  1
  C  C312  1  0.68575000  0.06310000  0.28244000  1
  C  C313  1  0.52361000  0.69014000  0.58781000  1
  C  C314  1  0.47220000  0.87865000  0.59781000  1
  C  C315  1  0.55013000  0.92218000  0.24862000  1
  C  C316  1  0.76070000  0.43808000  0.02178000  1
  C  C317  1  0.27196000  0.15408000  0.29285000  1
  C  C318  1  0.55494000  0.20729000  0.64739000  1
  C  C319  1  0.47296000  0.94306000  0.73389000  1
  C  C320  1  0.35225000  0.80577000  0.02726000  1
  C  C321  1  0.42196000  0.91309000  0.10217000  1
  C  C322  1  0.36941000  0.10456000  0.47911000  1
  C  C323  1  0.75942000  0.85247000  0.55463000  1
  C  C324  1  0.65749000  0.28765000  0.04913000  1
  C  C325  1  0.93144000  0.50453000  0.89222000  1
  C  C326  1  0.26936000  0.64186000  0.00951000  1
  C  C327  1  0.63079000  0.89728000  0.89486000  1
  C  C328  1  0.59791000  0.23897000  0.89333000  1
  C  C329  1  0.67179000  0.89894000  0.21298000  1
  C  C330  1  0.52480000  0.11652000  0.13652000  1
  C  C331  1  0.05293000  0.48484000  0.18874000  1
  C  C332  1  0.23930000  0.56192000  0.97822000  1
  C  C333  1  0.82987000  0.08003000  0.33541000  1
  C  C334  1  0.40648000  0.20474000  0.74191000  1
  C  C335  1  0.70252000  0.13067000  0.77671000  1
  C  C336  1  0.40348000  0.04789000  0.49970000  1
  C  C337  1  0.24057000  0.14752000  0.44537000  1
  C  C338  1  0.14848000  0.84989000  0.17539000  1
  C  C339  1  0.23483000  0.05937000  0.95121000  1
  C  C340  1  0.34384000  0.67226000  0.50084000  1
  C  C341  1  0.28984000  0.22606000  0.77714000  1
  C  C342  1  0.24955000  0.94651000  0.49130000  1
  C  C343  1  0.41200000  0.97933000  0.07877000  1
  C  C344  1  0.51116000  0.32306000  0.86391000  1
  C  C345  1  0.45485000  0.36861000  0.38663000  1
  C  C346  1  0.44505000  0.79271000  0.35261000  1
  C  C347  1  0.61317000  0.16448000  0.63933000  1
  O  O348  1  0.98760000  0.74936000  0.69070000  1
  O  O349  1  0.47285000  0.50912000  0.70522000  1
  O  O350  1  0.49139000  0.44414000  0.80929000  1
  O  O351  1  0.98600000  0.80944000  0.62322000  1
  O  O352  1  0.53448000  0.33136000  0.68440000  1
  O  O353  1  0.81558000  0.74234000  0.18328000  1
  O  O354  1  0.23742000  0.45208000  0.26535000  1
  O  O355  1  0.04157000  0.45767000  0.02448000  1
  O  O356  1  0.01400000  0.19056000  0.37678000  1
  O  O357  1  0.67656000  0.34564000  0.68442000  1
  O  O358  1  0.99712000  0.56460000  0.05648000  1
  O  O359  1  0.59349000  0.52401000  0.67302000  1
  O  O360  1  0.29510000  0.21533000  0.43654000  1
  O  O361  1  0.84607000  0.86945000  0.56355000  1
  O  O362  1  0.32815000  0.26988000  0.91843000  1
  O  O363  1  0.42632000  0.34147000  0.19054000  1
  O  O364  1  0.21749000  0.26837000  0.28863000  1
  O  O365  1  0.57367000  0.65853000  0.80946000  1
  O  O366  1  0.80360000  0.58565000  0.63358000  1
  O  O367  1  0.57643000  0.37750000  0.20651000  1
  O  O368  1  0.46551000  0.66864000  0.31560000  1
  O  O369  1  0.18433000  0.18929000  0.91890000  1
  O  O370  1  0.95843000  0.54233000  0.97552000  1
  O  O371  1  0.17163000  0.17555000  0.33840000  1
  O  O372  1  0.82837000  0.82445000  0.66160000  1
  O  O373  1  0.79757000  0.65062000  0.56818000  1
  O  O374  1  0.70490000  0.78467000  0.56346000  1
  O  O375  1  0.76320000  0.65843000  0.23389000  1
  O  O376  1  0.38143000  0.54155000  0.21582000  1
  O  O377  1  0.23680000  0.34157000  0.76611000  1
  O  O378  1  0.01240000  0.25064000  0.30930000  1
  O  O379  1  0.00288000  0.43540000  0.94352000  1
  O  O380  1  0.42357000  0.62250000  0.79349000  1
  O  O381  1  0.67184000  0.73012000  0.08157000  1
  O  O382  1  0.40651000  0.47599000  0.32698000  1
  O  O383  1  0.61857000  0.45845000  0.78418000  1
  O  O384  1  0.78251000  0.73163000  0.71137000  1
  O  O385  1  0.91082000  0.61972000  0.74297000  1
  O  O386  1  0.76259000  0.54793000  0.73466000  1
  O  O387  1  0.78022000  0.52413000  0.14654000  1
  O  O388  1  0.18443000  0.25767000  0.81673000  1
  O  O389  1  0.32344000  0.65436000  0.31558000  1
  O  O390  1  0.19640000  0.41434000  0.36642000  1
  O  O391  1  0.50861000  0.55586000  0.19071000  1
  O  O392  1  0.81567000  0.81071000  0.08110000  1
  O  O393  1  0.21978000  0.47587000  0.85346000  1
  O  O394  1  0.20243000  0.34938000  0.43182000  1
  O  O395  1  0.79212000  0.59619000  0.08389000  1
  O  O396  1  0.96389000  0.74647000  0.14286000  1
  O  O397  1  0.52715000  0.49088000  0.29478000  1
  O  O398  1  0.20788000  0.40381000  0.91611000  1
  O  O399  1  0.02508000  0.32769000  0.79567000  1
  O  O400  1  0.08918000  0.38028000  0.25703000  1
  O  O401  1  0.15392000  0.13054000  0.43645000  1
  O  O402  1  0.97492000  0.67231000  0.20433000  1
  O  O403  1  0.03611000  0.25353000  0.85714000  1
