# generated using pymatgen
data_Zn2H11C18N3O7
_symmetry_space_group_name_H-M   'P 1'
_cell_length_a   11.18563000
_cell_length_b   11.20093000
_cell_length_c   19.93449810
_cell_angle_alpha   97.66310504
_cell_angle_beta   100.24904729
_cell_angle_gamma   116.03000000
_symmetry_Int_Tables_number   1
_chemical_formula_structural   Zn2H11C18N3O7
_chemical_formula_sum   'Zn8 H44 C72 N12 O28'
_cell_volume   2144.36628487
_cell_formula_units_Z   4
loop_
 _symmetry_equiv_pos_site_id
 _symmetry_equiv_pos_as_xyz
  1  'x, y, z'
loop_
 _atom_site_type_symbol
 _atom_site_label
 _atom_site_symmetry_multiplicity
 _atom_site_fract_x
 _atom_site_fract_y
 _atom_site_fract_z
 _atom_site_occupancy
  Zn  Zn0  1  0.44327000  0.87987000  0.62468000  1
  Zn  Zn1  1  0.75600000  0.82136000  0.87666000  1
  Zn  Zn2  1  0.55673000  0.12014000  0.37532000  1
  Zn  Zn3  1  0.24400000  0.17864000  0.12334000  1
  Zn  Zn4  1  0.69592000  0.94503000  0.74993000  1
  Zn  Zn5  1  0.43245000  0.68146000  0.74918000  1
  Zn  Zn6  1  0.30409000  0.05497000  0.25007000  1
  Zn  Zn7  1  0.56755000  0.31855000  0.25082000  1
  H  H8  1  0.43848000  0.89844000  0.75746000  1
  H  H9  1  0.88036000  0.80736000  0.62185000  1
  H  H10  1  0.50485000  0.63360000  0.45569000  1
  H  H11  1  0.85442000  0.59721000  0.41690000  1
  H  H12  1  0.09969000  0.53531000  0.69427000  1
  H  H13  1  0.94443000  0.32294000  0.72601000  1
  H  H14  1  0.61686000  0.24275000  0.54806000  1
  H  H15  1  0.76684000  0.45117000  0.51573000  1
  H  H16  1  0.12366000  0.99850000  0.53744000  1
  H  H17  1  0.11622000  0.89651000  0.45863000  1
  H  H18  1  0.27706000  0.99924000  0.52330000  1
  H  H19  1  0.64571000  0.68449000  0.74425000  1
  H  H20  1  0.68573000  0.25839000  0.87814000  1
  H  H21  1  0.67716000  0.04962000  0.04517000  1
  H  H22  1  0.67957000  0.43723000  0.08302000  1
  H  H23  1  0.34156000  0.40636000  0.80543000  1
  H  H24  1  0.09799000  0.21908000  0.77357000  1
  H  H25  1  0.19459000  0.06859000  0.95174000  1
  H  H26  1  0.43493000  0.25069000  0.98396000  1
  H  H27  1  0.96105000  0.58633000  0.96248000  1
  H  H28  1  0.93722000  0.65705000  0.04133000  1
  H  H29  1  0.97539000  0.75341000  0.97642000  1
  H  H30  1  0.56152000  0.10156000  0.24254000  1
  H  H31  1  0.11964000  0.19264000  0.37815000  1
  H  H32  1  0.49515000  0.36641000  0.54431000  1
  H  H33  1  0.14558000  0.40279000  0.58310000  1
  H  H34  1  0.90032000  0.46470000  0.30573000  1
  H  H35  1  0.05558000  0.67706000  0.27399000  1
  H  H36  1  0.38314000  0.75726000  0.45194000  1
  H  H37  1  0.23317000  0.54883000  0.48427000  1
  H  H38  1  0.87635000  0.00150000  0.46256000  1
  H  H39  1  0.88378000  0.10349000  0.54137000  1
  H  H40  1  0.72294000  0.00076000  0.47670000  1
  H  H41  1  0.35429000  0.31552000  0.25575000  1
  H  H42  1  0.31427000  0.74162000  0.12186000  1
  H  H43  1  0.32285000  0.95038000  0.95483000  1
  H  H44  1  0.32044000  0.56277000  0.91698000  1
  H  H45  1  0.65844000  0.59364000  0.19457000  1
  H  H46  1  0.90201000  0.78092000  0.22643000  1
  H  H47  1  0.80541000  0.93141000  0.04826000  1
  H  H48  1  0.56508000  0.74931000  0.01604000  1
  H  H49  1  0.03895000  0.41367000  0.03752000  1
  H  H50  1  0.06279000  0.34295000  0.95867000  1
  H  H51  1  0.02461000  0.24659000  0.02358000  1
  C  C52  1  0.04253000  0.63149000  0.58684000  1
  C  C53  1  0.14258000  0.82008000  0.54954000  1
  C  C54  1  0.88263000  0.70689000  0.52159000  1
  C  C55  1  0.82410000  0.75474000  0.56737000  1
  C  C56  1  0.68819000  0.73140000  0.54309000  1
  C  C57  1  0.61212000  0.65740000  0.47425000  1
  C  C58  1  0.67234000  0.61037000  0.42868000  1
  C  C59  1  0.80966000  0.63747000  0.45204000  1
  C  C60  1  0.62841000  0.78681000  0.59283000  1
  C  C61  1  0.58678000  0.51807000  0.35709000  1
  C  C62  1  0.94385000  0.50906000  0.60341000  1
  C  C63  1  0.99366000  0.47130000  0.66276000  1
  C  C64  1  0.90765000  0.35327000  0.68042000  1
  C  C65  1  0.77086000  0.27084000  0.63953000  1
  C  C66  1  0.72179000  0.30788000  0.58051000  1
  C  C67  1  0.80707000  0.42630000  0.56242000  1
  C  C68  1  0.68133000  0.14238000  0.65862000  1
  C  C69  1  0.16591000  0.93501000  0.51534000  1
  C  C70  1  0.54466000  0.45588000  0.91291000  1
  C  C71  1  0.77031000  0.59299000  0.95046000  1
  C  C72  1  0.68484000  0.36077000  0.97835000  1
  C  C73  1  0.68721000  0.25670000  0.93273000  1
  C  C74  1  0.68811000  0.14538000  0.95740000  1
  C  C75  1  0.68239000  0.13810000  0.02637000  1
  C  C76  1  0.68084000  0.24365000  0.07186000  1
  C  C77  1  0.68460000  0.35727000  0.04806000  1
  C  C78  1  0.69494000  0.03620000  0.90821000  1
  C  C79  1  0.66116000  0.23000000  0.14396000  1
  C  C80  1  0.40575000  0.34073000  0.89628000  1
  C  C81  1  0.30900000  0.33155000  0.83695000  1
  C  C82  1  0.17349000  0.22777000  0.81926000  1
  C  C83  1  0.13175000  0.13165000  0.86023000  1
  C  C84  1  0.22742000  0.14136000  0.91928000  1
  C  C85  1  0.36372000  0.24460000  0.93728000  1
  C  C86  1  0.98457000  0.02262000  0.84140000  1
  C  C87  1  0.91932000  0.65035000  0.98458000  1
  C  C88  1  0.95747000  0.36852000  0.41316000  1
  C  C89  1  0.85742000  0.17993000  0.45046000  1
  C  C90  1  0.11738000  0.29312000  0.47841000  1
  C  C91  1  0.17590000  0.24527000  0.43263000  1
  C  C92  1  0.31182000  0.26860000  0.45691000  1
  C  C93  1  0.38788000  0.34260000  0.52575000  1
  C  C94  1  0.32766000  0.38963000  0.57132000  1
  C  C95  1  0.19034000  0.36253000  0.54796000  1
  C  C96  1  0.37159000  0.21320000  0.40717000  1
  C  C97  1  0.41321000  0.48192000  0.64290000  1
  C  C98  1  0.05616000  0.49094000  0.39659000  1
  C  C99  1  0.00635000  0.52870000  0.33724000  1
  C  C100  1  0.09236000  0.64673000  0.31958000  1
  C  C101  1  0.22914000  0.72916000  0.36047000  1
  C  C102  1  0.27821000  0.69212000  0.41949000  1
  C  C103  1  0.19293000  0.57370000  0.43758000  1
  C  C104  1  0.31867000  0.85762000  0.34138000  1
  C  C105  1  0.83410000  0.06499000  0.48466000  1
  C  C106  1  0.45535000  0.54412000  0.08709000  1
  C  C107  1  0.22970000  0.40701000  0.04954000  1
  C  C108  1  0.31517000  0.63923000  0.02165000  1
  C  C109  1  0.31279000  0.74330000  0.06727000  1
  C  C110  1  0.31190000  0.85462000  0.04260000  1
  C  C111  1  0.31762000  0.86190000  0.97363000  1
  C  C112  1  0.31916000  0.75636000  0.92814000  1
  C  C113  1  0.31540000  0.64273000  0.95194000  1
  C  C114  1  0.30506000  0.96380000  0.09179000  1
  C  C115  1  0.33885000  0.77000000  0.85604000  1
  C  C116  1  0.59426000  0.65927000  0.10372000  1
  C  C117  1  0.69100000  0.66845000  0.16305000  1
  C  C118  1  0.82651000  0.77223000  0.18074000  1
  C  C119  1  0.86825000  0.86835000  0.13977000  1
  C  C120  1  0.77259000  0.85865000  0.08072000  1
  C  C121  1  0.63628000  0.75540000  0.06272000  1
  C  C122  1  0.01543000  0.97738000  0.15860000  1
  C  C123  1  0.08068000  0.34966000  0.01542000  1
  N  N124  1  0.01631000  0.71743000  0.54913000  1
  N  N125  1  0.17746000  0.67904000  0.60864000  1
  N  N126  1  0.23872000  0.79626000  0.58562000  1
  N  N127  1  0.66810000  0.46685000  0.95050000  1
  N  N128  1  0.57056000  0.56947000  0.89152000  1
  N  N129  1  0.71067000  0.65367000  0.91469000  1
  N  N130  1  0.98369000  0.28257000  0.45087000  1
  N  N131  1  0.82255000  0.32096000  0.39136000  1
  N  N132  1  0.76128000  0.20373000  0.41437000  1
  N  N133  1  0.33190000  0.53315000  0.04950000  1
  N  N134  1  0.42943000  0.43052000  0.10847000  1
  N  N135  1  0.28934000  0.34633000  0.08531000  1
  O  O136  1  0.70728000  0.85461000  0.65316000  1
  O  O137  1  0.50340000  0.76391000  0.56951000  1
  O  O138  1  0.65966000  0.49135000  0.31925000  1
  O  O139  1  0.45879000  0.47077000  0.34028000  1
  O  O140  1  0.73125000  0.11972000  0.71441000  1
  O  O141  1  0.56069000  0.06476000  0.61567000  1
  O  O142  1  0.47399000  0.86093000  0.72259000  1
  O  O143  1  0.70384000  0.05398000  0.84778000  1
  O  O144  1  0.69519000  0.93503000  0.93224000  1
  O  O145  1  0.67327000  0.34048000  0.18207000  1
  O  O146  1  0.63129000  0.11894000  0.16100000  1
  O  O147  1  0.90629000  0.01430000  0.78489000  1
  O  O148  1  0.95021000  0.94661000  0.88538000  1
  O  O149  1  0.63886000  0.75222000  0.77844000  1
  O  O150  1  0.29273000  0.14539000  0.34684000  1
  O  O151  1  0.49661000  0.23609000  0.43049000  1
  O  O152  1  0.34034000  0.50865000  0.68075000  1
  O  O153  1  0.54121000  0.52923000  0.65972000  1
  O  O154  1  0.26876000  0.88028000  0.28559000  1
  O  O155  1  0.43931000  0.93524000  0.38433000  1
  O  O156  1  0.52601000  0.13908000  0.27741000  1
  O  O157  1  0.29616000  0.94602000  0.15222000  1
  O  O158  1  0.30481000  0.06497000  0.06776000  1
  O  O159  1  0.32672000  0.65952000  0.81792000  1
  O  O160  1  0.36872000  0.88106000  0.83900000  1
  O  O161  1  0.09371000  0.98570000  0.21511000  1
  O  O162  1  0.04979000  0.05339000  0.11461000  1
  O  O163  1  0.36115000  0.24778000  0.22156000  1
