# generated using pymatgen
data_KPr3Cu12H40C60I12(NO2)10
_symmetry_space_group_name_H-M   'P 1'
_cell_length_a   18.13000000
_cell_length_b   27.46000026
_cell_length_c   27.69803035
_cell_angle_alpha   116.24553162
_cell_angle_beta   104.25697353
_cell_angle_gamma   99.40552318
_symmetry_Int_Tables_number   1
_chemical_formula_structural   KPr3Cu12H40C60I12(NO2)10
_chemical_formula_sum   'K2 Pr6 Cu24 H80 C120 I24 N20 O40'
_cell_volume   11383.54387616
_cell_formula_units_Z   2
loop_
 _symmetry_equiv_pos_site_id
 _symmetry_equiv_pos_as_xyz
  1  'x, y, z'
loop_
 _atom_site_type_symbol
 _atom_site_label
 _atom_site_symmetry_multiplicity
 _atom_site_fract_x
 _atom_site_fract_y
 _atom_site_fract_z
 _atom_site_occupancy
  C  C1  1  0.95680000  0.00210000  0.31600000  1.0
  C  C2  1  0.02830000  0.02150000  0.31040000  1.0
  C  C3  1  0.10070000  0.02720000  0.34760000  1.0
  C  C4  1  0.10150000  0.01340000  0.39040000  1.0
  C  C5  1  0.03000000  0.99390000  0.39580000  1.0
  C  C6  1  0.18010000  0.04620000  0.34260000  1.0
  C  C7  1  0.30860000  0.35320000  0.50260000  1.0
  C  C8  1  0.29760000  0.29660000  0.46360000  1.0
  C  C9  1  0.35940000  0.28150000  0.44520000  1.0
  C  C10  1  0.43230000  0.32310000  0.46580000  1.0
  C  C11  1  0.44340000  0.37980000  0.50500000  1.0
  C  C12  1  0.34950000  0.21750000  0.40440000  1.0
  C  C13  1  0.55930000  0.94020000  0.36120000  1.0
  C  C14  1  0.50130000  0.96710000  0.35740000  1.0
  C  C15  1  0.52380000  0.02470000  0.37400000  1.0
  C  C16  1  0.60430000  0.05540000  0.39460000  1.0
  C  C17  1  0.66250000  0.02860000  0.39860000  1.0
  C  C18  1  0.46150000  0.05140000  0.36760000  1.0
  C  C19  1  0.28710000  0.16310000  0.13540000  1.0
  C  C20  1  0.28100000  0.15080000  0.17820000  1.0
  C  C21  1  0.34740000  0.14700000  0.21260000  1.0
  C  C22  1  0.41990000  0.15550000  0.20420000  1.0
  C  C23  1  0.42610000  0.16790000  0.16160000  1.0
  C  C24  1  0.34100000  0.12900000  0.25720000  1.0
  C  C25  1  0.63070000  0.76160000  0.19380000  1.0
  C  C26  1  0.58770000  0.70760000  0.14600000  1.0
  C  C27  1  0.62220000  0.66420000  0.13240000  1.0
  C  C28  1  0.70030000  0.67460000  0.16640000  1.0
  C  C29  1  0.74320000  0.72850000  0.21420000  1.0
  C  C30  1  0.57860000  0.60860000  0.08460000  1.0
  C  C61  1  0.35920000  0.31390000  0.31600000  1.0
  C  C62  1  0.28210000  0.28890000  0.31040000  1.0
  C  C63  1  0.24690000  0.32040000  0.34760000  1.0
  C  C64  1  0.28890000  0.37700000  0.39040000  1.0
  C  C65  1  0.36580000  0.40190000  0.39580000  1.0
  C  C66  1  0.16250000  0.29640000  0.34260000  1.0
  C  C67  1  0.19400000  0.14940000  0.50260000  1.0
  C  C68  1  0.16600000  0.16700000  0.46360000  1.0
  C  C69  1  0.08580000  0.16370000  0.44520000  1.0
  C  C70  1  0.03350000  0.14270000  0.46580000  1.0
  C  C71  1  0.06160000  0.12520000  0.50500000  1.0
  C  C72  1  0.05490000  0.18690000  0.40440000  1.0
  C  C73  1  0.80190000  0.42100000  0.36120000  1.0
  C  C74  1  0.85610000  0.39030000  0.35740000  1.0
  C  C75  1  0.85020000  0.34930000  0.37400000  1.0
  C  C76  1  0.79030000  0.33920000  0.39460000  1.0
  C  C77  1  0.73610000  0.37000000  0.39860000  1.0
  C  C78  1  0.90610000  0.31620000  0.36760000  1.0
  C  C79  1  0.84830000  0.97230000  0.13540000  1.0
  C  C80  1  0.89720000  0.02740000  0.17820000  1.0
  C  C81  1  0.86520000  0.06560000  0.21260000  1.0
  C  C82  1  0.78430000  0.04870000  0.20420000  1.0
  C  C83  1  0.73550000  0.99370000  0.16160000  1.0
  C  C84  1  0.91620000  0.12820000  0.25720000  1.0
  C  C85  1  0.56310000  0.43220000  0.19380000  1.0
  C  C86  1  0.55830000  0.43840000  0.14600000  1.0
  C  C87  1  0.51020000  0.46820000  0.13240000  1.0
  C  C88  1  0.46610000  0.49180000  0.16640000  1.0
  C  C89  1  0.47100000  0.48570000  0.21420000  1.0
  C  C90  1  0.50600000  0.47600000  0.08460000  1.0
  C  C121  1  0.04320000  0.99790000  0.68400000  1.0
  C  C122  1  0.97170000  0.97850000  0.68960000  1.0
  C  C123  1  0.89930000  0.97280000  0.65240000  1.0
  C  C124  1  0.89850000  0.98660000  0.60960000  1.0
  C  C125  1  0.97000000  0.00610000  0.60420000  1.0
  C  C126  1  0.81990000  0.95380000  0.65740000  1.0
  C  C127  1  0.69140000  0.64680000  0.49740000  1.0
  C  C128  1  0.70240000  0.70340000  0.53640000  1.0
  C  C129  1  0.64060000  0.71850000  0.55480000  1.0
  C  C130  1  0.56770000  0.67690000  0.53420000  1.0
  C  C131  1  0.55660000  0.62020000  0.49500000  1.0
  C  C132  1  0.65050000  0.78250000  0.59560000  1.0
  C  C133  1  0.44070000  0.05980000  0.63880000  1.0
  C  C134  1  0.49870000  0.03290000  0.64260000  1.0
  C  C135  1  0.47620000  0.97530000  0.62600000  1.0
  C  C136  1  0.39570000  0.94460000  0.60540000  1.0
  C  C137  1  0.33750000  0.97140000  0.60140000  1.0
  C  C138  1  0.53850000  0.94860000  0.63240000  1.0
  C  C139  1  0.71290000  0.83690000  0.86460000  1.0
  C  C140  1  0.71900000  0.84920000  0.82180000  1.0
  C  C141  1  0.65260000  0.85300000  0.78740000  1.0
  C  C142  1  0.58010000  0.84450000  0.79580000  1.0
  C  C143  1  0.57390000  0.83210000  0.83840000  1.0
  C  C144  1  0.65900000  0.87100000  0.74280000  1.0
  C  C145  1  0.36930000  0.23840000  0.80620000  1.0
  C  C146  1  0.41230000  0.29240000  0.85400000  1.0
  C  C147  1  0.37780000  0.33580000  0.86760000  1.0
  C  C148  1  0.29970000  0.32540000  0.83360000  1.0
  C  C149  1  0.25680000  0.27150000  0.78580000  1.0
  C  C150  1  0.42140000  0.39140000  0.91540000  1.0
  C  C181  1  0.64080000  0.68610000  0.68400000  1.0
  C  C182  1  0.71790000  0.71110000  0.68960000  1.0
  C  C183  1  0.75310000  0.67960000  0.65240000  1.0
  C  C184  1  0.71110000  0.62300000  0.60960000  1.0
  C  C185  1  0.63420000  0.59810000  0.60420000  1.0
  C  C186  1  0.83750000  0.70360000  0.65740000  1.0
  C  C187  1  0.80600000  0.85060000  0.49740000  1.0
  C  C188  1  0.83400000  0.83300000  0.53640000  1.0
  C  C189  1  0.91420000  0.83630000  0.55480000  1.0
  C  C190  1  0.96650000  0.85730000  0.53420000  1.0
  C  C191  1  0.93840000  0.87480000  0.49500000  1.0
  C  C192  1  0.94510000  0.81310000  0.59560000  1.0
  C  C193  1  0.19810000  0.57900000  0.63880000  1.0
  C  C194  1  0.14390000  0.60970000  0.64260000  1.0
  C  C195  1  0.14980000  0.65070000  0.62600000  1.0
  C  C196  1  0.20970000  0.66080000  0.60540000  1.0
  C  C197  1  0.26390000  0.63000000  0.60140000  1.0
  C  C198  1  0.09390000  0.68380000  0.63240000  1.0
  C  C199  1  0.15170000  0.02770000  0.86460000  1.0
  C  C200  1  0.10280000  0.97260000  0.82180000  1.0
  C  C201  1  0.13480000  0.93440000  0.78740000  1.0
  C  C202  1  0.21570000  0.95130000  0.79580000  1.0
  C  C203  1  0.26450000  0.00630000  0.83840000  1.0
  C  C204  1  0.08380000  0.87180000  0.74280000  1.0
  C  C205  1  0.43690000  0.56780000  0.80620000  1.0
  C  C206  1  0.44170000  0.56160000  0.85400000  1.0
  C  C207  1  0.48980000  0.53180000  0.86760000  1.0
  C  C208  1  0.53390000  0.50820000  0.83360000  1.0
  C  C209  1  0.52900000  0.51430000  0.78580000  1.0
  C  C210  1  0.49400000  0.52400000  0.91540000  1.0
  Cu  Cu1  1  0.75798000  0.84488000  0.30186000  1.0
  Cu  Cu2  1  0.85803000  0.94683000  0.36086000  1.0
  Cu  Cu3  1  0.72255000  0.93175000  0.37338000  1.0
  Cu  Cu4  1  0.82054000  0.88964000  0.41344000  1.0
  Cu  Cu5  1  0.36778000  0.17298000  0.05616000  1.0
  Cu  Cu11  1  0.54388000  0.45698000  0.30186000  1.0
  Cu  Cu12  1  0.50283000  0.41403000  0.36086000  1.0
  Cu  Cu13  1  0.65083000  0.44163000  0.37338000  1.0
  Cu  Cu14  1  0.59290000  0.52380000  0.41344000  1.0
  Cu  Cu15  1  0.68838000  0.88318000  0.05616000  1.0
  Cu  Cu21  1  0.24202000  0.15512000  0.69814000  1.0
  Cu  Cu22  1  0.14197000  0.05317000  0.63914000  1.0
  Cu  Cu23  1  0.27745000  0.06825000  0.62662000  1.0
  Cu  Cu24  1  0.17946000  0.11036000  0.58656000  1.0
  Cu  Cu25  1  0.63222000  0.82702000  0.94384000  1.0
  Cu  Cu31  1  0.45612000  0.54302000  0.69814000  1.0
  Cu  Cu32  1  0.49717000  0.58597000  0.63914000  1.0
  Cu  Cu33  1  0.34917000  0.55837000  0.62662000  1.0
  Cu  Cu34  1  0.40710000  0.47620000  0.58656000  1.0
  Cu  Cu35  1  0.31162000  0.11682000  0.94384000  1.0
  Cu  Cu41  1  0.36800000  0.22670000  0.00000000  1.0
  Cu  Cu42  1  0.47080000  0.17300000  0.00000000  1.0
  Cu  Cu45  1  0.63200000  0.77330000  0.00000000  1.0
  Cu  Cu46  1  0.52920000  0.82700000  0.00000000  1.0
  H  H1  1  0.90740000  0.99820000  0.29060000  1.0
  H  H2  1  0.02770000  0.03090000  0.28120000  1.0
  H  H3  1  0.15100000  0.01730000  0.41580000  1.0
  H  H4  1  0.03060000  0.98450000  0.42500000  1.0
  H  H5  1  0.26650000  0.36360000  0.51520000  1.0
  H  H6  1  0.24790000  0.26830000  0.44960000  1.0
  H  H7  1  0.47450000  0.31280000  0.45340000  1.0
  H  H8  1  0.49310000  0.40810000  0.51900000  1.0
  H  H9  1  0.54390000  0.90080000  0.34980000  1.0
  H  H10  1  0.44610000  0.94600000  0.34320000  1.0
  H  H11  1  0.61970000  0.09480000  0.40600000  1.0
  H  H12  1  0.71740000  0.04950000  0.41260000  1.0
  H  H13  1  0.24180000  0.16580000  0.11200000  1.0
  H  H14  1  0.23150000  0.14500000  0.18380000  1.0
  H  H15  1  0.46530000  0.15290000  0.22780000  1.0
  H  H16  1  0.47560000  0.17360000  0.15580000  1.0
  H  H17  1  0.60690000  0.79130000  0.20320000  1.0
  H  H18  1  0.53450000  0.70050000  0.12280000  1.0
  H  H19  1  0.72400000  0.64480000  0.15700000  1.0
  H  H20  1  0.79630000  0.73560000  0.23740000  1.0
  H  H41  1  0.38320000  0.29240000  0.29060000  1.0
  H  H42  1  0.25350000  0.25030000  0.28120000  1.0
  H  H43  1  0.26480000  0.39850000  0.41580000  1.0
  H  H44  1  0.39440000  0.44050000  0.42500000  1.0
  H  H45  1  0.24870000  0.15160000  0.51520000  1.0
  H  H46  1  0.20170000  0.18130000  0.44960000  1.0
  H  H47  1  0.97890000  0.14060000  0.45340000  1.0
  H  H48  1  0.02590000  0.11090000  0.51900000  1.0
  H  H49  1  0.80590000  0.44900000  0.34980000  1.0
  H  H50  1  0.89710000  0.39720000  0.34320000  1.0
  H  H51  1  0.78630000  0.31120000  0.40600000  1.0
  H  H52  1  0.69520000  0.36310000  0.41260000  1.0
  H  H53  1  0.87020000  0.94620000  0.11200000  1.0
  H  H54  1  0.95230000  0.03880000  0.18380000  1.0
  H  H55  1  0.76250000  0.07490000  0.22780000  1.0
  H  H56  1  0.68020000  0.98220000  0.15580000  1.0
  H  H57  1  0.59630000  0.41190000  0.20320000  1.0
  H  H58  1  0.58830000  0.42230000  0.12280000  1.0
  H  H59  1  0.43300000  0.51220000  0.15700000  1.0
  H  H60  1  0.44110000  0.50180000  0.23740000  1.0
  H  H81  1  0.09260000  0.00180000  0.70940000  1.0
  H  H82  1  0.97230000  0.96910000  0.71880000  1.0
  H  H83  1  0.84900000  0.98270000  0.58420000  1.0
  H  H84  1  0.96940000  0.01550000  0.57500000  1.0
  H  H85  1  0.73350000  0.63640000  0.48480000  1.0
  H  H86  1  0.75210000  0.73170000  0.55040000  1.0
  H  H87  1  0.52550000  0.68720000  0.54660000  1.0
  H  H88  1  0.50690000  0.59190000  0.48100000  1.0
  H  H89  1  0.45610000  0.09920000  0.65020000  1.0
  H  H90  1  0.55390000  0.05400000  0.65680000  1.0
  H  H91  1  0.38030000  0.90520000  0.59400000  1.0
  H  H92  1  0.28260000  0.95050000  0.58740000  1.0
  H  H93  1  0.75820000  0.83420000  0.88800000  1.0
  H  H94  1  0.76850000  0.85500000  0.81620000  1.0
  H  H95  1  0.53470000  0.84710000  0.77220000  1.0
  H  H96  1  0.52440000  0.82640000  0.84420000  1.0
  H  H97  1  0.39310000  0.20870000  0.79680000  1.0
  H  H98  1  0.46550000  0.29950000  0.87720000  1.0
  H  H99  1  0.27600000  0.35520000  0.84300000  1.0
  H  H100  1  0.20370000  0.26440000  0.76260000  1.0
  H  H121  1  0.61680000  0.70760000  0.70940000  1.0
  H  H122  1  0.74650000  0.74970000  0.71880000  1.0
  H  H123  1  0.73520000  0.60150000  0.58420000  1.0
  H  H124  1  0.60560000  0.55950000  0.57500000  1.0
  H  H125  1  0.75130000  0.84840000  0.48480000  1.0
  H  H126  1  0.79830000  0.81870000  0.55040000  1.0
  H  H127  1  0.02110000  0.85940000  0.54660000  1.0
  H  H128  1  0.97410000  0.88910000  0.48100000  1.0
  H  H129  1  0.19410000  0.55100000  0.65020000  1.0
  H  H130  1  0.10290000  0.60280000  0.65680000  1.0
  H  H131  1  0.21370000  0.68880000  0.59400000  1.0
  H  H132  1  0.30480000  0.63690000  0.58740000  1.0
  H  H133  1  0.12980000  0.05380000  0.88800000  1.0
  H  H134  1  0.04770000  0.96120000  0.81620000  1.0
  H  H135  1  0.23750000  0.92510000  0.77220000  1.0
  H  H136  1  0.31980000  0.01780000  0.84420000  1.0
  H  H137  1  0.40370000  0.58810000  0.79680000  1.0
  H  H138  1  0.41170000  0.57770000  0.87720000  1.0
  H  H139  1  0.56700000  0.48780000  0.84300000  1.0
  H  H140  1  0.55890000  0.49820000  0.76260000  1.0
  I  I1  1  0.39342000  0.17112000  0.90406000  1.0
  I  I2  1  0.90615000  0.84934000  0.34722000  1.0
  I  I3  1  0.85631000  0.00436000  0.46590000  1.0
  I  I4  1  0.73423000  0.92418000  0.27354000  1.0
  I  I5  1  0.66217000  0.83122000  0.36138000  1.0
  I  I11  1  0.51064000  0.73294000  0.90406000  1.0
  I  I12  1  0.44107000  0.49788000  0.34722000  1.0
  I  I13  1  0.60959000  0.46154000  0.46590000  1.0
  I  I14  1  0.53931000  0.34936000  0.27354000  1.0
  I  I15  1  0.69921000  0.53016000  0.36138000  1.0
  I  I21  1  0.60658000  0.82888000  0.09594000  1.0
  I  I22  1  0.09385000  0.15066000  0.65278000  1.0
  I  I23  1  0.14369000  0.99564000  0.53410000  1.0
  I  I24  1  0.26577000  0.07582000  0.72646000  1.0
  I  I25  1  0.33783000  0.16878000  0.63862000  1.0
  I  I31  1  0.48936000  0.26706000  0.09594000  1.0
  I  I32  1  0.55893000  0.50212000  0.65278000  1.0
  I  I33  1  0.39041000  0.53846000  0.53410000  1.0
  I  I34  1  0.46069000  0.65064000  0.72646000  1.0
  I  I35  1  0.30079000  0.46984000  0.63862000  1.0
  I  I41  1  0.22552000  0.16822000  0.00000000  1.0
  I  I42  1  0.41010000  0.07900000  0.00000000  1.0
  I  I45  1  0.77448000  0.83178000  0.00000000  1.0
  I  I46  1  0.58990000  0.92100000  0.00000000  1.0
  K  K1  1  0.14390000  0.14390000  0.28780000  1.0
  K  K3  1  0.85610000  0.85610000  0.71220000  1.0
  N  N1  1  0.95770000  0.98830000  0.35860000  1.0
  N  N2  1  0.38160000  0.39490000  0.52340000  1.0
  N  N3  1  0.63990000  0.97090000  0.38180000  1.0
  N  N4  1  0.35970000  0.17170000  0.12720000  1.0
  N  N5  1  0.70840000  0.77200000  0.22780000  1.0
  N  N11  1  0.40090000  0.37030000  0.35860000  1.0
  N  N12  1  0.14180000  0.12850000  0.52340000  1.0
  N  N13  1  0.74190000  0.41090000  0.38180000  1.0
  N  N14  1  0.76750000  0.95550000  0.12720000  1.0
  N  N15  1  0.51940000  0.45580000  0.22780000  1.0
  N  N21  1  0.04230000  0.01170000  0.64140000  1.0
  N  N22  1  0.61840000  0.60510000  0.47660000  1.0
  N  N23  1  0.36010000  0.02910000  0.61820000  1.0
  N  N24  1  0.64030000  0.82830000  0.87280000  1.0
  N  N25  1  0.29160000  0.22800000  0.77220000  1.0
  N  N31  1  0.59910000  0.62970000  0.64140000  1.0
  N  N32  1  0.85820000  0.87150000  0.47660000  1.0
  N  N33  1  0.25810000  0.58910000  0.61820000  1.0
  N  N34  1  0.23250000  0.04450000  0.87280000  1.0
  N  N35  1  0.48060000  0.54420000  0.77220000  1.0
  O  O1  1  0.17780000  0.06320000  0.30740000  1.0
  O  O2  1  0.24060000  0.04800000  0.37340000  1.0
  O  O3  1  0.28280000  0.18320000  0.38940000  1.0
  O  O4  1  0.40800000  0.20630000  0.39440000  1.0
  O  O5  1  0.38990000  0.02570000  0.35440000  1.0
  O  O6  1  0.47900000  0.10280000  0.37700000  1.0
  O  O7  1  0.28110000  0.12870000  0.26940000  1.0
  O  O8  1  0.40220000  0.11790000  0.27920000  1.0
  O  O9  1  0.61780000  0.57080000  0.06420000  1.0
  O  O10  1  0.49930000  0.59530000  0.06100000  1.0
  O  O21  1  0.12960000  0.24420000  0.30740000  1.0
  O  O22  1  0.13280000  0.32540000  0.37340000  1.0
  O  O23  1  0.10660000  0.20620000  0.38940000  1.0
  O  O24  1  0.98640000  0.18810000  0.39440000  1.0
  O  O25  1  0.96450000  0.32870000  0.35440000  1.0
  O  O26  1  0.89800000  0.27420000  0.37700000  1.0
  O  O27  1  0.98830000  0.14070000  0.26940000  1.0
  O  O28  1  0.87700000  0.16130000  0.27920000  1.0
  O  O29  1  0.44640000  0.49340000  0.06420000  1.0
  O  O30  1  0.56170000  0.46570000  0.06100000  1.0
  O  O41  1  0.82220000  0.93680000  0.69260000  1.0
  O  O42  1  0.75940000  0.95200000  0.62660000  1.0
  O  O43  1  0.71720000  0.81680000  0.61060000  1.0
  O  O44  1  0.59200000  0.79370000  0.60560000  1.0
  O  O45  1  0.61010000  0.97430000  0.64560000  1.0
  O  O46  1  0.52100000  0.89720000  0.62300000  1.0
  O  O47  1  0.71890000  0.87130000  0.73060000  1.0
  O  O48  1  0.59780000  0.88210000  0.72080000  1.0
  O  O49  1  0.38220000  0.42920000  0.93580000  1.0
  O  O50  1  0.50070000  0.40470000  0.93900000  1.0
  O  O61  1  0.87040000  0.75580000  0.69260000  1.0
  O  O62  1  0.86720000  0.67460000  0.62660000  1.0
  O  O63  1  0.89340000  0.79380000  0.61060000  1.0
  O  O64  1  0.01360000  0.81190000  0.60560000  1.0
  O  O65  1  0.03550000  0.67130000  0.64560000  1.0
  O  O66  1  0.10200000  0.72580000  0.62300000  1.0
  O  O67  1  0.01170000  0.85930000  0.73060000  1.0
  O  O68  1  0.12300000  0.83870000  0.72080000  1.0
  O  O69  1  0.55360000  0.50660000  0.93580000  1.0
  O  O70  1  0.43830000  0.53430000  0.93900000  1.0
  Pr  Pr1  1  0.33263000  0.09965000  0.34424000  1.0
  Pr  Pr3  1  0.01161000  0.24459000  0.34424000  1.0
  Pr  Pr5  1  0.66737000  0.90035000  0.65576000  1.0
  Pr  Pr7  1  0.98839000  0.75541000  0.65576000  1.0
  Pr  Pr9  1  0.61863000  0.48013000  0.00000000  1.0
  Pr  Pr11  1  0.38137000  0.51987000  0.00000000  1.0
