# generated using pymatgen
data_Cr3H11C26O13F2
_symmetry_space_group_name_H-M   'P 1'
_cell_length_a   10.91027000
_cell_length_b   10.92986729
_cell_length_c   18.89537000
_cell_angle_alpha   89.92424378
_cell_angle_beta   89.96536000
_cell_angle_gamma   119.93585552
_symmetry_Int_Tables_number   1
_chemical_formula_structural   Cr3H11C26O13F2
_chemical_formula_sum   'Cr6 H22 C52 O26 F4'
_cell_volume   1952.61187462
_cell_formula_units_Z   2
loop_
 _symmetry_equiv_pos_site_id
 _symmetry_equiv_pos_as_xyz
  1  'x, y, z'
loop_
 _atom_site_type_symbol
 _atom_site_label
 _atom_site_symmetry_multiplicity
 _atom_site_fract_x
 _atom_site_fract_y
 _atom_site_fract_z
 _atom_site_occupancy
  C  C0  1  0.35328000  0.46014000  0.14571000  1
  C  C1  1  0.99219000  0.98694000  0.03651000  1
  C  C2  1  0.22073000  0.99634000  0.03756000  1
  C  C3  1  0.44757500  0.00325000  0.03610000  1
  C  C4  1  0.44506000  0.99840000  0.96359000  1
  C  C5  1  0.00431000  0.01150000  0.96394000  1
  C  C6  1  0.83147000  0.39506000  0.03794000  1
  C  C7  1  0.43634500  0.60502000  0.96199000  1
  C  C8  1  0.84702000  0.40002000  0.96467000  1
  C  C9  1  0.44692000  0.60004000  0.03526000  1
  C  C10  1  0.89303000  0.53980000  0.85426000  1
  C  C11  1  0.83669000  0.50392000  0.92556000  1
  C  C12  1  0.33285000  0.49582000  0.07437000  1
  C  C13  1  0.80374500  0.59734000  0.95964000  1
  C  C14  1  0.20673000  0.40200000  0.04026000  1
  C  C15  1  0.79421000  0.59616000  0.03197000  1
  C  C16  1  0.19844000  0.40322000  0.96794000  1
  C  C17  1  0.80800000  0.49550000  0.07198000  1
  C  C18  1  0.31266000  0.50432000  0.92794000  1
  C  C19  1  0.47534500  0.07228000  0.47255000  1
  C  C20  1  0.46214500  0.05376000  0.54475000  1
  C  C21  1  0.32878500  0.99525000  0.57604000  1
  C  C22  1  0.35595000  0.03622000  0.43036500  1
  C  C23  1  0.37577000  0.06262000  0.14664000  1
  C  C24  1  0.31314000  0.93748000  0.85333000  1
  C  C25  1  0.20977000  0.96599000  0.53480000  1
  C  C26  1  0.11907000  0.01996000  0.92711000  1
  C  C27  1  0.22361000  0.98726000  0.46193500  1
  C  C28  1  0.76259000  0.57872000  0.47435500  1
  C  C29  1  0.26125500  0.36646000  0.54387000  1
  C  C30  1  0.77774000  0.58017000  0.54660500  1
  C  C31  1  0.26641500  0.35468000  0.47150500  1
  C  C32  1  0.09895000  0.97910000  0.07315000  1
  C  C33  1  0.82986500  0.49986000  0.57792000  1
  C  C34  1  0.34051000  0.47576000  0.42906000  1
  C  C35  1  0.85398500  0.40675000  0.53684500  1
  C  C36  1  0.41543000  0.60890000  0.46006000  1
  C  C37  1  0.83541000  0.40217000  0.46399000  1
  C  C38  1  0.40904000  0.62136000  0.53289000  1
  C  C39  1  0.79395000  0.49136000  0.43208000  1
  C  C40  1  0.32786500  0.50037000  0.57476000  1
  C  C41  1  0.76810000  0.48136000  0.14610000  1
  C  C42  1  0.28675000  0.51860000  0.85387000  1
  C  C43  1  0.35356500  0.45524000  0.35440000  1
  C  C44  1  0.89045500  0.53943000  0.64803000  1
  C  C45  1  0.37917000  0.07130000  0.35563500  1
  C  C46  1  0.31031500  0.93604000  0.64660000  1
  C  C47  1  0.76116000  0.47946000  0.35708000  1
  C  C48  1  0.28830000  0.51744000  0.64573000  1
  C  C49  1  0.33257000  0.99358000  0.92565000  1
  C  C50  1  0.33943000  0.00692000  0.07425000  1
  C  C51  1  0.22414000  0.00342000  0.96252000  1
  Cr  Cr52  1  0.60236000  0.54400000  0.25011000  1
  Cr  Cr53  1  0.37271000  0.76666000  0.74916000  1
  Cr  Cr54  1  0.60605000  0.23334000  0.25084000  1
  Cr  Cr55  1  0.05836000  0.45600000  0.74989000  1
  Cr  Cr56  1  0.29161000  0.22992000  0.24926000  1
  Cr  Cr57  1  0.06169000  0.77008000  0.75074000  1
  F  F58  1  0.71678000  0.66338000  0.44649500  1
  F  F59  1  0.18656000  0.24752000  0.58320000  1
  F  F60  1  0.90342000  0.02510000  0.92876000  1
  F  F61  1  0.87758000  0.97278000  0.07189000  1
  H  H62  1  0.75717500  0.65146000  0.57756000  1
  H  H63  1  0.46090000  0.72619000  0.55572500  1
  H  H64  1  0.85570500  0.33126000  0.43260500  1
  H  H65  1  0.12623000  0.04334000  0.87118000  1
  H  H66  1  0.08300000  0.95572000  0.12909000  1
  H  H67  1  0.83785000  0.31370000  0.06775000  1
  H  H68  1  0.52392000  0.68670000  0.93220000  1
  H  H69  1  0.21324500  0.24978000  0.44881000  1
  H  H70  1  0.87233000  0.32674000  0.93914000  1
  H  H71  1  0.54529000  0.67360000  0.06080000  1
  H  H72  1  0.79376000  0.67782000  0.93091000  1
  H  H73  1  0.11638000  0.32124000  0.06897000  1
  H  H74  1  0.77195000  0.67274000  0.05613000  1
  H  H75  1  0.09978500  0.32636000  0.94377000  1
  H  H76  1  0.58020500  0.11612000  0.44994000  1
  H  H77  1  0.55535000  0.07818000  0.57558500  1
  H  H78  1  0.53914000  0.00974000  0.06211000  1
  H  H79  1  0.53051000  0.99276000  0.93742000  1
  H  H80  1  0.10523500  0.91968000  0.55811000  1
  H  H81  1  0.13151500  0.96336000  0.43034500  1
  H  H82  1  0.89492500  0.34386000  0.56024500  1
  H  H83  1  0.47645500  0.70250000  0.42805000  1
  O  O84  1  0.74485000  0.57508000  0.17047000  1
  O  O85  1  0.40303000  0.90826000  0.66916000  1
  O  O86  1  0.49477000  0.09174000  0.33084000  1
  O  O87  1  0.72204000  0.36268000  0.32551000  1
  O  O88  1  0.35936000  0.63732000  0.67449000  1
  O  O89  1  0.50001000  0.33576000  0.25007000  1
  O  O90  1  0.16425000  0.66424000  0.74993000  1
  O  O91  1  0.16977000  0.42492000  0.82953000  1
  O  O92  1  0.47350000  0.53132000  0.17505000  1
  O  O93  1  0.94218000  0.46868000  0.82495000  1
  O  O94  1  0.26121000  0.34038000  0.16855000  1
  O  O95  1  0.92083000  0.65962000  0.83145000  1
  O  O96  1  0.30513000  0.11316000  0.17516000  1
  O  O97  1  0.19197000  0.88684000  0.82484000  1
  O  O98  1  0.49641000  0.09184000  0.17032000  1
  O  O99  1  0.40457000  0.90816000  0.82968000  1
  O  O100  1  0.72355000  0.36278000  0.17671000  1
  O  O101  1  0.36077000  0.63722000  0.82329000  1
  O  O102  1  0.74322000  0.57500000  0.33099000  1
  O  O103  1  0.16822000  0.42500000  0.66901000  1
  O  O104  1  0.47198000  0.53122000  0.32386000  1
  O  O105  1  0.94076000  0.46878000  0.67614000  1
  O  O106  1  0.25957000  0.34028000  0.32908000  1
  O  O107  1  0.30362000  0.11308000  0.32397000  1
  O  O108  1  0.91929000  0.65972000  0.67092000  1
  O  O109  1  0.19054000  0.88692000  0.67603000  1
