# generated using pymatgen
data_Zn4H14C30O13
_symmetry_space_group_name_H-M   'P 1'
_cell_length_a   12.18100000
_cell_length_b   18.47800000
_cell_length_c   23.05500000
_cell_angle_alpha   90.00000000
_cell_angle_beta   90.00000000
_cell_angle_gamma   90.00000000
_symmetry_Int_Tables_number   1
_chemical_formula_structural   Zn4H14C30O13
_chemical_formula_sum   'Zn16 H56 C120 O52'
_cell_volume   5189.23134249
_cell_formula_units_Z   4
loop_
 _symmetry_equiv_pos_site_id
 _symmetry_equiv_pos_as_xyz
  1  'x, y, z'
loop_
 _atom_site_type_symbol
 _atom_site_label
 _atom_site_symmetry_multiplicity
 _atom_site_fract_x
 _atom_site_fract_y
 _atom_site_fract_z
 _atom_site_occupancy
  Zn  Zn1  1  0.76246000  0.70083000  0.81433000  1.0
  Zn  Zn2  1  0.76206000  0.79986000  0.70048000  1.0
  Zn  Zn3  1  0.93362000  0.82980000  0.79578000  1.0
  Zn  Zn4  1  0.93853000  0.68018000  0.71202000  1.0
  Zn  Zn5  1  0.23754000  0.79917000  0.31433000  1.0
  Zn  Zn6  1  0.23794000  0.70014000  0.20048000  1.0
  Zn  Zn7  1  0.06638000  0.67020000  0.29578000  1.0
  Zn  Zn8  1  0.06147000  0.81982000  0.21202000  1.0
  Zn  Zn9  1  0.26246000  0.29917000  0.68567000  1.0
  Zn  Zn10  1  0.26206000  0.20014000  0.79952000  1.0
  Zn  Zn11  1  0.43362000  0.17020000  0.70422000  1.0
  Zn  Zn12  1  0.43853000  0.31982000  0.78798000  1.0
  Zn  Zn13  1  0.73754000  0.20083000  0.18567000  1.0
  Zn  Zn14  1  0.73794000  0.29986000  0.29952000  1.0
  Zn  Zn15  1  0.56638000  0.32980000  0.20422000  1.0
  Zn  Zn16  1  0.56147000  0.18018000  0.28798000  1.0
  H  H1  1  0.54340000  0.96940000  0.76730000  1.0
  H  H2  1  0.33300000  0.00450000  0.89800000  1.0
  H  H3  1  0.50690000  0.82120000  0.89340000  1.0
  H  H4  1  0.31670000  0.98050000  0.99050000  1.0
  H  H5  1  0.21870000  0.94260000  0.07050000  1.0
  H  H6  1  0.28550000  0.73730000  0.02740000  1.0
  H  H7  1  0.37870000  0.77650000  0.94690000  1.0
  H  H8  1  0.07010000  0.47230000  0.76540000  1.0
  H  H9  1  0.01420000  0.32010000  0.88760000  1.0
  H  H10  1  0.86010000  0.51190000  0.89540000  1.0
  H  H11  1  0.85980000  0.48840000  0.99390000  1.0
  H  H12  1  0.75420000  0.45070000  0.07380000  1.0
  H  H13  1  0.77590000  0.24800000  0.01960000  1.0
  H  H14  1  0.87910000  0.28190000  0.94100000  1.0
  H  H15  1  0.45660000  0.53060000  0.26730000  1.0
  H  H16  1  0.66700000  0.49550000  0.39800000  1.0
  H  H17  1  0.49310000  0.67880000  0.39340000  1.0
  H  H18  1  0.68330000  0.51950000  0.49050000  1.0
  H  H19  1  0.78130000  0.55740000  0.57050000  1.0
  H  H20  1  0.71450000  0.76270000  0.52740000  1.0
  H  H21  1  0.62130000  0.72350000  0.44690000  1.0
  H  H22  1  0.92990000  0.02770000  0.26540000  1.0
  H  H23  1  0.98580000  0.17990000  0.38760000  1.0
  H  H24  1  0.13990000  0.98810000  0.39540000  1.0
  H  H25  1  0.14020000  0.01160000  0.49390000  1.0
  H  H26  1  0.24580000  0.04930000  0.57380000  1.0
  H  H27  1  0.22410000  0.25200000  0.51960000  1.0
  H  H28  1  0.12090000  0.21810000  0.44100000  1.0
  H  H29  1  0.04340000  0.03060000  0.73270000  1.0
  H  H30  1  0.83300000  0.99550000  0.60200000  1.0
  H  H31  1  0.00690000  0.17880000  0.60660000  1.0
  H  H32  1  0.81670000  0.01950000  0.50950000  1.0
  H  H33  1  0.71870000  0.05740000  0.42950000  1.0
  H  H34  1  0.78550000  0.26270000  0.47260000  1.0
  H  H35  1  0.87870000  0.22350000  0.55310000  1.0
  H  H36  1  0.57010000  0.52770000  0.73460000  1.0
  H  H37  1  0.51420000  0.67990000  0.61240000  1.0
  H  H38  1  0.36010000  0.48810000  0.60460000  1.0
  H  H39  1  0.35980000  0.51160000  0.50610000  1.0
  H  H40  1  0.25420000  0.54930000  0.42620000  1.0
  H  H41  1  0.27590000  0.75200000  0.48040000  1.0
  H  H42  1  0.37910000  0.71810000  0.55900000  1.0
  H  H43  1  0.95660000  0.46940000  0.23270000  1.0
  H  H44  1  0.16700000  0.50450000  0.10200000  1.0
  H  H45  1  0.99310000  0.32120000  0.10660000  1.0
  H  H46  1  0.18330000  0.48050000  0.00950000  1.0
  H  H47  1  0.28130000  0.44260000  0.92950000  1.0
  H  H48  1  0.21450000  0.23730000  0.97260000  1.0
  H  H49  1  0.12130000  0.27650000  0.05310000  1.0
  H  H50  1  0.42990000  0.97230000  0.23460000  1.0
  H  H51  1  0.48580000  0.82010000  0.11240000  1.0
  H  H52  1  0.63990000  0.01190000  0.10460000  1.0
  H  H53  1  0.64020000  0.98840000  0.00610000  1.0
  H  H54  1  0.74580000  0.95070000  0.92620000  1.0
  H  H55  1  0.72410000  0.74800000  0.98040000  1.0
  H  H56  1  0.62090000  0.78190000  0.05900000  1.0
  C  C1  1  0.53730000  0.88600000  0.82500000  1.0
  C  C2  1  0.51020000  0.95390000  0.80145000  1.0
  C  C3  1  0.43420000  0.99770000  0.82904000  1.0
  C  C4  1  0.38410000  0.97490000  0.87980000  1.0
  C  C5  1  0.40990000  0.90790000  0.90376000  1.0
  C  C6  1  0.48740000  0.86520000  0.87660000  1.0
  C  C7  1  0.61950000  0.83890000  0.79676000  1.0
  C  C8  1  0.40520000  0.06900000  0.80140000  1.0
  C  C9  1  0.35150000  0.88290000  0.95854000  1.0
  C  C10  1  0.30770000  0.93120000  0.99710000  1.0
  C  C11  1  0.25030000  0.90870000  0.04580000  1.0
  C  C12  1  0.24020000  0.83560000  0.05743000  1.0
  C  C13  1  0.28990000  0.78660000  0.01970000  1.0
  C  C14  1  0.34530000  0.81000000  0.97120000  1.0
  C  C15  1  0.18190000  0.80940000  0.11105000  1.0
  C  C16  1  0.96400000  0.50300000  0.82732000  1.0
  C  C17  1  0.03520000  0.45730000  0.79917000  1.0
  C  C18  1  0.05520000  0.38770000  0.82140000  1.0
  C  C19  1  0.00180000  0.36620000  0.87270000  1.0
  C  C20  1  0.93080000  0.41290000  0.90130000  1.0
  C  C21  1  0.91010000  0.48100000  0.87760000  1.0
  C  C22  1  0.93500000  0.57670000  0.80240000  1.0
  C  C23  1  0.13130000  0.33690000  0.79075000  1.0
  C  C24  1  0.87110000  0.38960000  0.95425000  1.0
  C  C25  1  0.83970000  0.44000000  0.99750000  1.0
  C  C26  1  0.77740000  0.41710000  0.04640000  1.0
  C  C27  1  0.75170000  0.34480000  0.05310000  1.0
  C  C28  1  0.79060000  0.29690000  0.01400000  1.0
  C  C29  1  0.85140000  0.31710000  0.96570000  1.0
  C  C30  1  0.68370000  0.32100000  0.10478000  1.0
  C  C31  1  0.46270000  0.61400000  0.32500000  1.0
  C  C32  1  0.48980000  0.54610000  0.30145000  1.0
  C  C33  1  0.56580000  0.50230000  0.32904000  1.0
  C  C34  1  0.61590000  0.52510000  0.37980000  1.0
  C  C35  1  0.59010000  0.59210000  0.40376000  1.0
  C  C36  1  0.51260000  0.63480000  0.37660000  1.0
  C  C37  1  0.38050000  0.66110000  0.29676000  1.0
  C  C38  1  0.59480000  0.43100000  0.30140000  1.0
  C  C39  1  0.64850000  0.61710000  0.45854000  1.0
  C  C40  1  0.69230000  0.56880000  0.49710000  1.0
  C  C41  1  0.74970000  0.59130000  0.54580000  1.0
  C  C42  1  0.75980000  0.66440000  0.55743000  1.0
  C  C43  1  0.71010000  0.71340000  0.51970000  1.0
  C  C44  1  0.65470000  0.69000000  0.47120000  1.0
  C  C45  1  0.81810000  0.69060000  0.61105000  1.0
  C  C46  1  0.03600000  0.99700000  0.32732000  1.0
  C  C47  1  0.96480000  0.04270000  0.29917000  1.0
  C  C48  1  0.94480000  0.11230000  0.32140000  1.0
  C  C49  1  0.99820000  0.13380000  0.37270000  1.0
  C  C50  1  0.06920000  0.08710000  0.40130000  1.0
  C  C51  1  0.08990000  0.01900000  0.37760000  1.0
  C  C52  1  0.06500000  0.92330000  0.30240000  1.0
  C  C53  1  0.86870000  0.16310000  0.29075000  1.0
  C  C54  1  0.12890000  0.11040000  0.45425000  1.0
  C  C55  1  0.16030000  0.06000000  0.49750000  1.0
  C  C56  1  0.22260000  0.08290000  0.54640000  1.0
  C  C57  1  0.24830000  0.15520000  0.55310000  1.0
  C  C58  1  0.20940000  0.20310000  0.51400000  1.0
  C  C59  1  0.14860000  0.18290000  0.46570000  1.0
  C  C60  1  0.31630000  0.17900000  0.60478000  1.0
  C  C61  1  0.03730000  0.11400000  0.67500000  1.0
  C  C62  1  0.01020000  0.04610000  0.69855000  1.0
  C  C63  1  0.93420000  0.00230000  0.67096000  1.0
  C  C64  1  0.88410000  0.02510000  0.62020000  1.0
  C  C65  1  0.90990000  0.09210000  0.59624000  1.0
  C  C66  1  0.98740000  0.13480000  0.62340000  1.0
  C  C67  1  0.11950000  0.16110000  0.70324000  1.0
  C  C68  1  0.90520000  0.93100000  0.69860000  1.0
  C  C69  1  0.85150000  0.11710000  0.54146000  1.0
  C  C70  1  0.80770000  0.06880000  0.50290000  1.0
  C  C71  1  0.75030000  0.09130000  0.45420000  1.0
  C  C72  1  0.74020000  0.16440000  0.44257000  1.0
  C  C73  1  0.78990000  0.21340000  0.48030000  1.0
  C  C74  1  0.84530000  0.19000000  0.52880000  1.0
  C  C75  1  0.68190000  0.19060000  0.38895000  1.0
  C  C76  1  0.46400000  0.49700000  0.67268000  1.0
  C  C77  1  0.53520000  0.54270000  0.70083000  1.0
  C  C78  1  0.55520000  0.61230000  0.67860000  1.0
  C  C79  1  0.50180000  0.63380000  0.62730000  1.0
  C  C80  1  0.43080000  0.58710000  0.59870000  1.0
  C  C81  1  0.41010000  0.51900000  0.62240000  1.0
  C  C82  1  0.43500000  0.42330000  0.69760000  1.0
  C  C83  1  0.63130000  0.66310000  0.70925000  1.0
  C  C84  1  0.37110000  0.61040000  0.54575000  1.0
  C  C85  1  0.33970000  0.56000000  0.50250000  1.0
  C  C86  1  0.27740000  0.58290000  0.45360000  1.0
  C  C87  1  0.25170000  0.65520000  0.44690000  1.0
  C  C88  1  0.29060000  0.70310000  0.48600000  1.0
  C  C89  1  0.35140000  0.68290000  0.53430000  1.0
  C  C90  1  0.18370000  0.67900000  0.39522000  1.0
  C  C91  1  0.96270000  0.38600000  0.17500000  1.0
  C  C92  1  0.98980000  0.45390000  0.19855000  1.0
  C  C93  1  0.06580000  0.49770000  0.17096000  1.0
  C  C94  1  0.11590000  0.47490000  0.12020000  1.0
  C  C95  1  0.09010000  0.40790000  0.09624000  1.0
  C  C96  1  0.01260000  0.36520000  0.12340000  1.0
  C  C97  1  0.88050000  0.33890000  0.20324000  1.0
  C  C98  1  0.09480000  0.56900000  0.19860000  1.0
  C  C99  1  0.14850000  0.38290000  0.04146000  1.0
  C  C100  1  0.19230000  0.43120000  0.00290000  1.0
  C  C101  1  0.24970000  0.40870000  0.95420000  1.0
  C  C102  1  0.25980000  0.33560000  0.94257000  1.0
  C  C103  1  0.21010000  0.28660000  0.98030000  1.0
  C  C104  1  0.15470000  0.31000000  0.02880000  1.0
  C  C105  1  0.31810000  0.30940000  0.88895000  1.0
  C  C106  1  0.53600000  0.00300000  0.17268000  1.0
  C  C107  1  0.46480000  0.95730000  0.20083000  1.0
  C  C108  1  0.44480000  0.88770000  0.17860000  1.0
  C  C109  1  0.49820000  0.86620000  0.12730000  1.0
  C  C110  1  0.56920000  0.91290000  0.09870000  1.0
  C  C111  1  0.58990000  0.98100000  0.12240000  1.0
  C  C112  1  0.56500000  0.07670000  0.19760000  1.0
  C  C113  1  0.36870000  0.83690000  0.20925000  1.0
  C  C114  1  0.62890000  0.88960000  0.04575000  1.0
  C  C115  1  0.66030000  0.94000000  0.00250000  1.0
  C  C116  1  0.72260000  0.91710000  0.95360000  1.0
  C  C117  1  0.74830000  0.84480000  0.94690000  1.0
  C  C118  1  0.70940000  0.79690000  0.98600000  1.0
  C  C119  1  0.64860000  0.81710000  0.03430000  1.0
  C  C120  1  0.81630000  0.82100000  0.89522000  1.0
  O  O1  1  0.86160000  0.75216000  0.75659000  1.0
  O  O2  1  0.63750000  0.77718000  0.81942000  1.0
  O  O3  1  0.66410000  0.86201000  0.74973000  1.0
  O  O4  1  0.45070000  0.08482000  0.75424000  1.0
  O  O5  1  0.33540000  0.10781000  0.82856000  1.0
  O  O6  1  0.14000000  0.85824000  0.14342000  1.0
  O  O7  1  0.17560000  0.74310000  0.12069000  1.0
  O  O8  1  0.87320000  0.61573000  0.83055000  1.0
  O  O9  1  0.98130000  0.59197000  0.75460000  1.0
  O  O10  1  0.13900000  0.27390000  0.81270000  1.0
  O  O11  1  0.18240000  0.36098000  0.74763000  1.0
  O  O12  1  0.65260000  0.37126000  0.13847000  1.0
  O  O13  1  0.66530000  0.25647000  0.11236000  1.0
  O  O14  1  0.13840000  0.74784000  0.25659000  1.0
  O  O15  1  0.36250000  0.72282000  0.31942000  1.0
  O  O16  1  0.33590000  0.63799000  0.24973000  1.0
  O  O17  1  0.54930000  0.41518000  0.25424000  1.0
  O  O18  1  0.66460000  0.39219000  0.32856000  1.0
  O  O19  1  0.86000000  0.64176000  0.64342000  1.0
  O  O20  1  0.82440000  0.75690000  0.62069000  1.0
  O  O21  1  0.12680000  0.88427000  0.33055000  1.0
  O  O22  1  0.01870000  0.90803000  0.25460000  1.0
  O  O23  1  0.86100000  0.22610000  0.31270000  1.0
  O  O24  1  0.81760000  0.13902000  0.24763000  1.0
  O  O25  1  0.34740000  0.12874000  0.63847000  1.0
  O  O26  1  0.33470000  0.24353000  0.61236000  1.0
  O  O27  1  0.36160000  0.24784000  0.74341000  1.0
  O  O28  1  0.13750000  0.22282000  0.68058000  1.0
  O  O29  1  0.16410000  0.13799000  0.75027000  1.0
  O  O30  1  0.95070000  0.91518000  0.74576000  1.0
  O  O31  1  0.83540000  0.89219000  0.67144000  1.0
  O  O32  1  0.64000000  0.14176000  0.35658000  1.0
  O  O33  1  0.67560000  0.25690000  0.37931000  1.0
  O  O34  1  0.37320000  0.38427000  0.66945000  1.0
  O  O35  1  0.48130000  0.40803000  0.74540000  1.0
  O  O36  1  0.63900000  0.72610000  0.68730000  1.0
  O  O37  1  0.68240000  0.63902000  0.75237000  1.0
  O  O38  1  0.15260000  0.62874000  0.36153000  1.0
  O  O39  1  0.16530000  0.74353000  0.38764000  1.0
  O  O40  1  0.63840000  0.25216000  0.24341000  1.0
  O  O41  1  0.86250000  0.27718000  0.18058000  1.0
  O  O42  1  0.83590000  0.36201000  0.25027000  1.0
  O  O43  1  0.04930000  0.58482000  0.24576000  1.0
  O  O44  1  0.16460000  0.60781000  0.17144000  1.0
  O  O45  1  0.36000000  0.35824000  0.85658000  1.0
  O  O46  1  0.32440000  0.24310000  0.87931000  1.0
  O  O47  1  0.62680000  0.11573000  0.16945000  1.0
  O  O48  1  0.51870000  0.09197000  0.24540000  1.0
  O  O49  1  0.36100000  0.77390000  0.18730000  1.0
  O  O50  1  0.31760000  0.86098000  0.25237000  1.0
  O  O51  1  0.84740000  0.87126000  0.86153000  1.0
  O  O52  1  0.83470000  0.75647000  0.88764000  1.0
