# generated using pymatgen
data_H5C9(NO)2
_symmetry_space_group_name_H-M   'P 1'
_cell_length_a   9.98180000
_cell_length_b   29.52740000
_cell_length_c   29.52740000
_cell_angle_alpha   120.00000000
_cell_angle_beta   90.00000000
_cell_angle_gamma   90.00000000
_symmetry_Int_Tables_number   1
_chemical_formula_structural   H5C9(NO)2
_chemical_formula_sum   'H30 C54 N12 O12'
_cell_volume   7536.85066609
_cell_formula_units_Z   6
loop_
 _symmetry_equiv_pos_site_id
 _symmetry_equiv_pos_as_xyz
  1  'x, y, z'
loop_
 _atom_site_type_symbol
 _atom_site_label
 _atom_site_symmetry_multiplicity
 _atom_site_fract_x
 _atom_site_fract_y
 _atom_site_fract_z
 _atom_site_occupancy
  C  1  1  0.01660000  0.62958800  0.27780200  1
  C  2  1  0.01686400  0.61126100  0.31386700  1
  C  3  1  0.01660100  0.64594000  0.36859600  1
  C  4  1  0.01683300  0.70032900  0.38692200  1
  C  5  1  0.01656000  0.72038100  0.35224500  1
  C  6  1  0.01683100  0.68431800  0.29785300  1
  C  10  1  0.01668100  0.62820500  0.40436600  1
  C  11  1  0.01660100  0.77388600  0.36997900  1
  C  12  1  0.01667700  0.59381800  0.22429700  1
  C  16  1  0.00387700  0.36823700  0.72091500  1
  C  17  1  0.00423000  0.38597600  0.68443300  1
  C  18  1  0.00388700  0.35040900  0.62995500  1
  C  19  1  0.00424800  0.29618400  0.61221300  1
  C  20  1  0.00377800  0.27726400  0.64777600  1
  C  21  1  0.00424900  0.31375600  0.70199900  1
  C  25  1  0.01659000  0.36775500  0.59438200  1
  C  26  1  0.01651200  0.22434800  0.63042500  1
  C  27  1  0.01659600  0.40379200  0.77384000  1
  C  31  1  0.97465000  0.57652500  0.13839700  1
  C  32  1  0.89378600  0.53099000  0.11319700  1
  C  33  1  0.88896000  0.50229200  0.05784400  1
  C  34  1  0.96043000  0.51858400  0.02711900  1
  C  35  1  0.03896200  0.56444600  0.05307200  1
  C  36  1  0.04496800  0.59327300  0.10797900  1
  C  39  1  0.95482000  0.48921200  0.97140100  1
  C  40  1  0.83158400  0.47678500  0.94348000  1
  C  41  1  0.83266600  0.44623800  0.88812800  1
  C  42  1  0.95364500  0.42889000  0.86004200  1
  C  43  1  0.07537700  0.44132400  0.88800900  1
  C  44  1  0.07586000  0.47119400  0.94287500  1
  C  57  1  0.97464400  0.55959400  0.42165500  1
  C  58  1  0.89376800  0.57992700  0.46718800  1
  C  59  1  0.88894800  0.55327500  0.49588700  1
  C  60  1  0.96040900  0.50625800  0.47959200  1
  C  61  1  0.03895100  0.48635000  0.43373300  1
  C  62  1  0.04495200  0.51242700  0.40490500  1
  C  65  1  0.95480900  0.47990800  0.50896300  1
  C  66  1  0.83157300  0.46441200  0.52139100  1
  C  67  1  0.83266200  0.43960600  0.55193500  1
  C  68  1  0.95364600  0.42883300  0.56925100  1
  C  69  1  0.07537700  0.44436800  0.55681700  1
  C  70  1  0.07584100  0.46941900  0.52699700  1
  C  83  1  0.97447600  0.85977800  0.43861000  1
  C  84  1  0.89368700  0.88497800  0.41825100  1
  C  85  1  0.88889900  0.94032900  0.44489500  1
  C  86  1  0.96037900  0.97105700  0.49190600  1
  C  87  1  0.03893400  0.94510600  0.51181100  1
  C  88  1  0.04488300  0.89020100  0.48575100  1
  C  91  1  0.95477700  0.02677600  0.51824900  1
  C  92  1  0.83153400  0.05469700  0.53375400  1
  C  93  1  0.83260700  0.11004700  0.55854600  1
  C  94  1  0.95359500  0.13814000  0.56933900  1
  C  95  1  0.07531900  0.11017200  0.55378700  1
  C  96  1  0.07581000  0.05530200  0.52876700  1
  H  7  1  0.01727300  0.72590600  0.42644800  1
  H  8  1  0.01726200  0.69826700  0.27227700  1
  H  9  1  0.01732300  0.57173500  0.29991700  1
  H  13  1  0.04302100  0.55692300  0.21209800  1
  H  14  1  0.04293800  0.78609300  0.34529000  1
  H  15  1  0.04302900  0.65290100  0.44125900  1
  H  22  1  0.00911800  0.27010000  0.57282500  1
  H  23  1  0.00912800  0.30044900  0.72808100  1
  H  24  1  0.00919000  0.42536300  0.69773500  1
  H  28  1  0.07953500  0.43372400  0.78502300  1
  H  29  1  0.07943600  0.21317300  0.64918600  1
  H  30  1  0.07950500  0.34899200  0.56444400  1
  H  37  1  0.09108100  0.57772300  0.03214300  1
  H  38  1  0.10198800  0.62655700  0.12565200  1
  H  45  1  0.74382600  0.43725500  0.86812100  1
  H  46  1  0.16439200  0.42801800  0.86857500  1
  H  47  1  0.16595800  0.47875900  0.96192600  1
  H  48  1  0.83234500  0.46893900  0.03993000  1
  H  63  1  0.09107600  0.45214600  0.42045800  1
  H  64  1  0.10199600  0.49682400  0.37162600  1
  H  71  1  0.74382500  0.42858600  0.56092300  1
  H  72  1  0.16438900  0.43826700  0.57014600  1
  H  73  1  0.16594400  0.48088400  0.51941400  1
  H  74  1  0.83232700  0.56871400  0.52924000  1
  H  89  1  0.09106800  0.96603800  0.54601200  1
  H  90  1  0.10193500  0.87252900  0.50135400  1
  H  97  1  0.74377500  0.13005400  0.56960200  1
  H  98  1  0.16433100  0.12960800  0.55990700  1
  H  99  1  0.16591200  0.03625700  0.51726900  1
  H  100  1  0.83230400  0.95824200  0.42944600  1
  N  49  1  0.70964200  0.49636100  0.97102600  1
  N  50  1  0.81747800  0.51585000  0.14381100  1
  N  55  1  0.94924800  0.39899500  0.80833700  1
  N  56  1  0.98207700  0.60643700  0.19007500  1
  N  75  1  0.70962200  0.47239300  0.50182800  1
  N  76  1  0.81747900  0.62569100  0.48233600  1
  N  81  1  0.94925700  0.40705000  0.59916900  1
  N  82  1  0.98206900  0.58136500  0.39174400  1
  N  101  1  0.70959300  0.02714900  0.52577400  1
  N  102  1  0.81739700  0.85436200  0.37249000  1
  N  107  1  0.94918800  0.18984100  0.59112800  1
  N  108  1  0.98196700  0.80810000  0.41682100  1
  O  51  1  0.63032900  0.46003400  0.96302000  1
  O  52  1  0.84930700  0.47088900  0.13471000  1
  O  53  1  0.65250700  0.52639800  0.95844900  1
  O  54  1  0.69420300  0.51633800  0.13543000  1
  O  77  1  0.63032900  0.50071500  0.53816400  1
  O  78  1  0.84933100  0.66154700  0.52729600  1
  O  79  1  0.65246400  0.42978500  0.47179100  1
  O  80  1  0.69420300  0.61683000  0.48185200  1
  O  103  1  0.63028800  0.03515900  0.49745100  1
  O  104  1  0.84929500  0.86345000  0.33662500  1
  O  105  1  0.65244300  0.03972200  0.56838500  1
  O  106  1  0.69412300  0.86275800  0.38134300  1
