# generated using pymatgen
data_H13C20N2O
_symmetry_space_group_name_H-M   'P 1'
_cell_length_a   9.94180000
_cell_length_b   31.65380000
_cell_length_c   31.65380000
_cell_angle_alpha   120.00000000
_cell_angle_beta   90.00000000
_cell_angle_gamma   90.00000000
_symmetry_Int_Tables_number   1
_chemical_formula_structural   H13C20N2O
_chemical_formula_sum   'H78 C120 N12 O6'
_cell_volume   8626.75296628
_cell_formula_units_Z   6
loop_
 _symmetry_equiv_pos_site_id
 _symmetry_equiv_pos_as_xyz
  1  'x, y, z'
loop_
 _atom_site_type_symbol
 _atom_site_label
 _atom_site_symmetry_multiplicity
 _atom_site_fract_x
 _atom_site_fract_y
 _atom_site_fract_z
 _atom_site_occupancy
  C  1  1  0.99646500  0.96876800  0.48582100  1
  C  10  1  0.02045100  0.94095400  0.50977100  1
  C  11  1  0.96985200  0.94062300  0.43461400  1
  C  19  1  0.99639700  0.02244200  0.51125700  1
  C  20  1  0.96982200  0.05057400  0.56246600  1
  C  21  1  0.97461000  0.10203000  0.58890800  1
  C  22  1  0.98846200  0.12707300  0.56303000  1
  C  23  1  0.00711800  0.10183900  0.51222400  1
  C  24  1  0.02028000  0.05026500  0.48731300  1
  C  27  1  0.00733000  0.88938300  0.48487300  1
  C  28  1  0.98868200  0.86413500  0.43406500  1
  C  29  1  0.97490200  0.88917000  0.40817500  1
  C  33  1  0.99658200  0.48152000  0.97169200  1
  C  34  1  0.97005900  0.50461000  0.94356900  1
  C  35  1  0.97504300  0.47961900  0.89211600  1
  C  36  1  0.98865300  0.42869100  0.86705900  1
  C  37  1  0.00728900  0.40310900  0.89228100  1
  C  38  1  0.02049100  0.42975100  0.94385000  1
  C  41  1  0.99652200  0.50974000  0.02536700  1
  C  42  1  0.02036700  0.56151100  0.05321100  1
  C  43  1  0.00714400  0.58815600  0.10477900  1
  C  44  1  0.98851100  0.56257000  0.13000100  1
  C  45  1  0.97487100  0.51164500  0.10493900  1
  C  46  1  0.96995300  0.48664800  0.05348800  1
  C  53  1  0.99638400  0.48286600  0.51264900  1
  C  54  1  0.96988200  0.43164700  0.48955600  1
  C  55  1  0.97474200  0.40519400  0.51455700  1
  C  56  1  0.98843200  0.43106300  0.56548100  1
  C  57  1  0.00702800  0.48187100  0.59106200  1
  C  58  1  0.02017800  0.50680000  0.56442000  1
  C  61  1  0.99642600  0.50831300  0.48442200  1
  C  62  1  0.02040600  0.48436800  0.43265800  1
  C  63  1  0.00728000  0.50926900  0.40598800  1
  C  64  1  0.98864000  0.56007700  0.43154900  1
  C  65  1  0.97477000  0.58596300  0.48246700  1
  C  66  1  0.96984100  0.55952200  0.50748400  1
  C  73  1  0.00696900  0.64009400  0.13381900  1
  C  74  1  0.12442100  0.66705800  0.15783200  1
  C  76  1  0.99056200  0.73483300  0.21609700  1
  C  77  1  0.87042900  0.70985800  0.19279600  1
  C  78  1  0.88051300  0.66290100  0.15124500  1
  C  80  1  0.98392900  0.77935100  0.26091800  1
  C  81  1  0.97633100  0.86075200  0.35631900  1
  C  83  1  0.09995400  0.84159600  0.33126100  1
  C  84  1  0.85550900  0.83907100  0.33122700  1
  C  85  1  0.85759900  0.79850300  0.28334200  1
  C  86  1  0.73855400  0.77426200  0.25894800  1
  C  87  1  0.74486400  0.73054000  0.21389000  1
  C  91  1  0.26353600  0.64804400  0.14580700  1
  C  95  1  0.23351600  0.86043100  0.35355000  1
  C  99  1  0.00745100  0.48631200  0.35404900  1
  C  100  1  0.12473300  0.48347100  0.32706200  1
  C  102  1  0.99084900  0.47395900  0.25931200  1
  C  103  1  0.87075600  0.47570400  0.28433400  1
  C  104  1  0.88094600  0.48109800  0.33128500  1
  C  106  1  0.98415500  0.47422900  0.21477800  1
  C  107  1  0.97646200  0.48818200  0.13332800  1
  C  109  1  0.10005900  0.48228100  0.15249900  1
  C  110  1  0.85565900  0.48474100  0.15501700  1
  C  111  1  0.85781000  0.47753500  0.19565700  1
  C  112  1  0.73879700  0.47746500  0.21995500  1
  C  113  1  0.74516400  0.47616900  0.26369600  1
  C  117  1  0.26385300  0.49037900  0.34605600  1
  C  121  1  0.23358200  0.48571000  0.13362100  1
  C  125  1  0.00746500  0.86040000  0.50782900  1
  C  126  1  0.12474200  0.83629200  0.51074100  1
  C  128  1  0.99087000  0.77801700  0.52021900  1
  C  129  1  0.87077500  0.80127200  0.51842700  1
  C  130  1  0.88097500  0.84279100  0.51296900  1
  C  132  1  0.98419500  0.73320000  0.51992100  1
  C  133  1  0.97657300  0.63782600  0.50591700  1
  C  135  1  0.10018000  0.66288200  0.51189400  1
  C  136  1  0.85567900  0.66286600  0.50926600  1
  C  137  1  0.85784500  0.71074000  0.51653900  1
  C  138  1  0.73881800  0.73512500  0.51665100  1
  C  139  1  0.74517500  0.78018400  0.51799000  1
  C  143  1  0.26386300  0.84833200  0.50378300  1
  C  147  1  0.23367600  0.64055800  0.50844400  1
  C  151  1  0.00699800  0.35117800  0.86324800  1
  C  152  1  0.12443200  0.32416500  0.83925900  1
  C  154  1  0.99064300  0.25635700  0.78101600  1
  C  155  1  0.87050400  0.28136100  0.80429100  1
  C  156  1  0.88058700  0.32832400  0.84584100  1
  C  158  1  0.98403000  0.21184300  0.73618800  1
  C  159  1  0.97648200  0.13042500  0.64075500  1
  C  161  1  0.10001900  0.14959900  0.66585300  1
  C  162  1  0.85564900  0.15213700  0.66586300  1
  C  163  1  0.85771900  0.19272600  0.71373700  1
  C  164  1  0.73865200  0.21697600  0.73810800  1
  C  165  1  0.74495200  0.26069300  0.78316300  1
  C  169  1  0.26356600  0.34316600  0.85127500  1
  C  173  1  0.23354500  0.13076600  0.64353700  1
  C  177  1  0.00678700  0.50476500  0.64299000  1
  C  178  1  0.12426100  0.50777000  0.66997900  1
  C  180  1  0.99053200  0.51732700  0.73779500  1
  C  181  1  0.87036800  0.51562600  0.71282600  1
  C  182  1  0.88040300  0.51017700  0.66585100  1
  C  184  1  0.98397500  0.51705100  0.78232600  1
  C  185  1  0.97654200  0.50307900  0.86371500  1
  C  187  1  0.10014500  0.50897900  0.84456400  1
  C  188  1  0.85562800  0.50648300  0.84208100  1
  C  189  1  0.85766900  0.51378000  0.80149900  1
  C  190  1  0.73858500  0.51391900  0.77726900  1
  C  191  1  0.74483400  0.51522400  0.73353000  1
  C  195  1  0.26337900  0.50079600  0.65096500  1
  C  199  1  0.23371600  0.50550300  0.86337800  1
  C  203  1  0.00720800  0.13084700  0.48928700  1
  C  204  1  0.12460100  0.15491900  0.48640700  1
  C  206  1  0.99077500  0.21317300  0.47688000  1
  C  207  1  0.87063400  0.18991100  0.47862100  1
  C  208  1  0.88072300  0.14835600  0.48402300  1
  C  210  1  0.98414600  0.25797600  0.47714500  1
  C  211  1  0.97659700  0.35332900  0.49109400  1
  C  213  1  0.10020000  0.32829300  0.48519600  1
  C  214  1  0.85566800  0.32826700  0.48765300  1
  C  215  1  0.85781100  0.28042000  0.48044900  1
  C  216  1  0.73876700  0.25606300  0.48037200  1
  C  217  1  0.74507400  0.21102700  0.47907700  1
  C  221  1  0.26370100  0.14280500  0.49330100  1
  C  225  1  0.23369600  0.35062100  0.48865300  1
  H  3  1  0.15685500  0.97088000  0.55740800  1
  H  12  1  0.94546600  0.95705300  0.41505000  1
  H  25  1  0.94557600  0.03413500  0.58203100  1
  H  26  1  0.98680100  0.16455100  0.58172800  1
  H  30  1  0.98694300  0.82666000  0.41537600  1
  H  32  1  0.15657700  0.02035400  0.43962900  1
  H  39  1  0.94573300  0.54061100  0.96001400  1
  H  40  1  0.98684100  0.40992100  0.82958300  1
  H  47  1  0.98671200  0.58133800  0.16747900  1
  H  48  1  0.94567700  0.45064400  0.03704000  1
  H  51  1  0.15664900  0.41192300  0.97375800  1
  H  52  1  0.15669400  0.57930800  0.02333000  1
  H  59  1  0.94565300  0.41208100  0.45354600  1
  H  60  1  0.98672100  0.41235600  0.58425200  1
  H  67  1  0.98695100  0.57876700  0.41276100  1
  H  68  1  0.94552100  0.57909200  0.54348400  1
  H  71  1  0.15637200  0.55452600  0.58225400  1
  H  72  1  0.15685500  0.43674600  0.41494900  1
  H  79  1  0.79422900  0.64319000  0.13648800  1
  H  88  1  0.64658600  0.78711900  0.27471200  1
  H  89  1  0.65729200  0.71258000  0.19805000  1
  H  90  1  0.76568500  0.85051300  0.34936700  1
  H  92  1  0.26870600  0.61165100  0.11383500  1
  H  93  1  0.30708400  0.64653100  0.17667700  1
  H  94  1  0.32425500  0.67241300  0.13851200  1
  H  96  1  0.31477000  0.84137900  0.32767700  1
  H  97  1  0.24809600  0.85562300  0.38505400  1
  H  98  1  0.24065300  0.89916100  0.36527500  1
  H  105  1  0.79465800  0.48604500  0.35099100  1
  H  114  1  0.64681700  0.48038400  0.20711500  1
  H  115  1  0.65761600  0.47833100  0.28169000  1
  H  116  1  0.76586400  0.49160400  0.14370600  1
  H  118  1  0.26899200  0.49476300  0.38243600  1
  H  119  1  0.30751600  0.52275900  0.34759700  1
  H  120  1  0.32447700  0.45869800  0.32166000  1
  H  122  1  0.31488100  0.47890400  0.15266700  1
  H  123  1  0.24815100  0.52200900  0.13839500  1
  H  124  1  0.24065700  0.45868100  0.09489700  1
  H  131  1  0.79463300  0.85756000  0.50806800  1
  H  140  1  0.64687100  0.71928500  0.51355700  1
  H  141  1  0.65765600  0.79591500  0.51563800  1
  H  142  1  0.76585500  0.64471200  0.50245400  1
  H  144  1  0.26903300  0.88032100  0.49938400  1
  H  145  1  0.30743700  0.81747700  0.47139600  1
  H  146  1  0.32455500  0.85561100  0.53544800  1
  H  148  1  0.31498600  0.66641600  0.51528200  1
  H  149  1  0.24824100  0.60905700  0.47212800  1
  H  150  1  0.24071800  0.62881900  0.53544300  1
  H  157  1  0.79426000  0.34804800  0.86047600  1
  H  166  1  0.64671300  0.20415200  0.72229600  1
  H  167  1  0.65739900  0.27870100  0.79896400  1
  H  168  1  0.76580400  0.14077700  0.64772200  1
  H  170  1  0.26876100  0.37957600  0.88322300  1
  H  171  1  0.30714500  0.34463900  0.82039100  1
  H  172  1  0.32424400  0.31881600  0.85861000  1
  H  174  1  0.31484000  0.14981400  0.66939200  1
  H  175  1  0.24804200  0.13557200  0.61202800  1
  H  176  1  0.24069700  0.09203200  0.63180400  1
  H  183  1  0.79408900  0.50520500  0.64615200  1
  H  192  1  0.64664200  0.51101500  0.79014300  1
  H  193  1  0.65723400  0.51308600  0.71557400  1
  H  194  1  0.76583500  0.49978700  0.85354200  1
  H  196  1  0.26853000  0.49634300  0.61455800  1
  H  197  1  0.30698500  0.46843700  0.64948200  1
  H  198  1  0.32405700  0.53247900  0.67531400  1
  H  200  1  0.31495900  0.51231000  0.84431000  1
  H  201  1  0.24826100  0.46919200  0.85857200  1
  H  202  1  0.24090400  0.53251200  0.90210600  1
  H  209  1  0.79442100  0.13360900  0.48898200  1
  H  218  1  0.64680300  0.27183300  0.48328600  1
  H  219  1  0.65750400  0.19520800  0.48123600  1
  H  220  1  0.76589400  0.34645800  0.49450900  1
  H  222  1  0.26879100  0.11082400  0.49770900  1
  H  223  1  0.30742700  0.17364500  0.52566400  1
  H  224  1  0.32430400  0.13548600  0.46160500  1
  H  226  1  0.31500600  0.32477400  0.48186000  1
  H  227  1  0.24819300  0.38214700  0.52495400  1
  H  228  1  0.24079700  0.36231600  0.46162300  1
  N  75  1  0.11032800  0.71251400  0.19737800  1
  N  82  1  0.09767500  0.80200700  0.28556900  1
  N  101  1  0.11063600  0.47755000  0.28160600  1
  N  108  1  0.09785800  0.47618900  0.19208900  1
  N  127  1  0.11064000  0.79674300  0.51664100  1
  N  134  1  0.09792700  0.70857000  0.51799200  1
  N  153  1  0.11038000  0.27869200  0.79974300  1
  N  160  1  0.09776600  0.18917900  0.71154700  1
  N  179  1  0.11025800  0.51372000  0.71545300  1
  N  186  1  0.09777500  0.51506500  0.80496600  1
  N  205  1  0.11053900  0.19444600  0.48046800  1
  N  212  1  0.09790700  0.28260900  0.47910700  1
  O  2  1  0.06246600  0.96132400  0.55690900  1
  O  31  1  0.06217000  0.02990700  0.44016100  1
  O  49  1  0.06224500  0.40292300  0.96418500  1
  O  50  1  0.06229000  0.58833300  0.03288400  1
  O  69  1  0.06195300  0.55396300  0.59124500  1
  O  70  1  0.06247000  0.43723400  0.40588300  1
