# generated using pymatgen
data_H2C7N2O
_symmetry_space_group_name_H-M   'P 1'
_cell_length_a   9.84366667
_cell_length_b   45.76795000
_cell_length_c   45.76800000
_cell_angle_alpha   120.00010842
_cell_angle_beta   90.00000000
_cell_angle_gamma   90.00000000
_symmetry_Int_Tables_number   1
_chemical_formula_structural   H2C7N2O
_chemical_formula_sum   'H36 C126 N36 O18'
_cell_volume   17857.08028447
_cell_formula_units_Z   18
loop_
 _symmetry_equiv_pos_site_id
 _symmetry_equiv_pos_as_xyz
  1  'x, y, z'
loop_
 _atom_site_type_symbol
 _atom_site_label
 _atom_site_symmetry_multiplicity
 _atom_site_fract_x
 _atom_site_fract_y
 _atom_site_fract_z
 _atom_site_occupancy
  C  1  1  0.97801800  0.81154000  0.43359300  1
  C  3  1  0.97868900  0.86322800  0.43359100  1
  C  5  1  0.97820400  0.81152900  0.38190900  1
  C  7  1  0.98193300  0.89887500  0.45141300  1
  C  8  1  0.86146000  0.91815700  0.46108800  1
  C  10  1  0.98602600  0.97021600  0.48709500  1
  C  11  1  0.11101500  0.95215600  0.47803600  1
  C  12  1  0.10679400  0.91640200  0.46015200  1
  C  15  1  0.23475400  0.97031100  0.48709600  1
  C  17  1  0.97249200  0.79120200  0.34653800  1
  C  18  1  0.09217700  0.77610100  0.32820200  1
  C  20  1  0.96592500  0.73333700  0.28169200  1
  C  21  1  0.84144900  0.74762100  0.29863300  1
  C  22  1  0.84699400  0.77659900  0.33117800  1
  C  25  1  0.71769900  0.73122200  0.28368900  1
  C  27  1  0.96567600  0.73333900  0.45561600  1
  C  28  1  0.09169900  0.77608500  0.45179800  1
  C  29  1  0.97191900  0.79122600  0.44864000  1
  C  30  1  0.84652800  0.77666500  0.44953200  1
  C  32  1  0.84114400  0.74764200  0.45302800  1
  C  33  1  0.71743500  0.73124200  0.45161100  1
  C  109  1  0.96591900  0.70243400  0.25076900  1
  C  111  1  0.84142900  0.68549800  0.23647700  1
  C  112  1  0.71769400  0.70043600  0.25289100  1
  C  115  1  0.96577800  0.70242100  0.45560600  1
  C  116  1  0.84133600  0.68549700  0.45301300  1
  C  117  1  0.71752600  0.70044700  0.45160600  1
  C  139  1  0.09221100  0.65593500  0.20798300  1
  C  140  1  0.97243700  0.63761800  0.19293600  1
  C  141  1  0.84687900  0.65298000  0.20745600  1
  C  144  1  0.97244700  0.63755700  0.44863400  1
  C  145  1  0.09208300  0.65589700  0.45179800  1
  C  146  1  0.84696900  0.65295500  0.44945200  1
  C  169  1  0.97833000  0.60224100  0.17261400  1
  C  171  1  0.97872000  0.55055100  0.12092100  1
  C  173  1  0.97795800  0.55056500  0.17261800  1
  C  175  1  0.97772100  0.55052300  0.38189700  1
  C  177  1  0.97872300  0.55049900  0.43357600  1
  C  179  1  0.97830900  0.60219300  0.43358200  1
  C  181  1  0.97810200  0.16466400  0.55847100  1
  C  183  1  0.97882100  0.11297800  0.55847500  1
  C  185  1  0.97779900  0.16467700  0.61015400  1
  C  187  1  0.97829600  0.37396000  0.81947500  1
  C  189  1  0.97875000  0.42565100  0.87116600  1
  C  191  1  0.97831600  0.42563300  0.81946500  1
  C  193  1  0.97837000  0.42567600  0.61019700  1
  C  195  1  0.97886400  0.42568200  0.55851000  1
  C  197  1  0.97803600  0.37400000  0.55852200  1
  C  199  1  0.98605600  0.00598800  0.50498400  1
  C  200  1  0.86155300  0.05805700  0.53104900  1
  C  201  1  0.98204400  0.07733000  0.54065700  1
  C  202  1  0.10688600  0.05979300  0.53186200  1
  C  204  1  0.11106200  0.02404000  0.51398600  1
  C  205  1  0.23477600  0.00587300  0.50488200  1
  C  209  1  0.98193300  0.53272500  0.08527300  1
  C  210  1  0.86145000  0.52306600  0.06599700  1
  C  212  1  0.98597700  0.49704400  0.01393000  1
  C  213  1  0.11097900  0.50608700  0.03198500  1
  C  214  1  0.10677900  0.52397200  0.06774000  1
  C  216  1  0.98598400  0.47915300  0.97815600  1
  C  217  1  0.86146100  0.45310400  0.92608800  1
  C  218  1  0.98195400  0.44347700  0.90681400  1
  C  219  1  0.10679400  0.45225700  0.92434800  1
  C  222  1  0.11098200  0.47013500  0.96010100  1
  C  223  1  0.23470800  0.47922800  0.97826400  1
  C  224  1  0.23470400  0.49701300  0.01382600  1
  C  229  1  0.98197300  0.53267100  0.45139400  1
  C  230  1  0.86149700  0.52298900  0.46099300  1
  C  232  1  0.98605700  0.49701500  0.48708000  1
  C  233  1  0.11104200  0.50607900  0.47808500  1
  C  234  1  0.10682700  0.52395300  0.46020300  1
  C  236  1  0.98607600  0.47914200  0.50498100  1
  C  237  1  0.86157300  0.45308500  0.53099300  1
  C  238  1  0.98206500  0.44350200  0.54068200  1
  C  239  1  0.10690600  0.45230100  0.53194400  1
  C  242  1  0.11108200  0.47016000  0.51404900  1
  C  243  1  0.23480100  0.47926600  0.50499100  1
  C  244  1  0.23478300  0.49703700  0.48719800  1
  C  249  1  0.97170300  0.53552100  0.19293800  1
  C  250  1  0.09152500  0.53237000  0.20807100  1
  C  252  1  0.96527400  0.52853300  0.25079000  1
  C  253  1  0.84076600  0.53102200  0.23641500  1
  C  254  1  0.84623300  0.53455300  0.20741500  1
  C  256  1  0.96527300  0.52852300  0.28169800  1
  C  257  1  0.09141500  0.53239800  0.32827900  1
  C  258  1  0.97157100  0.53548800  0.34653200  1
  C  259  1  0.84614200  0.53452500  0.33107500  1
  C  262  1  0.84072600  0.53100300  0.29854600  1
  C  263  1  0.71696700  0.53233300  0.28353300  1
  C  264  1  0.71698300  0.53233700  0.25274200  1
  C  269  1  0.97174500  0.18500500  0.64552900  1
  C  270  1  0.09164800  0.20003400  0.66380700  1
  C  272  1  0.96553700  0.24283100  0.71034300  1
  C  273  1  0.84096300  0.22853300  0.69346700  1
  C  274  1  0.84628500  0.19953100  0.66093500  1
  C  276  1  0.96567600  0.27374200  0.74126200  1
  C  277  1  0.09203200  0.32024700  0.78399000  1
  C  278  1  0.97239600  0.33859400  0.79915800  1
  C  279  1  0.84688400  0.32319200  0.78460900  1
  C  282  1  0.84124600  0.29066500  0.75560900  1
  C  283  1  0.71742000  0.27572500  0.73925600  1
  C  284  1  0.71727700  0.24493100  0.70846200  1
  C  289  1  0.97256800  0.44067800  0.79913800  1
  C  290  1  0.09224100  0.44392300  0.78404100  1
  C  292  1  0.96596600  0.44767000  0.74128000  1
  C  293  1  0.84149900  0.44499900  0.75555900  1
  C  294  1  0.84706500  0.44142500  0.78453300  1
  C  296  1  0.96594400  0.44770200  0.71038400  1
  C  297  1  0.09223600  0.44405200  0.66390800  1
  C  298  1  0.97245600  0.44073200  0.64557400  1
  C  299  1  0.84689300  0.44155800  0.66093000  1
  C  302  1  0.84144900  0.44505000  0.69344500  1
  C  303  1  0.71772400  0.44356000  0.70837900  1
  C  304  1  0.71774500  0.44353700  0.73916100  1
  C  309  1  0.97178600  0.33863400  0.54347200  1
  C  310  1  0.09165700  0.32034200  0.54025200  1
  C  312  1  0.96556800  0.27378900  0.53646800  1
  C  313  1  0.84101200  0.29065900  0.53902300  1
  C  314  1  0.84637600  0.32319300  0.54256100  1
  C  316  1  0.96568900  0.24287100  0.53645600  1
  C  317  1  0.09199200  0.20014900  0.54026000  1
  C  318  1  0.97233000  0.18497200  0.54341200  1
  C  319  1  0.84683400  0.19951200  0.54253200  1
  C  322  1  0.84123500  0.22851200  0.53900300  1
  C  323  1  0.71741900  0.24486000  0.54039300  1
  C  324  1  0.71730300  0.27565400  0.54039700  1
  H  13  1  0.19537800  0.90287500  0.45336900  1
  H  14  1  0.76841500  0.90671700  0.45538700  1
  H  23  1  0.75947800  0.78573600  0.34490200  1
  H  24  1  0.18569900  0.78427000  0.33894000  1
  H  34  1  0.75900900  0.78573900  0.44488100  1
  H  35  1  0.18519900  0.78423000  0.44917500  1
  H  142  1  0.75943200  0.63921400  0.19838700  1
  H  143  1  0.18571800  0.64516500  0.19987000  1
  H  147  1  0.75945100  0.63924200  0.44490500  1
  H  148  1  0.18562600  0.64515500  0.44918500  1
  H  206  1  0.19548600  0.07331500  0.53860200  1
  H  207  1  0.76851800  0.06950400  0.53679400  1
  H  215  1  0.19536900  0.53074400  0.08126400  1
  H  220  1  0.76841100  0.52877700  0.07744000  1
  H  225  1  0.19538900  0.44550200  0.91082700  1
  H  226  1  0.76842800  0.44737500  0.91464500  1
  H  235  1  0.19541000  0.53074400  0.45346900  1
  H  240  1  0.76845300  0.52867900  0.45524400  1
  H  245  1  0.19550100  0.44557300  0.53873700  1
  H  246  1  0.76854000  0.44733600  0.53669000  1
  H  255  1  0.75874100  0.53911800  0.19825800  1
  H  260  1  0.18500600  0.53518000  0.20005500  1
  H  265  1  0.75861600  0.53907400  0.34478200  1
  H  266  1  0.18486400  0.53512600  0.33910100  1
  H  275  1  0.75879100  0.19042200  0.64719900  1
  H  280  1  0.18509800  0.19196200  0.65298300  1
  H  285  1  0.75943200  0.33693700  0.79375400  1
  H  286  1  0.18554500  0.33101600  0.79209000  1
  H  295  1  0.75955800  0.43683100  0.79366900  1
  H  300  1  0.18576900  0.44136000  0.79221100  1
  H  305  1  0.75945700  0.43684200  0.64715700  1
  H  306  1  0.18572800  0.44133700  0.65311500  1
  H  315  1  0.75887200  0.33692100  0.54717400  1
  H  320  1  0.18512000  0.33116300  0.54301700  1
  H  325  1  0.75935100  0.19036100  0.54711100  1
  H  326  1  0.18548400  0.19205400  0.54295300  1
  N  2  1  0.97822500  0.84587700  0.45068500  1
  N  4  1  0.97851000  0.84586700  0.39914400  1
  N  6  1  0.97695600  0.79496600  0.39946900  1
  N  9  1  0.86762700  0.95242500  0.47822500  1
  N  19  1  0.08487200  0.74816100  0.29715900  1
  N  31  1  0.08454700  0.74814700  0.45490500  1
  N  110  1  0.08486700  0.68696400  0.23594500  1
  N  114  1  0.08474800  0.68693900  0.45490100  1
  N  170  1  0.97858000  0.58499700  0.13827700  1
  N  172  1  0.97817700  0.53346500  0.13828100  1
  N  174  1  0.97696500  0.58468900  0.18918700  1
  N  176  1  0.97808300  0.53341800  0.39912900  1
  N  178  1  0.97861100  0.58494600  0.45067200  1
  N  180  1  0.97683900  0.58464600  0.39945900  1
  N  182  1  0.97855300  0.13032700  0.54137800  1
  N  184  1  0.97825200  0.13034000  0.59292200  1
  N  186  1  0.97677300  0.18124000  0.59259400  1
  N  188  1  0.97843800  0.39120400  0.85381100  1
  N  190  1  0.97851900  0.44273400  0.85380300  1
  N  192  1  0.97720800  0.39151000  0.80290200  1
  N  194  1  0.97868100  0.44277300  0.59295600  1
  N  196  1  0.97831600  0.39123700  0.54142200  1
  N  198  1  0.97699500  0.39155200  0.59264400  1
  N  203  1  0.86766900  0.02378700  0.51391200  1
  N  211  1  0.86758700  0.50593000  0.03172700  1
  N  221  1  0.86759700  0.47024200  0.96035700  1
  N  231  1  0.86765700  0.50586700  0.47814000  1
  N  241  1  0.86769300  0.47021100  0.51384900  1
  N  251  1  0.08421600  0.52931800  0.23604100  1
  N  261  1  0.08418200  0.52931800  0.29724500  1
  N  271  1  0.08442400  0.22801100  0.69482700  1
  N  281  1  0.08465300  0.28921800  0.75603400  1
  N  291  1  0.08492100  0.44703100  0.75610500  1
  N  301  1  0.08487900  0.44707700  0.69491800  1
  N  311  1  0.08445000  0.28931700  0.53719700  1
  N  321  1  0.08464800  0.22810500  0.53718600  1
  O  16  1  0.35568400  0.95397300  0.47890700  1
  O  26  1  0.59736100  0.74385500  0.29934500  1
  O  36  1  0.59702300  0.74390400  0.44867600  1
  O  113  1  0.59733700  0.68480000  0.24023900  1
  O  118  1  0.59721000  0.68480200  0.44863900  1
  O  208  1  0.35572700  0.02220200  0.51302900  1
  O  227  1  0.35565400  0.47106400  0.96193100  1
  O  228  1  0.35564400  0.50519000  0.03016000  1
  O  247  1  0.35575000  0.47113500  0.51318900  1
  O  248  1  0.35571400  0.50522800  0.47905300  1
  O  267  1  0.59656000  0.53519700  0.29910700  1
  O  268  1  0.59659200  0.53521000  0.24003000  1
  O  287  1  0.59711900  0.29136900  0.75195100  1
  O  288  1  0.59684600  0.23228900  0.69286600  1
  O  307  1  0.59736300  0.44056800  0.69274100  1
  O  308  1  0.59741300  0.44050100  0.75178700  1
  O  327  1  0.59709300  0.23215600  0.54331600  1
  O  328  1  0.59687600  0.29124500  0.54333000  1
