# generated using pymatgen
data_H25C43N5
_symmetry_space_group_name_H-M   'P 1'
_cell_length_a   28.29450000
_cell_length_b   28.29440000
_cell_length_c   38.36850000
_cell_angle_alpha   90.00370000
_cell_angle_beta   89.99380000
_cell_angle_gamma   90.00000000
_symmetry_Int_Tables_number   1
_chemical_formula_structural   H25C43N5
_chemical_formula_sum   'H200 C344 N40'
_cell_volume   30716.89620596
_cell_formula_units_Z   8
loop_
 _symmetry_equiv_pos_site_id
 _symmetry_equiv_pos_as_xyz
  1  'x, y, z'
loop_
 _atom_site_type_symbol
 _atom_site_label
 _atom_site_symmetry_multiplicity
 _atom_site_fract_x
 _atom_site_fract_y
 _atom_site_fract_z
 _atom_site_occupancy
  H  49  1  0.00011200  0.74469900  0.85419600  1
  H  50  1  0.99185800  0.82736800  0.84411800  1
  H  51  1  0.02470900  0.72256500  0.74669200  1
  H  52  1  0.01544000  0.80592700  0.73653400  1
  H  53  1  0.09680200  0.84010400  0.78493300  1
  H  54  1  0.15983200  0.90318700  0.78379100  1
  H  55  1  0.03117400  0.96870800  0.78419500  1
  H  56  1  0.97323600  0.02662400  0.78444800  1
  H  57  1  0.90646300  0.83818800  0.78436800  1
  H  58  1  0.84280000  0.90181500  0.78386000  1
  H  59  1  0.81052200  0.01062500  0.83201400  1
  H  60  1  0.72719000  0.02008700  0.82188600  1
  H  61  1  0.83193000  0.98748800  0.72437600  1
  H  62  1  0.74926700  0.99592000  0.71431800  1
  H  63  1  0.84458600  0.09215700  0.78364900  1
  H  64  1  0.90761000  0.15523200  0.78491100  1
  H  65  1  0.16161300  0.09352000  0.78415800  1
  H  66  1  0.09794700  0.15714700  0.78477000  1
  H  67  1  0.98916300  0.18932900  0.73668300  1
  H  68  1  0.97965600  0.27267900  0.74677800  1
  H  69  1  0.01221900  0.16803500  0.84433500  1
  H  70  1  0.00373100  0.25069800  0.85435900  1
  H  71  1  0.19378200  0.98474100  0.83215800  1
  H  72  1  0.27716800  0.97539200  0.82213500  1
  H  73  1  0.25533500  0.99957300  0.71455000  1
  H  74  1  0.17264600  0.00791700  0.72450100  1
  H  123  1  0.74798400  0.99949400  0.35413500  1
  H  124  1  0.83065100  0.00784900  0.34408000  1
  H  125  1  0.72591400  0.97530900  0.24657300  1
  H  126  1  0.80927200  0.98467400  0.23644700  1
  H  127  1  0.84344500  0.90312900  0.28476300  1
  H  128  1  0.90655000  0.84011600  0.28368400  1
  H  129  1  0.97203100  0.96879500  0.28430700  1
  H  130  1  0.02992600  0.02675700  0.28419200  1
  H  131  1  0.84146900  0.09346700  0.28440900  1
  H  132  1  0.90507600  0.15715400  0.28385100  1
  H  133  1  0.01387700  0.18932000  0.33201500  1
  H  134  1  0.02344200  0.27268300  0.32200700  1
  H  135  1  0.99078500  0.16823600  0.22433900  1
  H  136  1  0.99933400  0.25091400  0.21440300  1
  H  137  1  0.09541600  0.15543100  0.28365800  1
  H  138  1  0.15851300  0.09242700  0.28491400  1
  H  139  1  0.09688600  0.83840200  0.28422900  1
  H  140  1  0.16049200  0.90208600  0.28475500  1
  H  141  1  0.19279900  0.01084300  0.23665900  1
  H  142  1  0.27612400  0.02025400  0.24687800  1
  H  143  1  0.17116000  0.98780400  0.34428100  1
  H  144  1  0.25380400  0.99618100  0.35442700  1
  H  145  1  0.98792300  0.80614600  0.33213000  1
  H  146  1  0.97866100  0.72276100  0.32204600  1
  H  147  1  0.00320300  0.74471300  0.21451500  1
  H  148  1  0.01145100  0.82739800  0.22452100  1
  H  173  1  0.97207100  0.65067700  0.77122200  1
  H  174  1  0.97209800  0.57093100  0.79154300  1
  H  175  1  0.07000300  0.68739400  0.84983200  1
  H  176  1  0.06939900  0.60833800  0.87050200  1
  H  177  1  0.03076200  0.56664000  0.94767200  1
  H  178  1  0.03112600  0.56637800  0.00952200  1
  H  179  1  0.97278200  0.42880400  0.94769300  1
  H  180  1  0.97241500  0.42910700  0.00954300  1
  H  181  1  0.93427500  0.38696600  0.87048800  1
  H  182  1  0.93382000  0.30788300  0.84983500  1
  H  183  1  0.03195700  0.34467200  0.77138600  1
  H  184  1  0.03177100  0.42441100  0.79165800  1
  H  209  1  0.65401100  0.02788100  0.27124700  1
  H  210  1  0.57432500  0.02787000  0.29157900  1
  H  211  1  0.69067200  0.92962400  0.34964700  1
  H  212  1  0.61161000  0.93026500  0.37034400  1
  H  213  1  0.57028700  0.96943200  0.44759700  1
  H  214  1  0.57017500  0.96919000  0.50944700  1
  H  215  1  0.43246100  0.02743500  0.44775300  1
  H  216  1  0.43291500  0.02791900  0.50960400  1
  H  217  1  0.39028100  0.06547100  0.37064300  1
  H  218  1  0.31117600  0.06589000  0.35005600  1
  H  219  1  0.34797200  0.96799200  0.27143200  1
  H  220  1  0.42776200  0.96821600  0.29167500  1
  H  245  1  0.03133100  0.65085100  0.29753700  1
  H  246  1  0.03133000  0.57108800  0.27725200  1
  H  247  1  0.93328600  0.68742300  0.21896700  1
  H  248  1  0.93392100  0.60834300  0.19833300  1
  H  249  1  0.97273700  0.56668400  0.12114700  1
  H  250  1  0.97240700  0.56638600  0.05929700  1
  H  251  1  0.03076300  0.42886600  0.12117300  1
  H  252  1  0.03116100  0.42913600  0.05932300  1
  H  253  1  0.06913400  0.38702300  0.19842900  1
  H  254  1  0.06944200  0.30793000  0.21905300  1
  H  255  1  0.97116300  0.34479900  0.29739100  1
  H  256  1  0.97149200  0.42454700  0.27714500  1
  H  281  1  0.34913200  0.02803200  0.79748100  1
  H  282  1  0.42884000  0.02799100  0.77719300  1
  H  283  1  0.31257100  0.92958900  0.71916800  1
  H  284  1  0.39166000  0.93020200  0.69851600  1
  H  285  1  0.43292400  0.96944700  0.62122900  1
  H  286  1  0.43303900  0.96918400  0.55938100  1
  H  287  1  0.57073800  0.02748400  0.62107200  1
  H  288  1  0.57028800  0.02794400  0.55922000  1
  H  289  1  0.61294400  0.06549300  0.69821900  1
  H  290  1  0.69205500  0.06580500  0.71878500  1
  H  291  1  0.65520400  0.96784400  0.79733700  1
  H  292  1  0.57540900  0.96817100  0.77711800  1
  H  341  1  0.78805700  0.95675500  0.59356600  1
  H  342  1  0.77980300  0.03942410  0.58348800  1
  H  343  1  0.81265400  0.93462100  0.48606200  1
  H  344  1  0.80338500  0.01798310  0.47590400  1
  H  345  1  0.88474700  0.05216010  0.52430300  1
  H  346  1  0.94777670  0.11524300  0.52316100  1
  H  347  1  0.81911900  0.18076400  0.52356500  1
  H  348  1  0.76118100  0.23868000  0.52381800  1
  H  349  1  0.69440800  0.05024410  0.52373800  1
  H  350  1  0.63074500  0.11387100  0.52323000  1
  H  351  1  0.59846700  0.22268100  0.57138400  1
  H  352  1  0.51513500  0.23214300  0.56125600  1
  H  353  1  0.61987500  0.19954400  0.46374600  1
  H  354  1  0.53721200  0.20797600  0.45368800  1
  H  355  1  0.63253100  0.30421300  0.52301900  1
  H  356  1  0.69555500  0.36728800  0.52428100  1
  H  357  1  0.94955770  0.30557600  0.52352800  1
  H  358  1  0.88589200  0.36920300  0.52414000  1
  H  359  1  0.77710800  0.40138500  0.47605300  1
  H  360  1  0.76760100  0.48473500  0.48614800  1
  H  361  1  0.80016400  0.38009100  0.58370500  1
  H  362  1  0.79167600  0.46275400  0.59372900  1
  H  363  1  0.98172670  0.19679700  0.57152800  1
  H  364  1  0.06511300  0.18744800  0.56150500  1
  H  365  1  0.04328000  0.21162900  0.45392000  1
  H  366  1  0.96059070  0.21997300  0.46387100  1
  H  415  1  0.53592900  0.21155000  0.09350500  1
  H  416  1  0.61859600  0.21990500  0.08345000  1
  H  417  1  0.51385900  0.18736500  0.98594250  1
  H  418  1  0.59721700  0.19673000  0.97581650  1
  H  419  1  0.63139000  0.11518500  0.02413300  1
  H  420  1  0.69449500  0.05217210  0.02305400  1
  H  421  1  0.75997600  0.18085100  0.02367700  1
  H  422  1  0.81787100  0.23881300  0.02356200  1
  H  423  1  0.62941400  0.30552300  0.02377900  1
  H  424  1  0.69302100  0.36921000  0.02322100  1
  H  425  1  0.80182200  0.40137600  0.07138500  1
  H  426  1  0.81138700  0.48473900  0.06137700  1
  H  427  1  0.77873000  0.38029200  0.96370850  1
  H  428  1  0.78727900  0.46297000  0.95377250  1
  H  429  1  0.88336100  0.36748700  0.02302800  1
  H  430  1  0.94645770  0.30448300  0.02428400  1
  H  431  1  0.88483100  0.05045810  0.02359900  1
  H  432  1  0.94843670  0.11414200  0.02412500  1
  H  433  1  0.98074370  0.22289900  0.97602850  1
  H  434  1  0.06406900  0.23231000  0.98624750  1
  H  435  1  0.95910470  0.19986000  0.08365100  1
  H  436  1  0.04174900  0.20823700  0.09379700  1
  H  437  1  0.77586800  0.01820210  0.07150000  1
  H  438  1  0.76660600  0.93481700  0.06141600  1
  H  439  1  0.79114800  0.95676900  0.95388450  1
  H  440  1  0.79939600  0.03945410  0.96389050  1
  H  465  1  0.76001600  0.86273300  0.51059200  1
  H  466  1  0.76004300  0.78298700  0.53091300  1
  H  467  1  0.85794800  0.89945000  0.58920200  1
  H  468  1  0.85734400  0.82039400  0.60987200  1
  H  469  1  0.81870700  0.77869600  0.68704200  1
  H  470  1  0.81907100  0.77843400  0.74889200  1
  H  471  1  0.76072700  0.64086000  0.68706300  1
  H  472  1  0.76036000  0.64116300  0.74891300  1
  H  473  1  0.72222000  0.59902200  0.60985800  1
  H  474  1  0.72176500  0.51993900  0.58920500  1
  H  475  1  0.81990200  0.55672800  0.51075600  1
  H  476  1  0.81971600  0.63646700  0.53102800  1
  H  501  1  0.44195600  0.23993700  0.01061700  1
  H  502  1  0.36227000  0.23992600  0.03094900  1
  H  503  1  0.47861700  0.14168000  0.08901700  1
  H  504  1  0.39955500  0.14232100  0.10971400  1
  H  505  1  0.35823200  0.18148800  0.18696700  1
  H  506  1  0.35812000  0.18124600  0.24881700  1
  H  507  1  0.22040600  0.23949100  0.18712300  1
  H  508  1  0.22086000  0.23997500  0.24897400  1
  H  509  1  0.17822600  0.27752700  0.11001300  1
  H  510  1  0.09912100  0.27794600  0.08942600  1
  H  511  1  0.13591700  0.18004800  0.01080200  1
  H  512  1  0.21570700  0.18027200  0.03104500  1
  H  537  1  0.81927600  0.86290700  0.03690700  1
  H  538  1  0.81927500  0.78314400  0.01662200  1
  H  539  1  0.72123100  0.89947900  0.95833650  1
  H  540  1  0.72186600  0.82039900  0.93770250  1
  H  541  1  0.76068200  0.77874000  0.86051700  1
  H  542  1  0.76035200  0.77844200  0.79866700  1
  H  543  1  0.81870800  0.64092200  0.86054300  1
  H  544  1  0.81910600  0.64119200  0.79869300  1
  H  545  1  0.85707900  0.59907900  0.93779850  1
  H  546  1  0.85738700  0.51998600  0.95842250  1
  H  547  1  0.75910800  0.55685500  0.03676100  1
  H  548  1  0.75943700  0.63660300  0.01651500  1
  H  573  1  0.13707700  0.24008800  0.53685100  1
  H  574  1  0.21678500  0.24004700  0.51656300  1
  H  575  1  0.10051600  0.14164500  0.45853800  1
  H  576  1  0.17960500  0.14225800  0.43788600  1
  H  577  1  0.22086900  0.18150300  0.36059900  1
  H  578  1  0.22098400  0.18124000  0.29875100  1
  H  579  1  0.35868300  0.23954000  0.36044200  1
  H  580  1  0.35823300  0.24000000  0.29859000  1
  H  581  1  0.40088900  0.27754900  0.43758900  1
  H  582  1  0.48000000  0.27786100  0.45815500  1
  H  583  1  0.44314900  0.17990000  0.53670700  1
  H  584  1  0.36335400  0.18022700  0.51648800  1
  C  1  1  0.08994900  0.87555900  0.78468600  1
  C  2  1  0.12436900  0.91001100  0.78397500  1
  C  3  1  0.10212100  0.95412300  0.78403400  1
  C  5  1  0.04581700  0.89777200  0.78455000  1
  C  6  1  0.00157400  0.87390200  0.78487700  1
  C  7  1  0.95675300  0.89631300  0.78452600  1
  C  9  1  0.90089800  0.95214000  0.78390700  1
  C  10  1  0.87835000  0.90822300  0.78390400  1
  C  11  1  0.91285100  0.87374300  0.78440600  1
  C  12  1  0.87846700  0.99694700  0.78366500  1
  C  13  1  0.90229300  0.04121400  0.78404400  1
  C  15  1  0.95859600  0.09756300  0.78468800  1
  C  16  1  0.91446400  0.11977600  0.78475100  1
  C  17  1  0.88004600  0.08532900  0.78393700  1
  C  18  1  0.00284000  0.12143000  0.78509400  1
  C  19  1  0.04765800  0.09902000  0.78476300  1
  C  21  1  0.10351700  0.04319600  0.78404800  1
  C  22  1  0.12606200  0.08711100  0.78415100  1
  C  23  1  0.09156100  0.12159300  0.78473100  1
  C  24  1  0.12594900  0.99838700  0.78369400  1
  C  25  1  0.17582200  0.99763200  0.77929600  1
  C  26  1  0.19443800  0.00189100  0.74534900  1
  C  27  1  0.24304200  0.99636000  0.73953500  1
  C  28  1  0.27423900  0.98594700  0.76735000  1
  C  29  1  0.25561500  0.98324600  0.80151500  1
  C  30  1  0.20677400  0.98869000  0.80743300  1
  C  31  1  0.00203000  0.17129600  0.78953200  1
  C  32  1  0.99306500  0.20228600  0.76142000  1
  C  33  1  0.98744300  0.25109300  0.76739300  1
  C  34  1  0.99011700  0.26967600  0.80157100  1
  C  35  1  0.00053900  0.23844100  0.82936200  1
  C  36  1  0.00617100  0.18985500  0.82350500  1
  C  37  1  0.82861100  0.99773500  0.77917000  1
  C  38  1  0.79758800  0.00665200  0.80727600  1
  C  39  1  0.74878400  0.01224000  0.80128400  1
  C  40  1  0.73023900  0.00956100  0.76709800  1
  C  41  1  0.76150100  0.99913100  0.73931800  1
  C  42  1  0.81008700  0.99354700  0.74519300  1
  C  43  1  0.00235900  0.82404100  0.78934800  1
  C  44  1  0.99797000  0.80551700  0.82331300  1
  C  45  1  0.01137500  0.79300400  0.76126700  1
  C  46  1  0.01680000  0.74417900  0.76726700  1
  C  47  1  0.01394200  0.72564100  0.80145000  1
  C  48  1  0.00344500  0.75692500  0.82920200  1
  C  75  1  0.87890000  0.90999200  0.28462500  1
  C  76  1  0.91336200  0.87558300  0.28386700  1
  C  77  1  0.95746700  0.89784500  0.28402300  1
  C  79  1  0.90109700  0.95413200  0.28451000  1
  C  80  1  0.87721800  0.99837000  0.28481800  1
  C  81  1  0.89961300  0.04319800  0.28449200  1
  C  83  1  0.95541900  0.09907400  0.28383500  1
  C  84  1  0.91149700  0.12160500  0.28388700  1
  C  85  1  0.87702600  0.08709200  0.28439800  1
  C  86  1  0.00021900  0.12152400  0.28352800  1
  C  87  1  0.04449100  0.09770700  0.28391900  1
  C  89  1  0.10085900  0.04142300  0.28456800  1
  C  90  1  0.12305700  0.08556100  0.28467500  1
  C  91  1  0.08860200  0.11996800  0.28384000  1
  C  92  1  0.12473600  0.99718600  0.28495100  1
  C  93  1  0.10234600  0.95235800  0.28470100  1
  C  95  1  0.04654100  0.89648100  0.28407200  1
  C  96  1  0.09046400  0.87395000  0.28421600  1
  C  97  1  0.12493400  0.90846200  0.28470300  1
  C  98  1  0.00174000  0.87402800  0.28371500  1
  C  99  1  0.00101500  0.82415900  0.27930300  1
  C  100  1  0.00536900  0.80558300  0.24534800  1
  C  101  1  0.99988700  0.75698000  0.23949900  1
  C  102  1  0.98939800  0.72575000  0.26728000  1
  C  103  1  0.98653600  0.74434600  0.30144600  1
  C  104  1  0.99201100  0.79317300  0.30741200  1
  C  105  1  0.17459000  0.99800700  0.28948600  1
  C  106  1  0.20567000  0.00696200  0.26142400  1
  C  107  1  0.25447100  0.01250200  0.26746500  1
  C  108  1  0.27295700  0.00978200  0.30166800  1
  C  109  1  0.24162500  0.99939700  0.32941200  1
  C  110  1  0.19304400  0.99385700  0.32348800  1
  C  111  1  0.00098300  0.17139700  0.27914400  1
  C  112  1  0.00996100  0.20232800  0.30729500  1
  C  113  1  0.01561700  0.25114000  0.30137300  1
  C  114  1  0.01296400  0.26977900  0.26721200  1
  C  115  1  0.00248600  0.23861100  0.23939000  1
  C  116  1  0.99682800  0.19001800  0.24519200  1
  C  117  1  0.82735700  0.99755400  0.28928800  1
  C  118  1  0.80881500  0.00179300  0.32326100  1
  C  119  1  0.79633700  0.98859600  0.26119200  1
  C  120  1  0.74751400  0.98311800  0.26717600  1
  C  121  1  0.72895700  0.98584600  0.30136000  1
  C  122  1  0.76022200  0.99625300  0.32913500  1
  C  149  1  0.01284000  0.53805400  0.84997100  1
  C  151  1  0.99083400  0.45729900  0.84998300  1
  C  153  1  0.00178700  0.49770400  0.90394300  1
  C  155  1  0.98294300  0.41359700  0.83300700  1
  C  156  1  0.00904700  0.40083200  0.80299300  1
  C  157  1  0.00933200  0.35371200  0.79110900  1
  C  158  1  0.98300100  0.31849400  0.80864300  1
  C  159  1  0.95350300  0.33236800  0.83658400  1
  C  160  1  0.95370800  0.37911400  0.84872900  1
  C  161  1  0.02077700  0.58173200  0.83298000  1
  C  162  1  0.99467600  0.59455900  0.80298800  1
  C  163  1  0.99458400  0.64163100  0.79100900  1
  C  164  1  0.02091100  0.67681600  0.80857700  1
  C  165  1  0.05028700  0.66293900  0.83657700  1
  C  166  1  0.05003400  0.61618900  0.84871400  1
  C  167  1  0.00177800  0.49771800  0.94106900  1
  C  168  1  0.01817100  0.53729300  0.96018200  1
  C  169  1  0.01819400  0.53730700  0.99683000  1
  C  170  1  0.00178300  0.49773900  0.01583500  1
  C  171  1  0.98538700  0.45815700  0.99684300  1
  C  172  1  0.98538200  0.45815700  0.96019400  1
  C  185  1  0.54141600  0.98701700  0.34992100  1
  C  187  1  0.46068600  0.00909500  0.35002000  1
  C  189  1  0.50123400  0.99829500  0.40393600  1
  C  191  1  0.41692000  0.01689200  0.33310200  1
  C  192  1  0.40409900  0.99076600  0.30311400  1
  C  193  1  0.35699600  0.99053200  0.29120800  1
  C  194  1  0.32177800  0.01678700  0.30880600  1
  C  195  1  0.33564200  0.04620100  0.33679000  1
  C  196  1  0.38241700  0.04605500  0.34888100  1
  C  197  1  0.58505600  0.97899200  0.33289400  1
  C  198  1  0.59786100  0.00507500  0.30288200  1
  C  199  1  0.64495000  0.00519100  0.29092200  1
  C  200  1  0.68013300  0.97882400  0.30846000  1
  C  201  1  0.66622900  0.94937900  0.33641500  1
  C  202  1  0.61949800  0.94969500  0.34859400  1
  C  203  1  0.50135600  0.99841800  0.44106000  1
  C  204  1  0.54097500  0.98206400  0.46013600  1
  C  205  1  0.54108700  0.98212800  0.49678300  1
  C  206  1  0.50156400  0.99857200  0.51582500  1
  C  207  1  0.46194400  0.01495400  0.49687400  1
  C  208  1  0.46184700  0.01486600  0.46022500  1
  C  221  1  0.99056700  0.53813600  0.21886000  1
  C  223  1  0.01257500  0.45739200  0.21887100  1
  C  225  1  0.00169800  0.49777700  0.16489900  1
  C  227  1  0.02041200  0.41369300  0.23585800  1
  C  228  1  0.99422100  0.40094700  0.26583600  1
  C  229  1  0.99385000  0.35382600  0.27770300  1
  C  230  1  0.02017900  0.31858800  0.26018600  1
  C  231  1  0.04976800  0.33243600  0.23229300  1
  C  232  1  0.04965000  0.37919000  0.22016300  1
  C  233  1  0.98259500  0.58181400  0.23584300  1
  C  234  1  0.00872000  0.59468500  0.26581500  1
  C  235  1  0.00879600  0.64176600  0.27777000  1
  C  236  1  0.98242600  0.67691600  0.26019900  1
  C  237  1  0.95302400  0.66299200  0.23222500  1
  C  238  1  0.95329500  0.61622900  0.22010900  1
  C  239  1  0.00174200  0.49777800  0.12777300  1
  C  240  1  0.98534700  0.53733500  0.10864800  1
  C  241  1  0.98534500  0.53732500  0.07200000  1
  C  242  1  0.00177400  0.49775300  0.05300800  1
  C  243  1  0.01817700  0.45818900  0.07201300  1
  C  244  1  0.01816100  0.45821000  0.10866300  1
  C  257  1  0.46179100  0.98704600  0.71890300  1
  C  259  1  0.54251400  0.00913200  0.71880600  1
  C  261  1  0.50197000  0.99833500  0.66489000  1
  C  263  1  0.58627200  0.01689700  0.73573400  1
  C  264  1  0.59908000  0.99071800  0.76569600  1
  C  265  1  0.64619000  0.99042600  0.77758600  1
  C  266  1  0.68142800  0.01667700  0.76001100  1
  C  267  1  0.66757200  0.04613400  0.73204900  1
  C  268  1  0.62079400  0.04605200  0.71997100  1
  C  269  1  0.41815800  0.97901700  0.73592700  1
  C  270  1  0.40532100  0.00515900  0.76590800  1
  C  271  1  0.35822200  0.00529400  0.77784200  1
  C  272  1  0.32306900  0.97889200  0.76029900  1
  C  273  1  0.33700200  0.94937100  0.73239500  1
  C  274  1  0.38374400  0.94967100  0.72024500  1
  C  275  1  0.50185100  0.99845000  0.62776500  1
  C  276  1  0.46223100  0.98208100  0.60869000  1
  C  277  1  0.46212700  0.98213100  0.57204300  1
  C  278  1  0.50164700  0.99857700  0.55300100  1
  C  279  1  0.54125900  0.01497600  0.57195100  1
  C  280  1  0.54135600  0.01489700  0.60859900  1
  C  293  1  0.87789400  0.08761510  0.52405600  1
  C  294  1  0.91231370  0.12206700  0.52334500  1
  C  295  1  0.89006600  0.16617900  0.52340400  1
  C  297  1  0.83376200  0.10982800  0.52392000  1
  C  298  1  0.78951900  0.08595810  0.52424700  1
  C  299  1  0.74469800  0.10836900  0.52389600  1
  C  301  1  0.68884300  0.16419600  0.52327700  1
  C  302  1  0.66629500  0.12027900  0.52327400  1
  C  303  1  0.70079600  0.08579910  0.52377600  1
  C  304  1  0.66641200  0.20900300  0.52303500  1
  C  305  1  0.69023800  0.25327000  0.52341400  1
  C  307  1  0.74654100  0.30961900  0.52405800  1
  C  308  1  0.70240900  0.33183200  0.52412100  1
  C  309  1  0.66799100  0.29738500  0.52330700  1
  C  310  1  0.79078500  0.33348600  0.52446400  1
  C  311  1  0.83560300  0.31107600  0.52413300  1
  C  313  1  0.89146200  0.25525200  0.52341800  1
  C  314  1  0.91400670  0.29916700  0.52352100  1
  C  315  1  0.87950600  0.33364900  0.52410100  1
  C  316  1  0.91389370  0.21044300  0.52306400  1
  C  317  1  0.96376670  0.20968800  0.51866600  1
  C  318  1  0.98238270  0.21394700  0.48471900  1
  C  319  1  0.03098700  0.20841600  0.47890500  1
  C  320  1  0.06218400  0.19800300  0.50672000  1
  C  321  1  0.04356000  0.19530200  0.54088500  1
  C  322  1  0.99471865  0.20074600  0.54680300  1
  C  323  1  0.78997500  0.38335200  0.52890200  1
  C  324  1  0.78101000  0.41434200  0.50079000  1
  C  325  1  0.77538800  0.46314900  0.50676300  1
  C  326  1  0.77806200  0.48173200  0.54094100  1
  C  327  1  0.78848400  0.45049700  0.56873200  1
  C  328  1  0.79411600  0.40191100  0.56287500  1
  C  329  1  0.61655600  0.20979100  0.51854000  1
  C  330  1  0.58553300  0.21870800  0.54664600  1
  C  331  1  0.53672900  0.22429600  0.54065400  1
  C  332  1  0.51818400  0.22161700  0.50646800  1
  C  333  1  0.54944600  0.21118700  0.47868800  1
  C  334  1  0.59803200  0.20560300  0.48456300  1
  C  335  1  0.79030400  0.03609710  0.52871800  1
  C  336  1  0.78591500  0.01757310  0.56268300  1
  C  337  1  0.79932000  0.00506010  0.50063700  1
  C  338  1  0.80474500  0.95623500  0.50663700  1
  C  339  1  0.80188700  0.93769700  0.54082000  1
  C  340  1  0.79139000  0.96898100  0.56857200  1
  C  367  1  0.66684500  0.12204800  0.02399500  1
  C  368  1  0.70130700  0.08763910  0.02323700  1
  C  369  1  0.74541200  0.10990100  0.02339300  1
  C  371  1  0.68904200  0.16618800  0.02388000  1
  C  372  1  0.66516300  0.21042600  0.02418800  1
  C  373  1  0.68755800  0.25525400  0.02386200  1
  C  375  1  0.74336400  0.31113000  0.02320500  1
  C  376  1  0.69944200  0.33366100  0.02325700  1
  C  377  1  0.66497100  0.29914800  0.02376800  1
  C  378  1  0.78816400  0.33358000  0.02289800  1
  C  379  1  0.83243600  0.30976300  0.02328900  1
  C  381  1  0.88880400  0.25347900  0.02393800  1
  C  382  1  0.91100170  0.29761700  0.02404500  1
  C  383  1  0.87654700  0.33202400  0.02321000  1
  C  384  1  0.91268070  0.20924200  0.02432100  1
  C  385  1  0.89029100  0.16441400  0.02407100  1
  C  387  1  0.83448600  0.10853700  0.02344200  1
  C  388  1  0.87840900  0.08600610  0.02358600  1
  C  389  1  0.91287870  0.12051800  0.02407300  1
  C  390  1  0.78968500  0.08608410  0.02308500  1
  C  391  1  0.78896000  0.03621510  0.01867300  1
  C  392  1  0.79331400  0.01763910  0.98471750  1
  C  393  1  0.78783200  0.96903600  0.97886850  1
  C  394  1  0.77734300  0.93780600  0.00665000  1
  C  395  1  0.77448100  0.95640200  0.04081600  1
  C  396  1  0.77995600  0.00522910  0.04678200  1
  C  397  1  0.96253470  0.21006300  0.02885600  1
  C  398  1  0.99361465  0.21901800  0.00079400  1
  C  399  1  0.04241600  0.22455800  0.00683500  1
  C  400  1  0.06090200  0.22183800  0.04103800  1
  C  401  1  0.02957000  0.21145300  0.06878200  1
  C  402  1  0.98098870  0.20591300  0.06285800  1
  C  403  1  0.78892800  0.38345300  0.01851400  1
  C  404  1  0.79790600  0.41438400  0.04666500  1
  C  405  1  0.80356200  0.46319600  0.04074300  1
  C  406  1  0.80090900  0.48183500  0.00658200  1
  C  407  1  0.79043100  0.45066700  0.97875950  1
  C  408  1  0.78477300  0.40207400  0.98456150  1
  C  409  1  0.61530200  0.20961000  0.02865800  1
  C  410  1  0.59676000  0.21384900  0.06263100  1
  C  411  1  0.58428200  0.20065200  0.00056200  1
  C  412  1  0.53545900  0.19517400  0.00654600  1
  C  413  1  0.51690200  0.19790200  0.04073000  1
  C  414  1  0.54816700  0.20830900  0.06850500  1
  C  441  1  0.80078500  0.75011000  0.58934100  1
  C  443  1  0.77877900  0.66935500  0.58935300  1
  C  445  1  0.78973200  0.70976000  0.64331300  1
  C  447  1  0.77088800  0.62565300  0.57237700  1
  C  448  1  0.79699200  0.61288800  0.54236300  1
  C  449  1  0.79727700  0.56576800  0.53047900  1
  C  450  1  0.77094600  0.53055000  0.54801300  1
  C  451  1  0.74144800  0.54442400  0.57595400  1
  C  452  1  0.74165300  0.59117000  0.58809900  1
  C  453  1  0.80872200  0.79378800  0.57235000  1
  C  454  1  0.78262100  0.80661500  0.54235800  1
  C  455  1  0.78252900  0.85368700  0.53037900  1
  C  456  1  0.80885600  0.88887200  0.54794700  1
  C  457  1  0.83823200  0.87499500  0.57594700  1
  C  458  1  0.83797900  0.82824500  0.58808400  1
  C  459  1  0.78972300  0.70977400  0.68043900  1
  C  460  1  0.80611600  0.74934900  0.69955200  1
  C  461  1  0.80613900  0.74936300  0.73620000  1
  C  462  1  0.78972800  0.70979500  0.75520500  1
  C  463  1  0.77333200  0.67021300  0.73621300  1
  C  464  1  0.77332700  0.67021300  0.69956400  1
  C  477  1  0.32936100  0.19907300  0.08929100  1
  C  479  1  0.24863100  0.22115100  0.08939000  1
  C  481  1  0.28917900  0.21035100  0.14330600  1
  C  483  1  0.20486500  0.22894800  0.07247200  1
  C  484  1  0.19204400  0.20282200  0.04248400  1
  C  485  1  0.14494100  0.20258800  0.03057800  1
  C  486  1  0.10972300  0.22884300  0.04817600  1
  C  487  1  0.12358700  0.25825700  0.07616000  1
  C  488  1  0.17036200  0.25811100  0.08825100  1
  C  489  1  0.37300100  0.19104800  0.07226400  1
  C  490  1  0.38580600  0.21713100  0.04225200  1
  C  491  1  0.43289500  0.21724700  0.03029200  1
  C  492  1  0.46807800  0.19088000  0.04783000  1
  C  493  1  0.45417400  0.16143500  0.07578500  1
  C  494  1  0.40744300  0.16175100  0.08796400  1
  C  495  1  0.28930100  0.21047400  0.18043000  1
  C  496  1  0.32892000  0.19412000  0.19950600  1
  C  497  1  0.32903200  0.19418400  0.23615300  1
  C  498  1  0.28950900  0.21062800  0.25519500  1
  C  499  1  0.24988900  0.22701000  0.23624400  1
  C  500  1  0.24979200  0.22692200  0.19959500  1
  C  513  1  0.77851200  0.75019200  0.95822950  1
  C  515  1  0.80052000  0.66944800  0.95824050  1
  C  517  1  0.78964300  0.70983300  0.90426850  1
  C  519  1  0.80835700  0.62574900  0.97522750  1
  C  520  1  0.78216600  0.61300300  0.00520600  1
  C  521  1  0.78179500  0.56588200  0.01707300  1
  C  522  1  0.80812400  0.53064400  0.99955554  1
  C  523  1  0.83771300  0.54449200  0.97166250  1
  C  524  1  0.83759500  0.59124600  0.95953250  1
  C  525  1  0.77054000  0.79387000  0.97521250  1
  C  526  1  0.79666500  0.80674100  0.00518500  1
  C  527  1  0.79674100  0.85382200  0.01714000  1
  C  528  1  0.77037100  0.88897200  0.99956853  1
  C  529  1  0.74096900  0.87504800  0.97159450  1
  C  530  1  0.74124000  0.82828500  0.95947850  1
  C  531  1  0.78968700  0.70983400  0.86714300  1
  C  532  1  0.77329200  0.74939100  0.84801800  1
  C  533  1  0.77329000  0.74938100  0.81137000  1
  C  534  1  0.78971900  0.70980900  0.79237800  1
  C  535  1  0.80612200  0.67024500  0.81138300  1
  C  536  1  0.80610600  0.67026600  0.84803300  1
  C  549  1  0.24973600  0.19910200  0.45827300  1
  C  551  1  0.33045900  0.22118800  0.45817600  1
  C  553  1  0.28991500  0.21039100  0.40426000  1
  C  555  1  0.37421700  0.22895300  0.47510400  1
  C  556  1  0.38702500  0.20277400  0.50506600  1
  C  557  1  0.43413500  0.20248200  0.51695600  1
  C  558  1  0.46937300  0.22873300  0.49938100  1
  C  559  1  0.45551700  0.25819000  0.47141900  1
  C  560  1  0.40873900  0.25810800  0.45934100  1
  C  561  1  0.20610300  0.19107300  0.47529700  1
  C  562  1  0.19326600  0.21721500  0.50527800  1
  C  563  1  0.14616700  0.21735000  0.51721200  1
  C  564  1  0.11101400  0.19094800  0.49966900  1
  C  565  1  0.12494700  0.16142700  0.47176500  1
  C  566  1  0.17168900  0.16172700  0.45961500  1
  C  567  1  0.28979600  0.21050600  0.36713500  1
  C  568  1  0.25017600  0.19413700  0.34806000  1
  C  569  1  0.25007200  0.19418700  0.31141300  1
  C  570  1  0.28959200  0.21063300  0.29237100  1
  C  571  1  0.32920400  0.22703200  0.31132100  1
  C  572  1  0.32930100  0.22695300  0.34796900  1
  N  4  1  0.05515800  0.94474300  0.78425500  1
  N  8  1  0.94773900  0.94314900  0.78425000  1
  N  14  1  0.94925500  0.05059100  0.78439100  1
  N  20  1  0.05667400  0.05218300  0.78438600  1
  N  78  1  0.94807200  0.94480500  0.28428100  1
  N  82  1  0.94644700  0.05222800  0.28416900  1
  N  88  1  0.05388500  0.05074800  0.28422400  1
  N  94  1  0.05551400  0.94332800  0.28434600  1
  N  150  1  0.00184700  0.49767000  0.83250800  1
  N  152  1  0.99124500  0.45828100  0.88540500  1
  N  154  1  0.01236100  0.53710600  0.88539300  1
  N  186  1  0.50099300  0.99798600  0.33250000  1
  N  188  1  0.46176200  0.00878700  0.38544200  1
  N  190  1  0.54057600  0.98762800  0.38534300  1
  N  222  1  0.00153600  0.49776200  0.23633500  1
  N  224  1  0.01221300  0.45836100  0.18344800  1
  N  226  1  0.99109200  0.53718200  0.18343800  1
  N  258  1  0.50220600  0.99801700  0.73632600  1
  N  260  1  0.54144100  0.00882700  0.68338400  1
  N  262  1  0.46262700  0.98766100  0.68348000  1
  N  296  1  0.84310300  0.15679900  0.52362500  1
  N  300  1  0.73568400  0.15520500  0.52362000  1
  N  306  1  0.73720000  0.26264700  0.52376100  1
  N  312  1  0.84461900  0.26423900  0.52375600  1
  N  370  1  0.73601700  0.15686100  0.02365100  1
  N  374  1  0.73439200  0.26428400  0.02353900  1
  N  380  1  0.84183000  0.26280400  0.02359400  1
  N  386  1  0.84345900  0.15538400  0.02371600  1
  N  442  1  0.78979200  0.70972600  0.57187800  1
  N  444  1  0.77919000  0.67033700  0.62477500  1
  N  446  1  0.80030600  0.74916200  0.62476300  1
  N  478  1  0.28893800  0.21004200  0.07187000  1
  N  480  1  0.24970700  0.22084300  0.12481200  1
  N  482  1  0.32852100  0.19968400  0.12471300  1
  N  514  1  0.78948100  0.70981800  0.97570450  1
  N  516  1  0.80015800  0.67041700  0.92281750  1
  N  518  1  0.77903700  0.74923800  0.92280750  1
  N  550  1  0.29015100  0.21007300  0.47569600  1
  N  552  1  0.32938600  0.22088300  0.42275400  1
  N  554  1  0.25057200  0.19971700  0.42285000  1
