# generated using pymatgen
data_HC2N
_symmetry_space_group_name_H-M   'P 1'
_cell_length_a   10.63246667
_cell_length_b   48.68700000
_cell_length_c   48.68700000
_cell_angle_alpha   90.00000000
_cell_angle_beta   90.00000000
_cell_angle_gamma   90.00000000
_symmetry_Int_Tables_number   1
_chemical_formula_structural   HC2N
_chemical_formula_sum   'H120 C240 N120'
_cell_volume   25203.45383626
_cell_formula_units_Z   120
loop_
 _symmetry_equiv_pos_site_id
 _symmetry_equiv_pos_as_xyz
  1  'x, y, z'
loop_
 _atom_site_type_symbol
 _atom_site_label
 _atom_site_symmetry_multiplicity
 _atom_site_fract_x
 _atom_site_fract_y
 _atom_site_fract_z
 _atom_site_occupancy
  C  1  1  0.11659600  0.32859500  0.26779400  1
  C  3  1  0.97894500  0.35656900  0.24197400  1
  C  5  1  0.89817000  0.32421600  0.27361700  1
  C  10  1  0.11518600  0.71093900  0.71097000  1
  C  12  1  0.97687100  0.68302600  0.73668900  1
  C  14  1  0.89685000  0.71542900  0.70500300  1
  C  19  1  0.61625600  0.74129200  0.29813900  1
  C  21  1  0.47812300  0.76699700  0.32611100  1
  C  23  1  0.39790400  0.73539300  0.29366100  1
  C  28  1  0.61549500  0.29820500  0.68059800  1
  C  30  1  0.47760600  0.27245200  0.65262100  1
  C  32  1  0.39711500  0.30414500  0.68496900  1
  C  37  1  0.87678900  0.70754400  0.26732000  1
  C  39  1  0.01278200  0.67728900  0.24368100  1
  C  41  1  0.09547300  0.71228800  0.27210900  1
  C  46  1  0.87595900  0.33200400  0.71132900  1
  C  48  1  0.01163700  0.36238800  0.73487700  1
  C  50  1  0.09467300  0.32736200  0.70650800  1
  C  55  1  0.37708200  0.29789200  0.30164900  1
  C  57  1  0.51334500  0.27435400  0.33191800  1
  C  59  1  0.59573300  0.30273600  0.29683900  1
  C  64  1  0.37568000  0.74167600  0.67715600  1
  C  66  1  0.51120700  0.76528200  0.64678200  1
  C  68  1  0.59441800  0.73693800  0.68179800  1
  C  73  1  0.00138400  0.56408700  0.17582600  1
  C  74  1  0.98837000  0.52100900  0.08531700  1
  C  75  1  0.99533000  0.46472100  0.16767100  1
  C  76  1  0.97352900  0.49729500  0.06870800  1
  C  77  1  0.96660500  0.49917000  0.03991600  1
  C  78  1  0.97552100  0.52489100  0.02661300  1
  C  79  1  0.98908400  0.54867800  0.04296900  1
  C  80  1  0.99582800  0.54673900  0.07178800  1
  C  81  1  0.00543800  0.59088600  0.16443000  1
  C  82  1  0.99693600  0.61443900  0.18116300  1
  C  83  1  0.98432600  0.61188200  0.20992000  1
  C  84  1  0.98271800  0.58532800  0.22155200  1
  C  85  1  0.99221600  0.56189500  0.20480600  1
  C  86  1  0.97954700  0.46185400  0.19643600  1
  C  87  1  0.98551100  0.43596400  0.20920400  1
  C  88  1  0.00764900  0.41196400  0.19360600  1
  C  89  1  0.02239500  0.41456200  0.16489400  1
  C  90  1  0.01473900  0.44046000  0.15212900  1
  C  101  1  0.99548000  0.49114100  0.15499500  1
  C  103  1  0.00110400  0.54012500  0.15887600  1
  C  105  1  0.99377700  0.51899400  0.11455500  1
  C  108  1  0.03078600  0.38712800  0.20643900  1
  C  110  1  0.96613600  0.52724500  0.99824500  1
  C  111  1  0.95750300  0.63427400  0.22628200  1
  C  115  1  0.99792200  0.47553500  0.80280900  1
  C  116  1  0.01361900  0.51856700  0.89334300  1
  C  117  1  0.99287400  0.57491700  0.81114400  1
  C  118  1  0.02583900  0.54235000  0.90995300  1
  C  119  1  0.03266600  0.54051200  0.93874700  1
  C  120  1  0.02614000  0.51475700  0.95206300  1
  C  121  1  0.01534100  0.49091100  0.93569100  1
  C  122  1  0.00879600  0.49280900  0.90686800  1
  C  123  1  0.00390500  0.44872100  0.81413300  1
  C  124  1  0.99542300  0.42518300  0.79737900  1
  C  125  1  0.98094800  0.42775500  0.76866300  1
  C  126  1  0.97677200  0.45433500  0.75711500  1
  C  127  1  0.98616800  0.47775800  0.77387800  1
  C  128  1  0.97455600  0.57782500  0.78245300  1
  C  129  1  0.98018600  0.60371100  0.76966500  1
  C  130  1  0.00417700  0.62768100  0.78517800  1
  C  131  1  0.02062300  0.62507000  0.81384500  1
  C  132  1  0.01377200  0.59916800  0.82661400  1
  C  143  1  0.99524200  0.54846600  0.82377400  1
  C  145  1  0.99998800  0.49947600  0.81978300  1
  C  147  1  0.00698900  0.52057400  0.86411700  1
  C  150  1  0.02767100  0.65249400  0.77231200  1
  C  152  1  0.03532600  0.51243000  0.98044600  1
  C  153  1  0.95493500  0.40531100  0.75230900  1
  C  157  1  0.49713800  0.83312900  0.53359000  1
  C  158  1  0.51130500  0.92371400  0.49056000  1
  C  159  1  0.49228100  0.84146800  0.43423700  1
  C  160  1  0.52259100  0.94033300  0.46676100  1
  C  161  1  0.52971900  0.96912700  0.46858700  1
  C  162  1  0.52448800  0.98245100  0.49435100  1
  C  163  1  0.51437000  0.96606800  0.51821200  1
  C  164  1  0.50749300  0.93724500  0.51632400  1
  C  165  1  0.50294400  0.84442400  0.56041800  1
  C  166  1  0.49472300  0.82763300  0.58393600  1
  C  167  1  0.48059500  0.79891100  0.58132700  1
  C  168  1  0.47672900  0.78739200  0.55473500  1
  C  169  1  0.48595600  0.80418700  0.53133200  1
  C  170  1  0.47436400  0.81276100  0.43134500  1
  C  171  1  0.48045500  0.79995000  0.40547600  1
  C  172  1  0.50483300  0.81544100  0.38150800  1
  C  173  1  0.52107500  0.84411600  0.38411100  1
  C  174  1  0.51341000  0.85692200  0.40998600  1
  C  185  1  0.49418800  0.85411900  0.46067700  1
  C  187  1  0.49886900  0.85013400  0.50966800  1
  C  189  1  0.50497500  0.89448100  0.48857000  1
  C  192  1  0.52893000  0.80254600  0.35674200  1
  C  194  1  0.53463700  0.01083200  0.49669300  1
  C  195  1  0.45491800  0.78251000  0.60376200  1
  C  199  1  0.50245300  0.20645500  0.44510800  1
  C  200  1  0.49068800  0.11586300  0.48809300  1
  C  201  1  0.49569100  0.19817900  0.54445100  1
  C  202  1  0.47568600  0.09923600  0.51178900  1
  C  203  1  0.46842400  0.07044800  0.50989100  1
  C  204  1  0.47719100  0.05715300  0.48416200  1
  C  205  1  0.49117600  0.07352900  0.46039600  1
  C  206  1  0.49825000  0.10234500  0.46235700  1
  C  207  1  0.50697800  0.19511500  0.41828800  1
  C  208  1  0.49847400  0.21188600  0.39476000  1
  C  209  1  0.48519400  0.24062700  0.39736000  1
  C  210  1  0.48293700  0.25219900  0.42393800  1
  C  211  1  0.49265400  0.23542400  0.44734500  1
  C  212  1  0.47948700  0.22693100  0.54733700  1
  C  213  1  0.48469800  0.23967400  0.57324700  1
  C  214  1  0.50662800  0.22406800  0.59725400  1
  C  215  1  0.52188500  0.19536900  0.59462900  1
  C  216  1  0.51493400  0.18262900  0.56871000  1
  C  227  1  0.49644200  0.18552500  0.51801900  1
  C  229  1  0.50234900  0.18946100  0.46903900  1
  C  231  1  0.49581400  0.14510700  0.49012400  1
  C  234  1  0.52936100  0.23686000  0.62212900  1
  C  236  1  0.46682800  0.02879500  0.48176700  1
  C  237  1  0.45841600  0.25701700  0.37498300  1
  C  721  1  0.58685500  0.32859500  0.47318800  1
  C  723  1  0.44920400  0.35656900  0.44736800  1
  C  725  1  0.36842900  0.32421600  0.47901100  1
  C  730  1  0.58544500  0.71093900  0.91636400  1
  C  732  1  0.44713000  0.68302600  0.94208300  1
  C  734  1  0.36710900  0.71542900  0.91039700  1
  C  739  1  0.08651460  0.74129200  0.50353300  1
  C  741  1  0.94838200  0.76699700  0.53150500  1
  C  743  1  0.86816300  0.73539300  0.49905500  1
  C  748  1  0.08575360  0.29820500  0.88599200  1
  C  750  1  0.94786500  0.27245200  0.85801500  1
  C  752  1  0.86737400  0.30414500  0.89036300  1
  C  757  1  0.34704800  0.70754400  0.47271400  1
  C  759  1  0.48304100  0.67728900  0.44907500  1
  C  761  1  0.56573200  0.71228800  0.47750300  1
  C  766  1  0.34621800  0.33200400  0.91672300  1
  C  768  1  0.48189600  0.36238800  0.94027100  1
  C  770  1  0.56493200  0.32736200  0.91190200  1
  C  775  1  0.84734100  0.29789200  0.50704300  1
  C  777  1  0.98360400  0.27435400  0.53731200  1
  C  779  1  0.06599160  0.30273600  0.50223300  1
  C  784  1  0.84593900  0.74167600  0.88255000  1
  C  786  1  0.98146600  0.76528200  0.85217600  1
  C  788  1  0.06467660  0.73693800  0.88719200  1
  C  793  1  0.47164300  0.56408700  0.38122000  1
  C  794  1  0.45862900  0.52100900  0.29071100  1
  C  795  1  0.46558900  0.46472100  0.37306500  1
  C  796  1  0.44378800  0.49729500  0.27410200  1
  C  797  1  0.43686400  0.49917000  0.24531000  1
  C  798  1  0.44578000  0.52489100  0.23200700  1
  C  799  1  0.45934300  0.54867800  0.24836300  1
  C  800  1  0.46608700  0.54673900  0.27718200  1
  C  801  1  0.47569700  0.59088600  0.36982400  1
  C  802  1  0.46719500  0.61443900  0.38655700  1
  C  803  1  0.45458500  0.61188200  0.41531400  1
  C  804  1  0.45297700  0.58532800  0.42694600  1
  C  805  1  0.46247500  0.56189500  0.41020000  1
  C  806  1  0.44980600  0.46185400  0.40183000  1
  C  807  1  0.45577000  0.43596400  0.41459800  1
  C  808  1  0.47790800  0.41196400  0.39900000  1
  C  809  1  0.49265400  0.41456200  0.37028800  1
  C  810  1  0.48499800  0.44046000  0.35752300  1
  C  821  1  0.46573900  0.49114100  0.36038900  1
  C  823  1  0.47136300  0.54012500  0.36427000  1
  C  825  1  0.46403600  0.51899400  0.31994900  1
  C  828  1  0.50104500  0.38712800  0.41183300  1
  C  830  1  0.43639500  0.52724500  0.20363900  1
  C  831  1  0.42776200  0.63427400  0.43167600  1
  C  835  1  0.46818100  0.47553500  0.00820264  1
  C  836  1  0.48387800  0.51856700  0.09873660  1
  C  837  1  0.46313300  0.57491700  0.01653760  1
  C  838  1  0.49609800  0.54235000  0.11534700  1
  C  839  1  0.50292500  0.54051200  0.14414100  1
  C  840  1  0.49639900  0.51475700  0.15745700  1
  C  841  1  0.48560000  0.49091100  0.14108500  1
  C  842  1  0.47905500  0.49280900  0.11226200  1
  C  843  1  0.47416400  0.44872100  0.01952660  1
  C  844  1  0.46568200  0.42518300  0.00277264  1
  C  845  1  0.45120700  0.42775500  0.97405700  1
  C  846  1  0.44703100  0.45433500  0.96250900  1
  C  847  1  0.45642700  0.47775800  0.97927200  1
  C  848  1  0.44481500  0.57782500  0.98784700  1
  C  849  1  0.45044500  0.60371100  0.97505900  1
  C  850  1  0.47443600  0.62768100  0.99057200  1
  C  851  1  0.49088200  0.62507000  0.01923860  1
  C  852  1  0.48403100  0.59916800  0.03200760  1
  C  863  1  0.46550100  0.54846600  0.02916760  1
  C  865  1  0.47022300  0.49947600  0.02517660  1
  C  867  1  0.47724800  0.52057400  0.06951060  1
  C  870  1  0.49793000  0.65249400  0.97770600  1
  C  872  1  0.50558500  0.51243000  0.18584000  1
  C  873  1  0.42519400  0.40531100  0.95770300  1
  C  877  1  0.96739700  0.83312900  0.73898400  1
  C  878  1  0.98156400  0.92371400  0.69595400  1
  C  879  1  0.96254000  0.84146800  0.63963100  1
  C  880  1  0.99285000  0.94033300  0.67215500  1
  C  881  1  0.99999300  0.96912700  0.67398100  1
  C  882  1  0.99474700  0.98245100  0.69974500  1
  C  883  1  0.98462900  0.96606800  0.72360600  1
  C  884  1  0.97775200  0.93724500  0.72171800  1
  C  885  1  0.97320300  0.84442400  0.76581200  1
  C  886  1  0.96498200  0.82763300  0.78933000  1
  C  887  1  0.95085400  0.79891100  0.78672100  1
  C  888  1  0.94698800  0.78739200  0.76012900  1
  C  889  1  0.95621500  0.80418700  0.73672600  1
  C  890  1  0.94462300  0.81276100  0.63673900  1
  C  891  1  0.95071400  0.79995000  0.61087000  1
  C  892  1  0.97509200  0.81544100  0.58690200  1
  C  893  1  0.99133400  0.84411600  0.58950500  1
  C  894  1  0.98366900  0.85692200  0.61538000  1
  C  905  1  0.96444700  0.85411900  0.66607100  1
  C  907  1  0.96912800  0.85013400  0.71506200  1
  C  909  1  0.97523400  0.89448100  0.69396400  1
  C  912  1  0.99918900  0.80254600  0.56213600  1
  C  914  1  0.00489559  0.01083200  0.70208700  1
  C  915  1  0.92517700  0.78251000  0.80915600  1
  C  919  1  0.97271200  0.20645500  0.65050200  1
  C  920  1  0.96094700  0.11586300  0.69348700  1
  C  921  1  0.96595000  0.19817900  0.74984500  1
  C  922  1  0.94594500  0.09923600  0.71718300  1
  C  923  1  0.93868300  0.07044800  0.71528500  1
  C  924  1  0.94745000  0.05715300  0.68955600  1
  C  925  1  0.96143500  0.07352900  0.66579000  1
  C  926  1  0.96850900  0.10234500  0.66775100  1
  C  927  1  0.97723700  0.19511500  0.62368200  1
  C  928  1  0.96873300  0.21188600  0.60015400  1
  C  929  1  0.95545300  0.24062700  0.60275400  1
  C  930  1  0.95319600  0.25219900  0.62933200  1
  C  931  1  0.96291300  0.23542400  0.65273900  1
  C  932  1  0.94974600  0.22693100  0.75273100  1
  C  933  1  0.95495700  0.23967400  0.77864100  1
  C  934  1  0.97688700  0.22406800  0.80264800  1
  C  935  1  0.99214400  0.19536900  0.80002300  1
  C  936  1  0.98519300  0.18262900  0.77410400  1
  C  947  1  0.96670100  0.18552500  0.72341300  1
  C  949  1  0.97260800  0.18946100  0.67443300  1
  C  951  1  0.96607300  0.14510700  0.69551800  1
  C  954  1  0.99962000  0.23686000  0.82752300  1
  C  956  1  0.93708700  0.02879500  0.68716100  1
  C  957  1  0.92867500  0.25701700  0.58037700  1
  H  91  1  0.99474500  0.56768300  0.03402400  1
  H  92  1  0.00617200  0.56451200  0.08276700  1
  H  93  1  0.98763500  0.54311000  0.21416400  1
  H  94  1  0.01098800  0.59363000  0.14363800  1
  H  95  1  0.99475500  0.63339500  0.17206300  1
  H  96  1  0.97092200  0.58275300  0.24228000  1
  H  97  1  0.96593900  0.47869400  0.20864100  1
  H  98  1  0.04147000  0.39767300  0.15306200  1
  H  99  1  0.02857400  0.44142400  0.13135700  1
  H  100  1  0.97848500  0.43498400  0.23015800  1
  H  107  1  0.96619100  0.47822000  0.07736000  1
  H  109  1  0.95400200  0.48155300  0.02876900  1
  H  112  1  0.87966600  0.63334500  0.23763800  1
  H  113  1  0.90613200  0.54113800  0.99096200  1
  H  114  1  0.10858500  0.37696900  0.20129800  1
  H  133  1  0.01143700  0.47188300  0.94462900  1
  H  134  1  0.00011267  0.47499300  0.89588700  1
  H  135  1  0.98042300  0.49655100  0.76456700  1
  H  136  1  0.01109200  0.44594600  0.83489600  1
  H  137  1  0.99476600  0.40620900  0.80644900  1
  H  138  1  0.96367100  0.45692300  0.73642600  1
  H  139  1  0.95995700  0.56099700  0.77028300  1
  H  140  1  0.04110200  0.64192700  0.82561200  1
  H  141  1  0.02913700  0.59820900  0.84733400  1
  H  142  1  0.97169300  0.60470300  0.74873700  1
  H  149  1  0.03114400  0.56145500  0.90130000  1
  H  151  1  0.04328400  0.55819200  0.94989000  1
  H  154  1  0.87685300  0.40607300  0.74102300  1
  H  155  1  0.09528600  0.49854600  0.98776200  1
  H  156  1  0.10573500  0.66257300  0.77742700  1
  H  175  1  0.51143900  0.97499900  0.53725200  1
  H  176  1  0.49963100  0.92626500  0.53415900  1
  H  177  1  0.48040800  0.79489500  0.51252900  1
  H  178  1  0.50980600  0.86518900  0.56321800  1
  H  179  1  0.49391400  0.83668100  0.60292000  1
  H  180  1  0.46408900  0.76669100  0.55212000  1
  H  181  1  0.45965900  0.80059900  0.44817500  1
  H  182  1  0.54178500  0.85587100  0.36726200  1
  H  183  1  0.52878700  0.87764200  0.41094300  1
  H  184  1  0.47241200  0.77901200  0.40450800  1
  H  191  1  0.52710400  0.93168100  0.44764300  1
  H  193  1  0.53990200  0.98025300  0.45088800  1
  H  196  1  0.37744000  0.77102900  0.60292200  1
  H  197  1  0.59443600  0.01803400  0.51067000  1
  H  198  1  0.60708400  0.80767900  0.34670200  1
  H  217  1  0.49670700  0.06460000  0.44138200  1
  H  218  1  0.50869700  0.11333500  0.44459300  1
  H  219  1  0.48770600  0.24474100  0.46614500  1
  H  220  1  0.51292200  0.17433300  0.41551100  1
  H  221  1  0.49656500  0.20281300  0.37579200  1
  H  222  1  0.47085300  0.27291700  0.42654700  1
  H  223  1  0.46592400  0.23914400  0.53049900  1
  H  224  1  0.54090200  0.18353200  0.61151800  1
  H  225  1  0.52906100  0.16186500  0.56774300  1
  H  226  1  0.47744300  0.26062400  0.57424500  1
  H  233  1  0.46823700  0.10787600  0.53086600  1
  H  235  1  0.45544800  0.05930200  0.52749400  1
  H  238  1  0.38060100  0.26838200  0.37591900  1
  H  239  1  0.40695100  0.02164100  0.46778400  1
  H  240  1  0.60734900  0.23179100  0.63225500  1
  H  811  1  0.46500400  0.56768300  0.23941800  1
  H  812  1  0.47643100  0.56451200  0.28816100  1
  H  813  1  0.45789400  0.54311000  0.41955800  1
  H  814  1  0.48124700  0.59363000  0.34903200  1
  H  815  1  0.46501400  0.63339500  0.37745700  1
  H  816  1  0.44118100  0.58275300  0.44767400  1
  H  817  1  0.43619800  0.47869400  0.41403500  1
  H  818  1  0.51172900  0.39767300  0.35845600  1
  H  819  1  0.49883300  0.44142400  0.33675100  1
  H  820  1  0.44874400  0.43498400  0.43555200  1
  H  827  1  0.43645000  0.47822000  0.28275400  1
  H  829  1  0.42426100  0.48155300  0.23416300  1
  H  832  1  0.34992500  0.63334500  0.44303200  1
  H  833  1  0.37639100  0.54113800  0.19635600  1
  H  834  1  0.57884400  0.37696900  0.40669200  1
  H  853  1  0.48169600  0.47188300  0.15002300  1
  H  854  1  0.47042900  0.47499300  0.10128100  1
  H  855  1  0.45068200  0.49655100  0.96996100  1
  H  856  1  0.48135100  0.44594600  0.04028960  1
  H  857  1  0.46502500  0.40620900  0.01184260  1
  H  858  1  0.43393000  0.45692300  0.94182000  1
  H  859  1  0.43021600  0.56099700  0.97567700  1
  H  860  1  0.51136100  0.64192700  0.03100560  1
  H  861  1  0.49939600  0.59820900  0.05272760  1
  H  862  1  0.44195200  0.60470300  0.95413100  1
  H  869  1  0.50140300  0.56145500  0.10669400  1
  H  871  1  0.51354300  0.55819200  0.15528400  1
  H  874  1  0.34711200  0.40607300  0.94641700  1
  H  875  1  0.56554500  0.49854600  0.19315600  1
  H  876  1  0.57599400  0.66257300  0.98282100  1
  H  895  1  0.98169800  0.97499900  0.74264600  1
  H  896  1  0.96989000  0.92626500  0.73955300  1
  H  897  1  0.95066700  0.79489500  0.71792300  1
  H  898  1  0.98006500  0.86518900  0.76861200  1
  H  899  1  0.96417300  0.83668100  0.80831400  1
  H  900  1  0.93434800  0.76669100  0.75751400  1
  H  901  1  0.92991800  0.80059900  0.65356900  1
  H  902  1  0.01204359  0.85587100  0.57265600  1
  H  903  1  0.99904600  0.87764200  0.61633700  1
  H  904  1  0.94267100  0.77901200  0.60990200  1
  H  911  1  0.99736300  0.93168100  0.65303700  1
  H  913  1  0.01016059  0.98025300  0.65628200  1
  H  916  1  0.84769900  0.77102900  0.80831600  1
  H  917  1  0.06469460  0.01803400  0.71606400  1
  H  918  1  0.07734260  0.80767900  0.55209600  1
  H  937  1  0.96696600  0.06460000  0.64677600  1
  H  938  1  0.97895600  0.11333500  0.64998700  1
  H  939  1  0.95796500  0.24474100  0.67153900  1
  H  940  1  0.98318100  0.17433300  0.62090500  1
  H  941  1  0.96682400  0.20281300  0.58118600  1
  H  942  1  0.94111200  0.27291700  0.63194100  1
  H  943  1  0.93618300  0.23914400  0.73589300  1
  H  944  1  0.01116059  0.18353200  0.81691200  1
  H  945  1  0.99932000  0.16186500  0.77313700  1
  H  946  1  0.94770200  0.26062400  0.77963900  1
  H  953  1  0.93849600  0.10787600  0.73626000  1
  H  955  1  0.92570700  0.05930200  0.73288800  1
  H  958  1  0.85086000  0.26838200  0.58131300  1
  H  959  1  0.87721000  0.02164100  0.67317800  1
  H  960  1  0.07760760  0.23179100  0.83764900  1
  N  2  1  0.09740200  0.34861400  0.24896400  1
  N  4  1  0.87947600  0.34451700  0.25477400  1
  N  6  1  0.01649800  0.31664700  0.28013800  1
  N  7  1  0.23449200  0.32195800  0.27494600  1
  N  8  1  0.80619300  0.31110700  0.28719400  1
  N  9  1  0.96058700  0.37826100  0.22606400  1
  N  11  1  0.09552000  0.69092300  0.72978400  1
  N  13  1  0.87771000  0.69513800  0.72383500  1
  N  15  1  0.01534600  0.72293400  0.69856200  1
  N  16  1  0.23322200  0.71754400  0.70388600  1
  N  17  1  0.80511900  0.72858400  0.69139200  1
  N  18  1  0.95789600  0.66137500  0.75262500  1
  N  20  1  0.59673800  0.76007700  0.31819400  1
  N  22  1  0.37888700  0.75419500  0.31398300  1
  N  24  1  0.51634300  0.72893300  0.28613000  1
  N  25  1  0.73424200  0.73419600  0.29150100  1
  N  26  1  0.30604400  0.72184500  0.28048700  1
  N  27  1  0.45910400  0.78291100  0.34777400  1
  N  29  1  0.59612700  0.27938700  0.66057800  1
  N  31  1  0.37824800  0.28529600  0.66467600  1
  N  33  1  0.51551500  0.31060400  0.69253800  1
  N  34  1  0.73347300  0.30529500  0.68722800  1
  N  35  1  0.30528400  0.31774400  0.69811200  1
  N  36  1  0.45918700  0.25651400  0.63094600  1
  N  38  1  0.89480800  0.68604900  0.25014300  1
  N  40  1  0.11311600  0.69067900  0.25471900  1
  N  42  1  0.97759400  0.72036200  0.27842500  1
  N  43  1  0.75925100  0.71498500  0.27391300  1
  N  44  1  0.18806500  0.72626500  0.28455400  1
  N  45  1  0.03112500  0.65518700  0.22819800  1
  N  47  1  0.89379100  0.35353800  0.72845500  1
  N  49  1  0.11212600  0.34902300  0.72385600  1
  N  51  1  0.97685800  0.31921600  0.70023000  1
  N  52  1  0.75843300  0.32453600  0.70477500  1
  N  53  1  0.18725900  0.31335700  0.69408400  1
  N  54  1  0.02941300  0.38454000  0.75033500  1
  N  56  1  0.39530000  0.28076300  0.32317200  1
  N  58  1  0.61356400  0.28539000  0.31847900  1
  N  60  1  0.47777300  0.30899800  0.28878300  1
  N  61  1  0.25947300  0.30442400  0.29420200  1
  N  62  1  0.68818600  0.31516400  0.28279600  1
  N  63  1  0.53184500  0.25889200  0.35402900  1
  N  65  1  0.39339200  0.75881400  0.65562600  1
  N  67  1  0.61176800  0.75429300  0.66014300  1
  N  69  1  0.47665400  0.73061300  0.68994600  1
  N  70  1  0.25821100  0.73509100  0.68464400  1
  N  71  1  0.68710500  0.72453800  0.69579100  1
  N  72  1  0.52890900  0.78074600  0.62463500  1
  N  102  1  0.99933300  0.51456600  0.17014900  1
  N  104  1  0.99780100  0.54164300  0.13096000  1
  N  106  1  0.99286400  0.49410300  0.12725400  1
  N  144  1  0.99464300  0.52504900  0.80858300  1
  N  146  1  0.00579700  0.49793500  0.84767700  1
  N  148  1  0.00194800  0.54547000  0.85147900  1
  N  186  1  0.49385500  0.83893400  0.48409400  1
  N  188  1  0.50411600  0.87803700  0.51121000  1
  N  190  1  0.50030000  0.88183200  0.46367200  1
  N  228  1  0.50015900  0.20070300  0.49461200  1
  N  230  1  0.49964500  0.16154000  0.46749000  1
  N  232  1  0.49441200  0.15778500  0.51502600  1
  N  722  1  0.56766100  0.34861400  0.45435800  1
  N  724  1  0.34973500  0.34451700  0.46016800  1
  N  726  1  0.48675700  0.31664700  0.48553200  1
  N  727  1  0.70475100  0.32195800  0.48034000  1
  N  728  1  0.27645160  0.31110700  0.49258800  1
  N  729  1  0.43084600  0.37826100  0.43145800  1
  N  731  1  0.56577900  0.69092300  0.93517800  1
  N  733  1  0.34796900  0.69513800  0.92922900  1
  N  735  1  0.48560500  0.72293400  0.90395600  1
  N  736  1  0.70348100  0.71754400  0.90928000  1
  N  737  1  0.27537760  0.72858400  0.89678600  1
  N  738  1  0.42815500  0.66137500  0.95801900  1
  N  740  1  0.06699660  0.76007700  0.52358800  1
  N  742  1  0.84914600  0.75419500  0.51937700  1
  N  744  1  0.98660200  0.72893300  0.49152400  1
  N  745  1  0.20450060  0.73419600  0.49689500  1
  N  746  1  0.77630300  0.72184500  0.48588100  1
  N  747  1  0.92936300  0.78291100  0.55316800  1
  N  749  1  0.06638560  0.27938700  0.86597200  1
  N  751  1  0.84850700  0.28529600  0.87007000  1
  N  753  1  0.98577400  0.31060400  0.89793200  1
  N  754  1  0.20373160  0.30529500  0.89262200  1
  N  755  1  0.77554300  0.31774400  0.90350600  1
  N  756  1  0.92944600  0.25651400  0.83634000  1
  N  758  1  0.36506700  0.68604900  0.45553700  1
  N  760  1  0.58337500  0.69067900  0.46011300  1
  N  762  1  0.44785300  0.72036200  0.48381900  1
  N  763  1  0.22950960  0.71498500  0.47930700  1
  N  764  1  0.65832400  0.72626500  0.48994800  1
  N  765  1  0.50138400  0.65518700  0.43359200  1
  N  767  1  0.36405000  0.35353800  0.93384900  1
  N  769  1  0.58238500  0.34902300  0.92925000  1
  N  771  1  0.44711700  0.31921600  0.90562400  1
  N  772  1  0.22869160  0.32453600  0.91016900  1
  N  773  1  0.65751800  0.31335700  0.89947800  1
  N  774  1  0.49967200  0.38454000  0.95572900  1
  N  776  1  0.86555900  0.28076300  0.52856600  1
  N  778  1  0.08382260  0.28539000  0.52387300  1
  N  780  1  0.94803200  0.30899800  0.49417700  1
  N  781  1  0.72973200  0.30442400  0.49959600  1
  N  782  1  0.15844460  0.31516400  0.48819000  1
  N  783  1  0.00210359  0.25889200  0.55942300  1
  N  785  1  0.86365100  0.75881400  0.86102000  1
  N  787  1  0.08202660  0.75429300  0.86553700  1
  N  789  1  0.94691300  0.73061300  0.89534000  1
  N  790  1  0.72847000  0.73509100  0.89003800  1
  N  791  1  0.15736360  0.72453800  0.90118500  1
  N  792  1  0.99916800  0.78074600  0.83002900  1
  N  822  1  0.46959200  0.51456600  0.37554300  1
  N  824  1  0.46806000  0.54164300  0.33635400  1
  N  826  1  0.46312300  0.49410300  0.33264800  1
  N  864  1  0.46490200  0.52504900  0.01397660  1
  N  866  1  0.47605600  0.49793500  0.05307060  1
  N  868  1  0.47220700  0.54547000  0.05687260  1
  N  906  1  0.96411400  0.83893400  0.68948800  1
  N  908  1  0.97437500  0.87803700  0.71660400  1
  N  910  1  0.97055900  0.88183200  0.66906600  1
  N  948  1  0.97041800  0.20070300  0.70000600  1
  N  950  1  0.96990400  0.16154000  0.67288400  1
  N  952  1  0.96467100  0.15778500  0.72042000  1
