# generated using pymatgen
data_SiH32(C9N)4
_symmetry_space_group_name_H-M   'P 1'
_cell_length_a   28.83171774
_cell_length_b   28.83171774
_cell_length_c   28.83171774
_cell_angle_alpha   109.47122063
_cell_angle_beta   109.47122063
_cell_angle_gamma   109.47122063
_symmetry_Int_Tables_number   1
_chemical_formula_structural   SiH32(C9N)4
_chemical_formula_sum   'Si6 H192 C216 N24'
_cell_volume   18449.71501654
_cell_formula_units_Z   6
loop_
 _symmetry_equiv_pos_site_id
 _symmetry_equiv_pos_as_xyz
  1  'x, y, z'
loop_
 _atom_site_type_symbol
 _atom_site_label
 _atom_site_symmetry_multiplicity
 _atom_site_fract_x
 _atom_site_fract_y
 _atom_site_fract_z
 _atom_site_occupancy
  C  1  1  0.52061850  0.04992000  0.05386150  1
  C  2  1  0.50151400  0.99614800  0.04970200  1
  C  3  1  0.46671000  0.94612700  0.99606000  1
  C  4  1  0.45179050  0.95028650  0.94644800  1
  C  5  1  0.47068100  0.00393000  0.95007000  1
  C  6  1  0.50543350  0.05354200  0.00384150  1
  C  16  1  0.97481450  0.53097200  0.02700150  1
  C  17  1  0.99389650  0.54588950  0.99231000  1
  C  18  1  0.02868850  0.52703650  0.97708700  1
  C  19  1  0.04357350  0.49231400  0.99613950  1
  C  20  1  0.02469050  0.47705750  0.03090000  1
  C  21  1  0.99001050  0.49615250  0.04582600  1
  C  31  1  0.50166750  0.45003250  0.47299600  1
  C  32  1  0.55126400  0.50381650  0.50772850  1
  C  33  1  0.54761550  0.55382000  0.52294250  1
  C  34  1  0.49383050  0.54963300  0.50384150  1
  C  35  1  0.44382600  0.49597800  0.46904300  1
  C  36  1  0.44801350  0.44638250  0.45414600  1
  C  46  1  0.99378050  0.96909800  0.44616350  1
  C  47  1  0.94418300  0.95419550  0.45035050  1
  C  48  1  0.94783000  0.97300400  0.50400300  1
  C  49  1  0.00161200  0.00768200  0.55360000  1
  C  50  1  0.05161850  0.02291950  0.54995200  1
  C  51  1  0.04743400  0.00387750  0.49616950  1
  C  61  1  0.02075850  0.05393450  0.04983300  1
  C  62  1  0.00162200  0.04962500  0.99599600  1
  C  63  1  0.96680600  0.99591550  0.94605550  1
  C  64  1  0.95200450  0.94638750  0.95036600  1
  C  65  1  0.97092600  0.95015550  0.00407250  1
  C  66  1  0.00562000  0.00399350  0.05360050  1
  C  76  1  0.47483500  0.02695450  0.53095850  1
  C  77  1  0.49390050  0.99219650  0.54574500  1
  C  78  1  0.52870100  0.97704000  0.52685100  1
  C  79  1  0.54355900  0.99617850  0.49216350  1
  C  80  1  0.52470100  0.03101450  0.47704450  1
  C  81  1  0.49001150  0.04587050  0.49618100  1
  C  91  1  0.00187050  0.47317800  0.45020050  1
  C  92  1  0.05141050  0.50783650  0.50403100  1
  C  93  1  0.04766000  0.52298450  0.55398050  1
  C  94  1  0.99382950  0.50390000  0.54968850  1
  C  95  1  0.94388100  0.46910750  0.49598850  1
  C  96  1  0.94817200  0.45431250  0.44645050  1
  C  106  1  0.49369800  0.44604700  0.96896800  1
  C  107  1  0.44415900  0.45033650  0.95412850  1
  C  108  1  0.44790750  0.50403550  0.97308000  1
  C  109  1  0.50173500  0.55357400  0.00783000  1
  C  110  1  0.55168550  0.54982500  0.02295850  1
  C  111  1  0.54739500  0.49599300  0.00381000  1
  C  241  1  0.38584400  0.02248800  0.83824800  1
  C  242  1  0.37049350  0.06432150  0.85500700  1
  C  243  1  0.36682800  0.09598750  0.82735050  1
  C  244  1  0.37976450  0.08791150  0.78294500  1
  C  245  1  0.39283850  0.04427150  0.76482500  1
  C  246  1  0.39632200  0.01245600  0.79238400  1
  C  248  1  0.30273150  0.09904250  0.71701000  1
  C  249  1  0.26638350  0.04170550  0.67259700  1
  C  250  1  0.20706350  0.01773900  0.64494750  1
  C  251  1  0.18200850  0.04986450  0.66172800  1
  C  252  1  0.21786150  0.10620550  0.70759500  1
  C  253  1  0.27723200  0.13025550  0.73514550  1
  C  254  1  0.40966950  0.19485250  0.79404300  1
  C  255  1  0.39855900  0.11778450  0.70590050  1
  C  256  1  0.36737300  0.10469800  0.64918000  1
  C  257  1  0.39145700  0.10120650  0.61388750  1
  C  258  1  0.44780050  0.11168850  0.63440900  1
  C  259  1  0.47990050  0.12704800  0.69160050  1
  C  260  1  0.45590700  0.13073500  0.72692800  1
  C  261  1  0.45327050  0.22037850  0.85077900  1
  C  262  1  0.48506550  0.27975350  0.88608300  1
  C  263  1  0.47505450  0.31558350  0.86555800  1
  C  264  1  0.43325200  0.29050400  0.80836000  1
  C  265  1  0.40160550  0.23118200  0.77302550  1
  C  281  1  0.47180250  0.10485850  0.59597800  1
  C  284  1  0.50664500  0.37801350  0.90400250  1
  C  287  1  0.11958350  0.02590850  0.63091600  1
  C  291  1  0.39270150  0.99089350  0.86908000  1
  C  294  1  0.10952150  0.45003350  0.13425500  1
  C  295  1  0.12497900  0.48221350  0.19146450  1
  C  296  1  0.12869000  0.45827600  0.22684300  1
  C  297  1  0.11568200  0.40091350  0.20585750  1
  C  298  1  0.10247550  0.36964000  0.14910650  1
  C  299  1  0.09895650  0.39366350  0.11376300  1
  C  301  1  0.19273700  0.41209650  0.29408650  1
  C  302  1  0.22910600  0.40412000  0.27308400  1
  C  303  1  0.28842300  0.43576400  0.30845600  1
  C  304  1  0.31346400  0.47749400  0.36567500  1
  C  305  1  0.27760100  0.48744450  0.38618050  1
  C  306  1  0.21823300  0.45564800  0.35083800  1
  C  307  1  0.08579850  0.38220100  0.28293550  1
  C  308  1  0.09693300  0.30513300  0.21703100  1
  C  309  1  0.12821050  0.27963250  0.23503500  1
  C  310  1  0.10417650  0.22026200  0.20744650  1
  C  311  1  0.04779850  0.18440450  0.16165500  1
  C  312  1  0.01561950  0.20945300  0.14499550  1
  C  313  1  0.03956950  0.26877100  0.17268050  1
  C  314  1  0.04226750  0.39543800  0.26492050  1
  C  315  1  0.01049150  0.39899000  0.29251650  1
  C  316  1  0.02043550  0.38839700  0.33830450  1
  C  317  1  0.06214850  0.37287950  0.35495600  1
  C  318  1  0.09378550  0.36916500  0.32727250  1
  C  334  1  0.02383850  0.12197600  0.13081850  1
  C  337  1  0.98885900  0.39527450  0.36915750  1
  C  340  1  0.37588400  0.50907150  0.40415650  1
  C  344  1  0.10265350  0.47397050  0.09577000  1
  C  453  1  0.54772550  0.16184350  0.18423900  1
  C  454  1  0.51555300  0.14513550  0.20927750  1
  C  455  1  0.53950650  0.17277750  0.26859500  1
  C  456  1  0.59688700  0.21710100  0.30496600  1
  C  457  1  0.62814300  0.23517250  0.27947650  1
  C  458  1  0.60410450  0.20763400  0.22010650  1
  C  460  1  0.58568950  0.28295100  0.38202850  1
  C  461  1  0.59363300  0.32727800  0.36898100  1
  C  462  1  0.56195400  0.35491400  0.37268100  1
  C  463  1  0.52021650  0.33819950  0.38816000  1
  C  464  1  0.51029700  0.29239650  0.39872750  1
  C  465  1  0.54213150  0.26486350  0.39521200  1
  C  466  1  0.61561350  0.20591550  0.40074500  1
  C  467  1  0.69266000  0.29414300  0.41191400  1
  C  468  1  0.71815700  0.35090850  0.45543550  1
  C  469  1  0.77752550  0.38624150  0.48724200  1
  C  470  1  0.81338850  0.36572200  0.47732050  1
  C  471  1  0.78834200  0.30850000  0.43559300  1
  C  472  1  0.72902450  0.27313450  0.40394400  1
  C  473  1  0.60236250  0.14914450  0.36947800  1
  C  474  1  0.59883950  0.11381700  0.39352150  1
  C  475  1  0.60945500  0.13434750  0.44990950  1
  C  476  1  0.62497300  0.19157550  0.48208850  1
  C  477  1  0.62867900  0.22693550  0.45812950  1
  C  493  1  0.87581700  0.40418100  0.50893900  1
  C  496  1  0.60259650  0.09588800  0.47387850  1
  C  499  1  0.48859700  0.36900150  0.39503150  1
  C  503  1  0.52377700  0.13102900  0.12181500  1
  C  506  1  0.97525550  0.86572850  0.31578100  1
  C  507  1  0.93351850  0.80851500  0.29074350  1
  C  508  1  0.90186050  0.77314350  0.23142400  1
  C  509  1  0.90984000  0.79414250  0.19505350  1
  C  510  1  0.95338400  0.85089850  0.22054750  1
  C  511  1  0.98519750  0.88623450  0.27991700  1
  C  513  1  0.89866750  0.70590900  0.11801550  1
  C  514  1  0.95603600  0.72689300  0.13104200  1
  C  515  1  0.97997250  0.69151300  0.12734150  1
  C  516  1  0.94777750  0.63429650  0.11185400  1
  C  517  1  0.89140100  0.61380150  0.10126350  1
  C  518  1  0.86737900  0.64914700  0.10477900  1
  C  519  1  0.80288450  0.71708300  0.09923750  1
  C  520  1  0.87997200  0.78297900  0.08811400  1
  C  521  1  0.89322600  0.76496400  0.04459900  1
  C  522  1  0.89677550  0.79254350  0.01280900  1
  C  523  1  0.88617900  0.83832950  0.02273350  1
  C  524  1  0.87066050  0.85499100  0.06444150  1
  C  525  1  0.86693350  0.82731400  0.09608350  1
  C  526  1  0.77737250  0.73506850  0.13050900  1
  C  527  1  0.71799950  0.70748300  0.10645950  1
  C  528  1  0.68215300  0.66170550  0.05007350  1
  C  529  1  0.70721350  0.64505600  0.01790150  1
  C  530  1  0.76653250  0.67274450  0.04186500  1
  C  546  1  0.89303850  0.86915200  0.99112850  1
  C  549  1  0.61972600  0.63086300  0.02610000  1
  C  552  1  0.97170750  0.59580500  0.10497450  1
  C  556  1  0.00685450  0.90420900  0.37820450  1
  C  665  1  0.36333800  0.81576100  0.97754000  1
  C  666  1  0.30615600  0.79068450  0.93569750  1
  C  667  1  0.27082500  0.73136200  0.90402800  1
  C  668  1  0.29183750  0.69503450  0.91211100  1
  C  669  1  0.34854950  0.72055600  0.95575750  1
  C  670  1  0.38384850  0.77993000  0.98757250  1
  C  672  1  0.20366950  0.61797150  0.90097600  1
  C  673  1  0.22465500  0.63089900  0.95831500  1
  C  674  1  0.18929650  0.62722150  0.98227600  1
  C  675  1  0.13211850  0.61188300  0.95014750  1
  C  676  1  0.11163750  0.60140750  0.89380600  1
  C  677  1  0.14696000  0.60490050  0.86975950  1
  C  678  1  0.21480350  0.59918550  0.80516900  1
  C  679  1  0.28076300  0.58812200  0.88224600  1
  C  680  1  0.26267500  0.54449700  0.89534700  1
  C  681  1  0.29026100  0.51270850  0.89885550  1
  C  682  1  0.33611950  0.52274600  0.88836550  1
  C  683  1  0.35284850  0.56456500  0.87298950  1
  C  684  1  0.32515850  0.59619750  0.86929200  1
  C  685  1  0.23288500  0.63038950  0.77964050  1
  C  686  1  0.20529200  0.60632000  0.72026600  1
  C  687  1  0.15944100  0.54997100  0.68443800  1
  C  688  1  0.14272350  0.51785250  0.70952000  1
  C  689  1  0.17040450  0.54183900  0.76884250  1
  C  705  1  0.36695450  0.49114650  0.89519400  1
  C  708  1  0.12859350  0.52598750  0.62201000  1
  C  711  1  0.09364350  0.60502400  0.97409450  1
  C  715  1  0.40179250  0.87818800  0.00912850  1
  C  718  1  0.65946200  0.68420800  0.54996000  1
  C  719  1  0.64274150  0.70923400  0.51777550  1
  C  720  1  0.67039350  0.76854950  0.54171000  1
  C  721  1  0.71475150  0.80493150  0.59907200  1
  C  722  1  0.73281800  0.77945350  0.63034850  1
  C  723  1  0.70526650  0.72008400  0.60632850  1
  C  725  1  0.78061850  0.88196650  0.58787700  1
  C  726  1  0.82495300  0.86892550  0.59583950  1
  C  727  1  0.85261450  0.87264150  0.56418400  1
  C  728  1  0.83592400  0.88813400  0.52245700  1
  C  729  1  0.79012500  0.89870600  0.51252100  1
  C  730  1  0.76256050  0.89516900  0.54432650  1
  C  731  1  0.70358850  0.90072200  0.61778650  1
  C  732  1  0.79179550  0.91188700  0.69484650  1
  C  733  1  0.84857550  0.95538400  0.72033950  1
  C  734  1  0.88391800  0.98717600  0.77971100  1
  C  735  1  0.86339950  0.97725850  0.81557400  1
  C  736  1  0.80616950  0.93555500  0.79053250  1
  C  737  1  0.77079800  0.90391200  0.73121600  1
  C  738  1  0.64682150  0.86947700  0.60455150  1
  C  739  1  0.61150000  0.89352700  0.60101200  1
  C  740  1  0.63203750  0.94990700  0.61160750  1
  C  741  1  0.68926800  0.98207100  0.62711600  1
  C  742  1  0.72461550  0.95809800  0.63082450  1
  C  758  1  0.90186950  0.00886650  0.87800200  1
  C  761  1  0.59359000  0.97388950  0.60474350  1
  C  764  1  0.86676150  0.89503200  0.49087250  1
  C  768  1  0.62865500  0.62178650  0.52602450  1
  H  7  1  0.42578800  0.91417150  0.90746950  1
  H  8  1  0.51840350  0.09252100  0.00670150  1
  H  9  1  0.51164850  0.99328650  0.08582100  1
  H  11  1  0.59109200  0.12422500  0.11445300  1
  H  13  1  0.46670450  0.99014900  0.87570050  1
  H  15  1  0.47651050  0.88552350  0.00981100  1
  H  22  1  0.06955400  0.47930850  0.98600150  1
  H  23  1  0.97699100  0.48599850  0.07179050  1
  H  24  1  0.98380550  0.57191150  0.97935000  1
  H  26  1  0.90436600  0.52113100  0.03087000  1
  H  28  1  0.02858600  0.40662200  0.02106400  1
  H  30  1  0.01891100  0.53101300  0.90669700  1
  H  37  1  0.49095000  0.58574100  0.51397100  1
  H  38  1  0.41190750  0.40739300  0.42812950  1
  H  39  1  0.59025150  0.50669500  0.52071450  1
  H  41  1  0.48796450  0.37570450  0.46909700  1
  H  43  1  0.38319200  0.50966850  0.47883550  1
  H  45  1  0.62193400  0.61444550  0.59337850  1
  H  52  1  0.00449450  0.02066350  0.59258800  1
  H  53  1  0.08354000  0.01398100  0.49328700  1
  H  54  1  0.90519500  0.92820050  0.41423950  1
  H  56  1  0.00748250  0.97890650  0.38554200  1
  H  58  1  0.11224050  0.09330700  0.62431450  1
  H  60  1  0.87352200  0.96914400  0.49032400  1
  H  67  1  0.92599950  0.90736100  0.91430550  1
  H  68  1  0.01864300  0.00696550  0.09262850  1
  H  69  1  0.01165350  0.08568100  0.99302550  1
  H  71  1  0.09120150  0.11467250  0.12409100  1
  H  73  1  0.96713550  0.87590650  0.99055300  1
  H  75  1  0.97654100  0.00943950  0.88532750  1
  H  82  1  0.56955000  0.98609750  0.47914050  1
  H  83  1  0.47702250  0.07189900  0.48614050  1
  H  84  1  0.48385400  0.97920200  0.57176800  1
  H  86  1  0.40442100  0.03084700  0.52124100  1
  H  88  1  0.52846050  0.02123150  0.40656000  1
  H  90  1  0.51892250  0.90656500  0.53062750  1
  H  97  1  0.99087250  0.51391850  0.58575300  1
  H  98  1  0.91210550  0.42830200  0.40743050  1
  H  99  1  0.09042900  0.52082100  0.50698600  1
  H  101  1  0.98835200  0.46940950  0.37595950  1
  H  103  1  0.88318250  0.47887600  0.50955150  1
  H  105  1  0.12196100  0.59338600  0.61470500  1
  H  112  1  0.50469050  0.59259400  0.02083850  1
  H  113  1  0.58346300  0.49304300  0.01384000  1
  H  114  1  0.40513550  0.41426900  0.92812250  1
  H  116  1  0.50725750  0.38532700  0.97868750  1
  H  118  1  0.61239850  0.62407150  0.09343100  1
  H  120  1  0.37361300  0.49043300  0.96921600  1
  H  266  1  0.36749500  0.09096200  0.57292300  1
  H  267  1  0.32696250  0.09815200  0.63260050  1
  H  268  1  0.52090850  0.13512250  0.70791200  1
  H  269  1  0.48093450  0.14212950  0.76810800  1
  H  270  1  0.46328200  0.19654150  0.86736350  1
  H  271  1  0.51576000  0.29674650  0.92705350  1
  H  272  1  0.42503150  0.31520550  0.79204800  1
  H  273  1  0.37184450  0.21503550  0.73183700  1
  H  274  1  0.30108050  0.17066450  0.76901200  1
  H  275  1  0.20088450  0.13018700  0.72133350  1
  H  276  1  0.18234550  0.97672800  0.61202050  1
  H  277  1  0.28251050  0.01665150  0.65895700  1
  H  278  1  0.39937850  0.03423950  0.73095700  1
  H  279  1  0.35542350  0.12576400  0.84098250  1
  H  280  1  0.36242350  0.07255350  0.88794200  1
  H  282  1  0.51759000  0.12181500  0.62070400  1
  H  283  1  0.46609450  0.12934300  0.57475550  1
  H  285  1  0.55235150  0.39353050  0.92527300  1
  H  286  1  0.49891300  0.39908600  0.87927900  1
  H  288  1  0.10407600  0.03163200  0.66111400  1
  H  289  1  0.09848950  0.98011800  0.60207050  1
  H  290  1  0.40656500  0.98173750  0.77865750  1
  H  292  1  0.36823050  0.94518400  0.83889350  1
  H  293  1  0.37575050  0.99865550  0.89792000  1
  H  319  1  0.12820200  0.20329100  0.22110600  1
  H  320  1  0.16865200  0.30348250  0.26884250  1
  H  321  1  0.97458650  0.18473500  0.11211250  1
  H  322  1  0.01448400  0.28489350  0.15910950  1
  H  323  1  0.03231250  0.40208600  0.23112150  1
  H  324  1  0.97986050  0.40935300  0.27886650  1
  H  325  1  0.07031850  0.36472300  0.38783450  1
  H  326  1  0.12348100  0.35764950  0.34083950  1
  H  327  1  0.19437550  0.46560200  0.36742350  1
  H  328  1  0.29456700  0.51808700  0.42716800  1
  H  329  1  0.31314550  0.42757950  0.29216000  1
  H  330  1  0.21298800  0.37438500  0.23189300  1
  H  331  1  0.09586850  0.32920600  0.13253750  1
  H  332  1  0.14016800  0.48336400  0.26803600  1
  H  333  1  0.13311950  0.52324200  0.20775750  1
  H  335  1  0.97803650  0.10088500  0.10202650  1
  H  336  1  0.02962100  0.10647150  0.16101850  1
  H  338  1  0.94315400  0.37089050  0.33896750  1
  H  339  1  0.99653900  0.37823100  0.39792100  1
  H  341  1  0.39140400  0.55477800  0.42545800  1
  H  342  1  0.39698800  0.50137250  0.37945950  1
  H  343  1  0.08863200  0.36963950  0.07278350  1
  H  345  1  0.12706700  0.46817350  0.07448350  1
  H  346  1  0.11966200  0.51977250  0.12046250  1
  H  478  1  0.79449350  0.42723050  0.51788300  1
  H  479  1  0.69429950  0.36749600  0.46538650  1
  H  480  1  0.81306450  0.29218550  0.42743900  1
  H  481  1  0.71290650  0.23193250  0.37423400  1
  H  482  1  0.59570500  0.13254850  0.32902750  1
  H  483  1  0.58847150  0.07282150  0.36949600  1
  H  484  1  0.63313400  0.20789250  0.52312450  1
  H  485  1  0.64017500  0.26813700  0.48321200  1
  H  486  1  0.53219200  0.23105100  0.40184200  1
  H  487  1  0.47965100  0.27869750  0.40906050  1
  H  488  1  0.57011450  0.38781350  0.36455800  1
  H  489  1  0.62336550  0.34091100  0.35752750  1
  H  490  1  0.66858700  0.26897800  0.30333800  1
  H  491  1  0.51443100  0.15915600  0.28470800  1
  H  492  1  0.47452350  0.11224750  0.18455000  1
  H  494  1  0.89690700  0.37946600  0.50125100  1
  H  495  1  0.89130100  0.42546050  0.55463950  1
  H  497  1  0.62697500  0.07456700  0.46805400  1
  H  498  1  0.61965150  0.12060650  0.51968700  1
  H  500  1  0.44289850  0.33878900  0.37061250  1
  H  501  1  0.49628100  0.39780000  0.37802600  1
  H  502  1  0.62812500  0.22132100  0.20314400  1
  H  504  1  0.52960700  0.16123650  0.10632250  1
  H  505  1  0.47796700  0.10227050  0.10071250  1
  H  531  1  0.90713700  0.77887900  0.98217800  1
  H  532  1  0.89986550  0.73115750  0.03464800  1
  H  533  1  0.86248850  0.88786050  0.07258900  1
  H  534  1  0.85540550  0.84088200  0.12576650  1
  H  535  1  0.80121650  0.76887200  0.17095150  1
  H  536  1  0.70102100  0.72113150  0.13047850  1
  H  537  1  0.68250100  0.61218400  0.97686300  1
  H  538  1  0.78266250  0.65918050  0.01678400  1
  H  539  1  0.82694050  0.63257800  0.09815650  1
  H  540  1  0.86736450  0.57281600  0.09091450  1
  H  541  1  0.02100700  0.70780900  0.13550000  1
  H  542  1  0.98113750  0.76809650  0.14255100  1
  H  543  1  0.96335550  0.86747450  0.19669300  1
  H  544  1  0.87213900  0.73194900  0.21530800  1
  H  545  1  0.92534250  0.79221550  0.31546800  1
  H  547  1  0.87601450  0.89793300  0.99881650  1
  H  548  1  0.86862800  0.83894500  0.94542700  1
  H  550  1  0.60421800  0.66105950  0.03190650  1
  H  551  1  0.59864050  0.60209700  0.98029350  1
  H  553  1  0.96588400  0.57449200  0.12936000  1
  H  554  1  0.01751700  0.62049750  0.12200550  1
  H  555  1  0.01584850  0.92721800  0.29688250  1
  H  557  1  0.05255750  0.92549550  0.39370900  1
  H  558  1  0.99915550  0.87950950  0.39930800  1
  H  690  1  0.27655350  0.48199800  0.90910850  1
  H  691  1  0.22881550  0.53446800  0.90190250  1
  H  692  1  0.38577800  0.57280250  0.86491050  1
  H  693  1  0.33878650  0.62597650  0.85789000  1
  H  694  1  0.26672650  0.67081350  0.80347400  1
  H  695  1  0.21899200  0.63029600  0.70327000  1
  H  696  1  0.10979250  0.47684450  0.68482300  1
  H  697  1  0.15678950  0.51680300  0.78499150  1
  H  698  1  0.13040650  0.59835950  0.82935000  1
  H  699  1  0.07068200  0.59116750  0.86982150  1
  H  700  1  0.20558200  0.63530350  0.02328650  1
  H  701  1  0.26583350  0.64231150  0.98337100  1
  H  702  1  0.36512000  0.69672000  0.96579100  1
  H  703  1  0.22964650  0.71521950  0.87424900  1
  H  704  1  0.28985600  0.81538800  0.92746200  1
  H  706  1  0.39577500  0.49891000  0.87822400  1
  H  707  1  0.33676050  0.44543900  0.87071950  1
  H  709  1  0.15877300  0.53170100  0.60648000  1
  H  710  1  0.09975600  0.48019650  0.60093650  1
  H  712  1  0.07240250  0.62948700  0.96835950  1
  H  713  1  0.11833750  0.62197750  0.01988700  1
  H  714  1  0.42480650  0.79692150  0.01829400  1
  H  716  1  0.42305250  0.89371450  0.05483800  1
  H  717  1  0.37707950  0.89926850  0.00138300  1
  H  743  1  0.92491250  0.01780100  0.79667550  1
  H  744  1  0.86516450  0.96533000  0.69648250  1
  H  745  1  0.78985900  0.92740500  0.81525800  1
  H  746  1  0.72958850  0.87422600  0.71509950  1
  H  747  1  0.63021900  0.82903050  0.59791050  1
  H  748  1  0.57050600  0.86951550  0.59065650  1
  H  749  1  0.70559550  0.02310550  0.63527400  1
  H  750  1  0.76582450  0.98317500  0.64233450  1
  H  751  1  0.72876000  0.90181450  0.53438450  1
  H  752  1  0.77644850  0.90905650  0.48188300  1
  H  753  1  0.88551500  0.86451900  0.57235800  1
  H  754  1  0.83857000  0.85746750  0.62557150  1
  H  755  1  0.76663850  0.80331850  0.67078400  1
  H  756  1  0.65678400  0.78465550  0.51662050  1
  H  757  1  0.60985300  0.68450000  0.47674800  1
  H  759  1  0.87715900  0.00118250  0.89909750  1
  H  760  1  0.92315950  0.05456600  0.89349250  1
  H  762  1  0.57228150  0.96809050  0.62913800  1
  H  763  1  0.61831600  0.01969450  0.62178150  1
  H  765  1  0.83656900  0.87064800  0.44516800  1
  H  766  1  0.89554300  0.87800700  0.49854700  1
  H  767  1  0.71896100  0.70313100  0.63035500  1
  H  769  1  0.65886400  0.60629450  0.53182050  1
  H  770  1  0.59986050  0.60067500  0.48021950  1
  N  10  1  0.55250000  0.09840650  0.10844850  1
  N  12  1  0.45403050  0.01003450  0.90158900  1
  N  14  1  0.44395350  0.89154300  0.98995450  1
  N  25  1  0.94295800  0.55370500  0.04362600  1
  N  27  1  0.04131200  0.44520150  0.05363450  1
  N  29  1  0.05146100  0.54369200  0.94527000  1
  N  40  1  0.50779900  0.40156600  0.45637100  1
  N  42  1  0.38922750  0.48984700  0.44627750  1
  N  44  1  0.59607850  0.60841950  0.55478900  1
  N  55  1  0.98764850  0.94634400  0.39156650  1
  N  57  1  0.10621600  0.05473550  0.59841450  1
  N  59  1  0.89936000  0.95638250  0.51012750  1
  N  70  1  0.05258200  0.10858450  0.09822750  1
  N  72  1  0.95437150  0.90176100  0.01032950  1
  N  74  1  0.94400050  0.98966450  0.89140700  1
  N  85  1  0.44301300  0.04353900  0.55377300  1
  N  87  1  0.54125600  0.05378950  0.44518350  1
  N  89  1  0.55147800  0.94518050  0.54340550  1
  N  100  1  0.00810600  0.45661550  0.40179250  1
  N  102  1  0.88923850  0.44632600  0.48975550  1
  N  104  1  0.09606050  0.55478100  0.60862050  1
  N  115  1  0.48746550  0.39140700  0.94615350  1
  N  117  1  0.60632650  0.59823250  0.05480800  1
  N  119  1  0.39950250  0.51027000  0.95651350  1
  Si  247  1  0.37268000  0.12489700  0.74997500  1
  Si  300  1  0.12278750  0.37508400  0.24997650  1
  Si  459  1  0.62271000  0.25002750  0.37491050  1
  Si  512  1  0.87283900  0.75002800  0.12510700  1
  Si  671  1  0.24776750  0.62507800  0.87512650  1
  Si  724  1  0.74769100  0.87487750  0.62489750  1
