# generated using pymatgen
data_Co2H32C34S(NO4)2
_symmetry_space_group_name_H-M   'P 1'
_cell_length_a   9.57137000
_cell_length_b   12.56509000
_cell_length_c   18.44672000
_cell_angle_alpha   98.55097000
_cell_angle_beta   99.87482000
_cell_angle_gamma   104.48544000
_symmetry_Int_Tables_number   1
_chemical_formula_structural   Co2H32C34S(NO4)2
_chemical_formula_sum   'Co4 H64 C68 S2 N4 O16'
_cell_volume   2073.02730524
_cell_formula_units_Z   2
loop_
 _symmetry_equiv_pos_site_id
 _symmetry_equiv_pos_as_xyz
  1  'x, y, z'
loop_
 _atom_site_type_symbol
 _atom_site_label
 _atom_site_symmetry_multiplicity
 _atom_site_fract_x
 _atom_site_fract_y
 _atom_site_fract_z
 _atom_site_occupancy
  Co  Co1  1  0.98364000  0.41708000  0.64875000  1.0
  Co  Co2  1  0.02426000  0.58311000  0.35133000  1.0
  Co  Co3  1  0.00386000  0.49998000  0.50008000  1.0
  Co  Co4  1  0.50206000  0.00285000  0.00145000  1.0
  H  H1  1  0.15839000  0.26362000  0.22955000  1.0
  H  H2  1  0.13891000  0.33999000  0.31460000  1.0
  H  H3  1  0.30995000  0.37292000  0.28688000  1.0
  H  H4  1  0.17072000  0.05623000  0.35824000  1.0
  H  H5  1  0.04621000  0.13982000  0.35111000  1.0
  H  H6  1  0.08454000  0.07188000  0.26912000  1.0
  H  H7  1  0.32182000  0.12813000  0.23496000  1.0
  H  H8  1  0.46864000  0.24449000  0.28653000  1.0
  H  H9  1  0.42411000  0.11980000  0.32232000  1.0
  H  H10  1  0.50388000  0.41978000  0.62434000  1.0
  H  H11  1  0.56277000  0.29832000  0.40472000  1.0
  H  H12  1  0.12571000  0.28259000  0.44141000  1.0
  H  H13  1  0.72339000  0.26310000  0.20001000  1.0
  H  H14  1  0.57754000  0.94002000  0.25657000  1.0
  H  H15  1  0.85914000  0.22306000  0.42543000  1.0
  H  H16  1  0.79244000  0.87409000  0.34100000  1.0
  H  H17  1  0.82102000  0.87021000  0.43807000  1.0
  H  H18  1  0.93571000  0.98058000  0.40626000  1.0
  H  H19  1  0.47582000  0.96437000  0.40463000  1.0
  H  H20  1  0.55653000  0.86528000  0.44196000  1.0
  H  H21  1  0.51973000  0.85934000  0.34419000  1.0
  H  H22  1  0.87616000  0.11881000  0.50255000  1.0
  H  H23  1  0.75044000  0.01026000  0.52906000  1.0
  H  H24  1  0.69052000  0.12241000  0.49870000  1.0
  H  H25  1  0.15888000  0.29576000  0.73682000  1.0
  H  H26  1  0.12212000  0.17256000  0.83034000  1.0
  H  H27  1  0.67143000  0.19363000  0.80159000  1.0
  H  H28  1  0.72674000  0.31121000  0.70559000  1.0
  H  H29  1  0.12192000  0.23022000  0.99470000  1.0
  H  H30  1  0.35775000  0.18251000  0.04151000  1.0
  H  H31  1  0.19377000  0.86058000  0.91388000  1.0
  H  H32  1  0.95222000  0.89381000  0.86168000  1.0
  H  H33  1  0.84616000  0.73773000  0.77156000  1.0
  H  H34  1  0.87177000  0.66407000  0.68708000  1.0
  H  H35  1  0.69863000  0.62678000  0.71256000  1.0
  H  H36  1  0.83657000  0.94543000  0.64306000  1.0
  H  H37  1  0.96108000  0.86174000  0.65089000  1.0
  H  H38  1  0.92056000  0.92907000  0.73251000  1.0
  H  H39  1  0.68395000  0.87187000  0.76575000  1.0
  H  H40  1  0.53753000  0.75523000  0.71410000  1.0
  H  H41  1  0.58095000  0.88037000  0.67861000  1.0
  H  H42  1  0.50479000  0.58048000  0.37627000  1.0
  H  H43  1  0.44450000  0.70191000  0.59552000  1.0
  H  H44  1  0.88225000  0.71862000  0.55946000  1.0
  H  H45  1  0.28315000  0.73801000  0.80160000  1.0
  H  H46  1  0.42290000  0.06268000  0.74660000  1.0
  H  H47  1  0.14974000  0.77790000  0.57603000  1.0
  H  H48  1  0.21137000  0.12829000  0.66084000  1.0
  H  H49  1  0.18239000  0.13148000  0.56376000  1.0
  H  H50  1  0.06779000  0.02168000  0.59597000  1.0
  H  H51  1  0.52764000  0.03808000  0.59693000  1.0
  H  H52  1  0.44623000  0.13673000  0.55947000  1.0
  H  H53  1  0.48352000  0.14305000  0.65731000  1.0
  H  H54  1  0.12740000  0.88308000  0.49924000  1.0
  H  H55  1  0.25279000  0.99207000  0.47283000  1.0
  H  H56  1  0.31317000  0.87998000  0.50299000  1.0
  H  H57  1  0.84897000  0.70412000  0.26473000  1.0
  H  H58  1  0.88247000  0.82742000  0.17113000  1.0
  H  H59  1  0.33301000  0.80728000  0.19640000  1.0
  H  H60  1  0.28139000  0.68935000  0.29283000  1.0
  H  H61  1  0.87814000  0.77170000  0.00638000  1.0
  H  H62  1  0.64327000  0.82115000  0.96034000  1.0
  H  H63  1  0.81020000  0.14196000  0.08986000  1.0
  H  H64  1  0.05058000  0.10642000  0.14139000  1.0
  C  C1  1  0.21460000  0.30356000  0.28797000  1.0
  C  C2  1  0.13407000  0.11628000  0.32740000  1.0
  C  C3  1  0.37687000  0.17583000  0.29191000  1.0
  C  C4  1  0.30420000  0.35332000  0.53723000  1.0
  C  C5  1  0.45760000  0.38142000  0.56543000  1.0
  C  C6  1  0.54925000  0.36299000  0.51643000  1.0
  C  C7  1  0.48742000  0.31130000  0.44076000  1.0
  C  C8  1  0.33455000  0.27724000  0.41263000  1.0
  C  C9  1  0.24450000  0.30207000  0.46162000  1.0
  C  C10  1  0.20682000  0.37552000  0.58922000  1.0
  C  C11  1  0.71389000  0.39946000  0.54131000  1.0
  C  C12  1  0.26583000  0.21832000  0.33054000  1.0
  C  C13  1  0.80344000  0.25253000  0.31437000  1.0
  C  C14  1  0.72197000  0.20940000  0.24105000  1.0
  C  C15  1  0.63941000  0.09650000  0.22101000  1.0
  C  C16  1  0.63979000  0.02808000  0.27460000  1.0
  C  C17  1  0.71580000  0.07142000  0.34973000  1.0
  C  C18  1  0.79769000  0.18470000  0.36838000  1.0
  C  C19  1  0.89817000  0.36978000  0.33529000  1.0
  C  C20  1  0.55780000  0.05170000  0.14169000  1.0
  C  C21  1  0.71345000  0.99666000  0.40844000  1.0
  C  C22  1  0.82245000  0.92630000  0.39768000  1.0
  C  C23  1  0.55697000  0.91713000  0.39895000  1.0
  C  C24  1  0.76070000  0.06696000  0.48910000  1.0
  C  C25  1  0.05315000  0.27000000  0.75294000  1.0
  C  C26  1  0.03151000  0.20219000  0.80523000  1.0
  C  C27  1  0.89311000  0.17395000  0.82451000  1.0
  C  C28  1  0.78053000  0.21392000  0.78842000  1.0
  C  C29  1  0.81058000  0.27960000  0.73583000  1.0
  C  C30  1  0.01945000  0.06549000  0.92352000  1.0
  C  C31  1  0.13437000  0.14777000  0.97509000  1.0
  C  C32  1  0.26498000  0.12226000  0.00116000  1.0
  C  C33  1  0.17280000  0.94089000  0.93037000  1.0
  C  C34  1  0.03916000  0.95998000  0.90133000  1.0
  C  C35  1  0.79291000  0.69787000  0.71276000  1.0
  C  C36  1  0.87249000  0.88520000  0.67398000  1.0
  C  C37  1  0.62885000  0.82433000  0.70875000  1.0
  C  C38  1  0.70387000  0.64742000  0.46344000  1.0
  C  C39  1  0.55048000  0.61908000  0.43518000  1.0
  C  C40  1  0.45845000  0.63735000  0.48397000  1.0
  C  C41  1  0.52016000  0.68926000  0.55962000  1.0
  C  C42  1  0.67303000  0.72384000  0.58793000  1.0
  C  C43  1  0.76346000  0.69899000  0.53908000  1.0
  C  C44  1  0.80067000  0.62470000  0.41112000  1.0
  C  C45  1  0.29374000  0.60074000  0.45893000  1.0
  C  C46  1  0.74074000  0.78276000  0.67015000  1.0
  C  C47  1  0.20492000  0.74844000  0.68700000  1.0
  C  C48  1  0.28436000  0.79200000  0.76072000  1.0
  C  C49  1  0.36395000  0.90570000  0.78128000  1.0
  C  C50  1  0.36311000  0.97421000  0.72773000  1.0
  C  C51  1  0.28919000  0.93058000  0.65227000  1.0
  C  C52  1  0.21023000  0.81666000  0.63320000  1.0
  C  C53  1  0.11083000  0.63084000  0.66532000  1.0
  C  C54  1  0.44295000  0.95207000  0.86096000  1.0
  C  C55  1  0.29019000  0.00533000  0.59350000  1.0
  C  C56  1  0.18114000  0.07563000  0.60431000  1.0
  C  C57  1  0.44631000  0.08512000  0.60262000  1.0
  C  C58  1  0.24275000  0.93521000  0.51273000  1.0
  C  C59  1  0.95394000  0.73010000  0.24790000  1.0
  C  C60  1  0.97376000  0.79797000  0.19555000  1.0
  C  C61  1  0.11126000  0.82653000  0.17539000  1.0
  C  C62  1  0.22476000  0.78658000  0.21053000  1.0
  C  C63  1  0.19655000  0.72076000  0.26328000  1.0
  C  C64  1  0.98221000  0.93581000  0.07803000  1.0
  C  C65  1  0.86652000  0.85429000  0.02640000  1.0
  C  C66  1  0.73635000  0.88078000  0.00087000  1.0
  C  C67  1  0.83006000  0.06141000  0.07274000  1.0
  C  C68  1  0.96323000  0.04124000  0.10126000  1.0
  S  S1  1  0.84712000  0.08992000  0.88991000  1.0
  S  S2  1  0.15501000  0.91107000  0.11003000  1.0
  N  N1  1  0.94530000  0.30891000  0.71823000  1.0
  N  N2  1  0.28486000  0.02071000  0.97883000  1.0
  N  N3  1  0.06270000  0.69134000  0.28184000  1.0
  N  N4  1  0.71748000  0.98256000  0.02384000  1.0
  O  O1  1  0.06997000  0.37551000  0.55990000  1.0
  O  O2  1  0.25014000  0.39116000  0.65868000  1.0
  O  O3  1  0.77073000  0.40233000  0.61046000  1.0
  O  O4  1  0.78565000  0.42342000  0.49122000  1.0
  O  O5  1  0.89702000  0.43478000  0.28811000  1.0
  O  O6  1  0.98536000  0.40261000  0.40032000  1.0
  O  O7  1  0.55714000  0.12268000  0.09716000  1.0
  O  O8  1  0.49968000  0.94746000  0.11577000  1.0
  O  O9  1  0.93745000  0.62432000  0.44010000  1.0
  O  O10  1  0.75671000  0.60891000  0.34165000  1.0
  O  O11  1  0.23689000  0.59772000  0.38972000  1.0
  O  O12  1  0.22188000  0.57692000  0.50898000  1.0
  O  O13  1  0.11000000  0.56557000  0.71240000  1.0
  O  O14  1  0.02549000  0.59797000  0.59981000  1.0
  O  O15  1  0.44388000  0.88196000  0.90606000  1.0
  O  O16  1  0.49965000  0.05660000  0.88678000  1.0
