# generated using pymatgen
data_SrP2H14C6(NO3)2
_symmetry_space_group_name_H-M   'P 1'
_cell_length_a   7.13300000
_cell_length_b   10.51900000
_cell_length_c   11.51900000
_cell_angle_alpha   74.03400000
_cell_angle_beta   83.17400000
_cell_angle_gamma   72.58500000
_symmetry_Int_Tables_number   1
_chemical_formula_structural   SrP2H14C6(NO3)2
_chemical_formula_sum   'Sr2 P4 H28 C12 N4 O12'
_cell_volume   792.23574094
_cell_formula_units_Z   2
loop_
 _symmetry_equiv_pos_site_id
 _symmetry_equiv_pos_as_xyz
  1  'x, y, z'
loop_
 _atom_site_type_symbol
 _atom_site_label
 _atom_site_symmetry_multiplicity
 _atom_site_fract_x
 _atom_site_fract_y
 _atom_site_fract_z
 _atom_site_occupancy
  Sr  Sr1  1  0.77922000  0.40007000  0.54096000  1.0
  Sr  Sr2  1  0.22078000  0.59993000  0.45904000  1.0
  P  P1  1  0.28767000  0.32201000  0.67669000  1.0
  P  P2  1  0.82273000  0.25826000  0.31639000  1.0
  P  P3  1  0.71233000  0.67799000  0.32331000  1.0
  P  P4  1  0.17727000  0.74174000  0.68361000  1.0
  H  H1  1  0.54590000  0.15130000  0.53250000  1.0
  H  H2  1  0.87950000  0.51530000  0.14590000  1.0
  H  H3  1  0.23860000  0.03470000  0.55700000  1.0
  H  H4  1  0.22400000  0.18820000  0.48790000  1.0
  H  H5  1  0.72220000  0.94410000  0.65140000  1.0
  H  H6  1  0.54130000  0.88620000  0.65730000  1.0
  H  H7  1  0.30440000  0.08820000  0.73160000  1.0
  H  H8  1  0.50890000  0.10620000  0.74720000  1.0
  H  H9  1  0.78460000  0.48290000  0.93250000  1.0
  H  H10  1  0.66200000  0.60140000  0.99200000  1.0
  H  H11  1  0.12780000  0.31450000  0.16090000  1.0
  H  H12  1  0.06990000  0.30720000  0.03600000  1.0
  H  H13  1  0.60780000  0.44210000  0.18540000  1.0
  H  H14  1  0.70600000  0.32480000  0.11980000  1.0
  H  H15  1  0.45410000  0.84870000  0.46750000  1.0
  H  H16  1  0.12050000  0.48470000  0.85410000  1.0
  H  H17  1  0.76140000  0.96530000  0.44300000  1.0
  H  H18  1  0.77600000  0.81180000  0.51210000  1.0
  H  H19  1  0.27780000  0.05590000  0.34860000  1.0
  H  H20  1  0.45870000  0.11380000  0.34270000  1.0
  H  H21  1  0.69560000  0.91180000  0.26840000  1.0
  H  H22  1  0.49110000  0.89380000  0.25280000  1.0
  H  H23  1  0.21540000  0.51710000  0.06750000  1.0
  H  H24  1  0.33800000  0.39860000  0.00800000  1.0
  H  H25  1  0.87220000  0.68550000  0.83910000  1.0
  H  H26  1  0.93010000  0.69280000  0.96400000  1.0
  H  H27  1  0.39220000  0.55790000  0.81460000  1.0
  H  H28  1  0.29400000  0.67520000  0.88020000  1.0
  C  C1  1  0.31230000  0.09570000  0.50780000  1.0
  C  C2  1  0.61220000  0.94840000  0.60690000  1.0
  C  C3  1  0.40100000  0.13640000  0.69310000  1.0
  C  C4  1  0.79310000  0.54280000  0.98120000  1.0
  C  C5  1  0.07460000  0.36940000  0.08340000  1.0
  C  C6  1  0.73160000  0.37750000  0.17030000  1.0
  C  C7  1  0.68770000  0.90430000  0.49220000  1.0
  C  C8  1  0.38780000  0.05160000  0.39310000  1.0
  C  C9  1  0.59900000  0.86360000  0.30690000  1.0
  C  C10  1  0.20690000  0.45720000  0.01880000  1.0
  C  C11  1  0.92540000  0.63060000  0.91660000  1.0
  C  C12  1  0.26840000  0.62250000  0.82970000  1.0
  N  N1  1  0.47800000  0.09300000  0.57830000  1.0
  N  N2  1  0.87100000  0.45700000  0.10250000  1.0
  N  N3  1  0.52200000  0.90700000  0.42170000  1.0
  N  N4  1  0.12900000  0.54300000  0.89750000  1.0
  O  O1  1  0.22230000  0.32390000  0.80750000  1.0
  O  O2  1  0.11970000  0.37220000  0.59200000  1.0
  O  O3  1  0.44250000  0.39740000  0.62430000  1.0
  O  O4  1  0.91580000  0.11980000  0.29090000  1.0
  O  O5  1  0.96250000  0.32000000  0.35750000  1.0
  O  O6  1  0.63940000  0.26440000  0.40060000  1.0
  O  O7  1  0.77770000  0.67610000  0.19250000  1.0
  O  O8  1  0.88030000  0.62780000  0.40800000  1.0
  O  O9  1  0.55750000  0.60260000  0.37570000  1.0
  O  O10  1  0.08420000  0.88020000  0.70910000  1.0
  O  O11  1  0.03750000  0.68000000  0.64250000  1.0
  O  O12  1  0.36060000  0.73560000  0.59940000  1.0
