# generated using pymatgen
data_VH4C12NO7F
_symmetry_space_group_name_H-M   'P 1'
_cell_length_a   7.26011000
_cell_length_b   13.66031000
_cell_length_c   20.11834000
_cell_angle_alpha   76.93440000
_cell_angle_beta   90.11467000
_cell_angle_gamma   90.03905000
_symmetry_Int_Tables_number   1
_chemical_formula_structural   VH4C12NO7F
_chemical_formula_sum   'V4 H16 C48 N4 O28 F4'
_cell_volume   1943.58641051
_cell_formula_units_Z   4
loop_
 _symmetry_equiv_pos_site_id
 _symmetry_equiv_pos_as_xyz
  1  'x, y, z'
loop_
 _atom_site_type_symbol
 _atom_site_label
 _atom_site_symmetry_multiplicity
 _atom_site_fract_x
 _atom_site_fract_y
 _atom_site_fract_z
 _atom_site_occupancy
  V  V0  1  0.93534000  0.51189000  0.49769000  1
  V  V1  1  0.43534000  0.48811000  0.50231000  1
  V  V2  1  0.35182000  0.98811000  0.00231000  1
  V  V3  1  0.85182000  0.01189000  0.99769000  1
  H  H4  1  0.14949000  0.16331000  0.48579000  1
  H  H5  1  0.66842000  0.83807000  0.51333000  1
  H  H6  1  0.14298000  0.98141000  0.31136000  1
  H  H7  1  0.66950000  0.01788000  0.68861000  1
  H  H8  1  0.14020000  0.38981000  0.30014000  1
  H  H9  1  0.63408000  0.61058000  0.69689000  1
  H  H10  1  0.14614000  0.33223000  0.01505000  1
  H  H11  1  0.60744000  0.66759000  0.98393000  1
  H  H12  1  0.23946000  0.45932000  0.07499000  1
  H  H13  1  0.51838000  0.54191000  0.92203000  1
  H  H14  1  0.88310000  0.25814000  0.82916000  1
  H  H15  1  0.36895000  0.75522000  0.17449000  1
  H  H16  1  0.40946000  0.24511000  0.67488000  1
  H  H17  1  0.91498000  0.74817000  0.32329000  1
  H  H18  1  0.40421000  0.13367000  0.78818000  1
  H  H19  1  0.91401000  0.85662000  0.20931000  1
  C  C20  1  0.65493000  0.61642000  0.38465000  1
  C  C21  1  0.15588000  0.38421000  0.61555000  1
  C  C22  1  0.65435000  0.63754000  0.56356000  1
  C  C23  1  0.15449000  0.36338000  0.43554000  1
  C  C24  1  0.15375000  0.10927000  0.39359000  1
  C  C25  1  0.65303000  0.89157000  0.60563000  1
  C  C26  1  0.14889000  0.28510000  0.39646000  1
  C  C27  1  0.64562000  0.71618000  0.60206000  1
  C  C28  1  0.15785000  0.31182000  0.07020000  1
  C  C29  1  0.60579000  0.68804000  0.92863000  1
  C  C30  1  0.20793000  0.38470000  0.10466000  1
  C  C31  1  0.55669000  0.61598000  0.89317000  1
  C  C32  1  0.23823000  0.35955000  0.17525000  1
  C  C33  1  0.53704000  0.64111000  0.82213000  1
  C  C34  1  0.18793000  0.26202000  0.21370000  1
  C  C35  1  0.59389000  0.73827000  0.78462000  1
  C  C36  1  0.15690000  0.18508000  0.17744000  1
  C  C37  1  0.62866000  0.81433000  0.82167000  1
  C  C38  1  0.17173000  0.23743000  0.28648000  1
  C  C39  1  0.61535000  0.76323000  0.71198000  1
  C  C40  1  0.16042000  0.13508000  0.32180000  1
  C  C41  1  0.63773000  0.86535000  0.67726000  1
  C  C42  1  0.15161000  0.05985000  0.28514000  1
  C  C43  1  0.65143000  0.93977000  0.71441000  1
  C  C44  1  0.14425000  0.08395000  0.21433000  1
  C  C45  1  0.65354000  0.91503000  0.78522000  1
  C  C46  1  0.15429000  0.31148000  0.32502000  1
  C  C47  1  0.62872000  0.68949000  0.67303000  1
  C  C48  1  0.15154000  0.18410000  0.43052000  1
  C  C49  1  0.65537000  0.81713000  0.56837000  1
  C  C50  1  0.14333000  0.21175000  0.10518000  1
  C  C51  1  0.63248000  0.78771000  0.89418000  1
  C  C52  1  0.99684000  0.25418000  0.79508000  1
  C  C53  1  0.48814000  0.75387000  0.20716000  1
  C  C54  1  0.00137000  0.32162000  0.73100000  1
  C  C55  1  0.48872000  0.68762000  0.27165000  1
  C  C56  1  0.14931000  0.31804000  0.68563000  1
  C  C57  1  0.64519000  0.68373000  0.31498000  1
  C  C58  1  0.29382000  0.24965000  0.70798000  1
  C  C59  1  0.79569000  0.74694000  0.29111000  1
  C  C60  1  0.29087000  0.18540000  0.77294000  1
  C  C61  1  0.79482000  0.81014000  0.22587000  1
  C  C62  1  0.14149000  0.18624000  0.81699000  1
  C  C63  1  0.64074000  0.81459000  0.18322000  1
  C  C64  1  0.63103000  0.86332000  0.93553000  1
  C  C65  1  0.13188000  0.13661000  0.06419000  1
  C  C66  1  0.63527000  0.88321000  0.11445000  1
  C  C67  1  0.13518000  0.11699000  0.88558000  1
  N  N68  1  0.86204000  0.39768000  0.71515000  1
  N  N69  1  0.33186000  0.62316000  0.29040000  1
  N  N70  1  0.35281000  0.42560000  0.20356000  1
  N  N71  1  0.43224000  0.57356000  0.79136000  1
  O  O72  1  0.49319000  0.59970000  0.55044000  1
  O  O73  1  0.99319000  0.40030000  0.44956000  1
  O  O74  1  0.81994000  0.59576000  0.41204000  1
  O  O75  1  0.31994000  0.40424000  0.58796000  1
  O  O76  1  0.82257000  0.61170000  0.54762000  1
  O  O77  1  0.32257000  0.38830000  0.45238000  1
  O  O78  1  0.99811000  0.41635000  0.58610000  1
  O  O79  1  0.49811000  0.58365000  0.41390000  1
  O  O80  1  0.66251000  0.43589000  0.51247000  1
  O  O81  1  0.16251000  0.56411000  0.48753000  1
  O  O82  1  0.79663000  0.91626000  0.08608000  1
  O  O83  1  0.29663000  0.08374000  0.91392000  1
  O  O84  1  0.46446000  0.88829000  0.95238000  1
  O  O85  1  0.96446000  0.11171000  0.04762000  1
  O  O86  1  0.46722000  0.90422000  0.08796000  1
  O  O87  1  0.96722000  0.09578000  0.91204000  1
  O  O88  1  0.29184000  0.09972000  0.05045000  1
  O  O89  1  0.79184000  0.90028000  0.94955000  1
  O  O90  1  0.62470000  0.06406000  0.98752000  1
  O  O91  1  0.12470000  0.93594000  0.01248000  1
  O  O92  1  0.69095000  0.37529000  0.73073000  1
  O  O93  1  0.91008000  0.49167000  0.69684000  1
  O  O94  1  0.16861000  0.65460000  0.26894000  1
  O  O95  1  0.35549000  0.52765000  0.31519000  1
  O  O96  1  0.48548000  0.38783000  0.24513000  1
  O  O97  1  0.35623000  0.52124000  0.17528000  1
  O  O98  1  0.44509000  0.47689000  0.81487000  1
  O  O99  1  0.30022000  0.60841000  0.74869000  1
  F  F100  1  0.14861000  0.01157000  0.42810000  1
  F  F101  1  0.66981000  0.98913000  0.57171000  1
  F  F102  1  0.12705000  0.00663000  0.18271000  1
  F  F103  1  0.68113000  0.99135000  0.81716000  1
