# generated using pymatgen
data_H76C101(N4O)4
_symmetry_space_group_name_H-M   'P 1'
_cell_length_a   37.92830000
_cell_length_b   38.16079166
_cell_length_c   38.16059104
_cell_angle_alpha   75.70242884
_cell_angle_beta   60.20115940
_cell_angle_gamma   60.20133190
_symmetry_Int_Tables_number   1
_chemical_formula_structural   H76C101(N4O)4
_chemical_formula_sum   'H152 C202 N32 O8'
_cell_volume   41592.15023537
_cell_formula_units_Z   2
loop_
 _symmetry_equiv_pos_site_id
 _symmetry_equiv_pos_as_xyz
  1  'x, y, z'
loop_
 _atom_site_type_symbol
 _atom_site_label
 _atom_site_symmetry_multiplicity
 _atom_site_fract_x
 _atom_site_fract_y
 _atom_site_fract_z
 _atom_site_occupancy
  C  2  1  0.35074500  0.73112500  0.85844100  1
  C  3  1  0.27104300  0.76531850  0.87006050  1
  C  4  1  0.28975050  0.75278700  0.92649400  1
  C  5  1  0.30278150  0.77434800  0.93914000  1
  C  6  1  0.29347100  0.77354150  0.97980750  1
  C  7  1  0.26920250  0.75266450  0.00912750  1
  C  8  1  0.25484100  0.73222200  0.99659000  1
  C  9  1  0.26536700  0.73199200  0.95565600  1
  C  10  1  0.37236250  0.75455250  0.83075950  1
  C  11  1  0.41969950  0.73670350  0.80702650  1
  C  12  1  0.44670450  0.69506900  0.81018100  1
  C  13  1  0.42469000  0.67170500  0.83792500  1
  C  14  1  0.37733200  0.68950400  0.86172400  1
  C  15  1  0.24478800  0.80734100  0.86844700  1
  C  16  1  0.21038800  0.82250800  0.85611500  1
  C  17  1  0.20149200  0.79598450  0.84534050  1
  C  18  1  0.22806000  0.75389950  0.84668850  1
  C  19  1  0.26266350  0.73873200  0.85872700  1
  C  39  1  0.96439900  0.76414750  0.59808150  1
  C  40  1  0.93054850  0.72992800  0.58644300  1
  C  41  1  0.99316200  0.74247600  0.53002700  1
  C  42  1  0.04039450  0.72092700  0.51740400  1
  C  43  1  0.07096900  0.72169700  0.47673800  1
  C  44  1  0.05515650  0.74260750  0.44741850  1
  C  45  1  0.00782050  0.76302350  0.45991850  1
  C  46  1  0.97716550  0.76326400  0.50085100  1
  C  47  1  0.98175150  0.74072300  0.62577200  1
  C  48  1  0.98752100  0.75857150  0.64949250  1
  C  49  1  0.97604200  0.80021000  0.64633400  1
  C  50  1  0.95839800  0.82357150  0.61859550  1
  C  51  1  0.95263150  0.80577250  0.59480450  1
  C  52  1  0.94471600  0.68790250  0.58805850  1
  C  53  1  0.91315600  0.67272200  0.60041500  1
  C  54  1  0.86696000  0.69923600  0.61118200  1
  C  55  1  0.85278350  0.74132350  0.60982350  1
  C  56  1  0.88424400  0.75650500  0.59779300  1
  C  76  1  0.08428950  0.87775800  0.74473000  1
  C  77  1  0.03879900  0.88940450  0.71050750  1
  C  78  1  0.04502400  0.94581000  0.72303000  1
  C  79  1  0.07964800  0.95841850  0.70146350  1
  C  80  1  0.06957200  0.99908450  0.70220550  1
  C  81  1  0.02444650  0.02842050  0.72310450  1
  C  82  1  0.98961200  0.01591900  0.74358900  1
  C  83  1  0.99985450  0.97500150  0.74379450  1
  C  84  1  0.12932800  0.85005300  0.72131600  1
  C  85  1  0.15880400  0.82632100  0.73917800  1
  C  86  1  0.14416150  0.82949550  0.78081350  1
  C  87  1  0.09878850  0.85725850  0.80416050  1
  C  88  1  0.06923800  0.88104650  0.78635250  1
  C  89  1  0.05457450  0.88778100  0.66848400  1
  C  90  1  0.03531750  0.87547700  0.65331900  1
  C  91  1  0.99988900  0.86471450  0.67984450  1
  C  92  1  0.98436400  0.86607250  0.72193050  1
  C  93  1  0.00380950  0.87810000  0.73709600  1
  C  113  1  0.73093700  0.61743850  0.71175450  1
  C  114  1  0.66285300  0.60582200  0.74596300  1
  C  115  1  0.73799850  0.54938850  0.73342350  1
  C  116  1  0.76369350  0.53675350  0.75496550  1
  C  117  1  0.79500900  0.49607900  0.75421400  1
  C  118  1  0.80009850  0.46675500  0.73331600  1
  C  119  1  0.77323050  0.47929150  0.71284050  1
  C  120  1  0.74279050  0.52021850  0.71262850  1
  C  121  1  0.72487600  0.64512500  0.73517600  1
  C  122  1  0.74848750  0.66885050  0.71732250  1
  C  123  1  0.77863650  0.66569900  0.67568300  1
  C  124  1  0.78435800  0.63795400  0.65232600  1
  C  125  1  0.76080300  0.61415150  0.67013250  1
  C  126  1  0.63498900  0.60744300  0.78798800  1
  C  127  1  0.58825700  0.61977200  0.80316000  1
  C  128  1  0.56857100  0.63057850  0.77664150  1
  C  129  1  0.59648650  0.62921450  0.73455750  1
  C  130  1  0.64313250  0.61716300  0.71938100  1
  C  150  1  0.88329450  0.26413950  0.09811050  1
  C  151  1  0.96300450  0.22990150  0.08646950  1
  C  152  1  0.94425550  0.24242400  0.03006000  1
  C  153  1  0.93117350  0.22087150  0.01746550  1
  C  154  1  0.94051100  0.22159700  0.97680000  1
  C  155  1  0.96475300  0.24248000  0.94745400  1
  C  156  1  0.97915100  0.26293250  0.95993550  1
  C  157  1  0.96865800  0.26318500  0.00085900  1
  C  158  1  0.86167200  0.24073100  0.12583100  1
  C  159  1  0.81432950  0.25858550  0.14953650  1
  C  160  1  0.78733700  0.30022150  0.14636250  1
  C  161  1  0.80936350  0.32357000  0.11860100  1
  C  162  1  0.85672000  0.30576000  0.09481200  1
  C  163  1  0.98921900  0.18787550  0.08811550  1
  C  164  1  0.02364200  0.17269450  0.10042250  1
  C  165  1  0.03257450  0.19920450  0.11117550  1
  C  166  1  0.00602800  0.24129150  0.10981250  1
  C  167  1  0.97140800  0.25647750  0.09779050  1
  C  187  1  0.26961850  0.23111550  0.35842650  1
  C  188  1  0.30348900  0.26532600  0.37005000  1
  C  189  1  0.24086100  0.25282000  0.42647400  1
  C  190  1  0.19362700  0.27440150  0.43909150  1
  C  191  1  0.16304650  0.27363750  0.47975750  1
  C  192  1  0.17883400  0.25279700  0.50910700  1
  C  193  1  0.22617100  0.23233750  0.49659850  1
  C  194  1  0.25683900  0.23205300  0.45566400  1
  C  195  1  0.25230000  0.25452750  0.33071250  1
  C  196  1  0.24654500  0.23667300  0.30698400  1
  C  197  1  0.25801050  0.19503850  0.31015350  1
  C  198  1  0.27561300  0.17168900  0.33792000  1
  C  199  1  0.28134350  0.18949800  0.36173400  1
  C  200  1  0.28933550  0.30735050  0.36841250  1
  C  201  1  0.32089500  0.32251850  0.35609750  1
  C  202  1  0.36708700  0.29599700  0.34533700  1
  C  203  1  0.38125450  0.25391150  0.34670850  1
  C  204  1  0.34978400  0.23874000  0.35874600  1
  C  224  1  0.14986050  0.11739400  0.21170600  1
  C  225  1  0.19535350  0.10578200  0.24591500  1
  C  226  1  0.18917950  0.04934650  0.23337950  1
  C  227  1  0.15457250  0.03672050  0.25493650  1
  C  228  1  0.16467600  0.99604700  0.25418400  1
  C  229  1  0.20981250  0.96671400  0.23330500  1
  C  230  1  0.24463200  0.97923550  0.21286150  1
  C  231  1  0.23435200  0.02017100  0.21260200  1
  C  232  1  0.10482350  0.14509350  0.23513050  1
  C  233  1  0.07533650  0.16882350  0.21728150  1
  C  234  1  0.08997050  0.16566800  0.17564400  1
  C  235  1  0.13534700  0.13791650  0.15228250  1
  C  236  1  0.16490150  0.11410900  0.17008300  1
  C  237  1  0.17954600  0.10742450  0.28794150  1
  C  238  1  0.19875500  0.11977050  0.30312250  1
  C  239  1  0.23417650  0.13055000  0.27661000  1
  C  240  1  0.24972350  0.12918050  0.23452350  1
  C  241  1  0.23032400  0.11711400  0.21933900  1
  C  261  1  0.50314700  0.37775550  0.24473850  1
  C  262  1  0.57121400  0.38940200  0.21051400  1
  C  263  1  0.49605450  0.44581000  0.22304300  1
  C  264  1  0.47038550  0.45842250  0.20147950  1
  C  265  1  0.43904650  0.49908800  0.20223500  1
  C  266  1  0.43395250  0.52842200  0.22312500  1
  C  267  1  0.46081550  0.51591700  0.24359600  1
  C  268  1  0.49128350  0.47499700  0.24380000  1
  C  269  1  0.50924750  0.35003550  0.22132650  1
  C  270  1  0.48561800  0.32632500  0.23918200  1
  C  271  1  0.45545350  0.32949400  0.28081900  1
  C  272  1  0.44971950  0.35725400  0.30416900  1
  C  273  1  0.47328000  0.38105050  0.28635950  1
  C  274  1  0.59908500  0.38776700  0.16848900  1
  C  275  1  0.64581100  0.37546250  0.15332150  1
  C  276  1  0.66547450  0.36471900  0.17984700  1
  C  277  1  0.63755500  0.36609150  0.22193150  1
  C  278  1  0.59092350  0.37807850  0.23710050  1
  C  593  1  0.86824200  0.35553250  0.73152150  1
  C  594  1  0.91001900  0.34673500  0.69668800  1
  C  595  1  0.94912100  0.31118650  0.69423550  1
  C  596  1  0.94910250  0.28383750  0.72719750  1
  C  597  1  0.90561350  0.29111450  0.76003650  1
  C  598  1  0.86603650  0.32627850  0.76245050  1
  C  599  1  0.99202900  0.24759750  0.72824650  1
  C  600  1  0.98429100  0.21136600  0.72927100  1
  C  601  1  0.97868700  0.18400400  0.76222100  1
  C  602  1  0.97764000  0.14844100  0.75972300  1
  C  603  1  0.97952000  0.13966050  0.72486950  1
  C  604  1  0.97895650  0.16894200  0.69396600  1
  C  605  1  0.98093250  0.20410550  0.69641350  1
  C  606  1  0.03600750  0.24655950  0.69202050  1
  C  607  1  0.99871700  0.24862250  0.76449450  1
  C  608  1  0.03492150  0.21576700  0.77176800  1
  C  609  1  0.03933100  0.21332200  0.80693900  1
  C  610  1  0.00787950  0.24423850  0.83620650  1
  C  611  1  0.97488950  0.27907800  0.82743000  1
  C  612  1  0.97133950  0.28156300  0.79187100  1
  C  613  1  0.04663500  0.27941150  0.68476250  1
  C  614  1  0.08378750  0.28184750  0.64960850  1
  C  615  1  0.11252650  0.25093050  0.62033950  1
  C  616  1  0.10559500  0.21609550  0.62910450  1
  C  617  1  0.06895600  0.21361650  0.66465050  1
  C  634  1  0.00775550  0.24024200  0.87425700  1
  C  635  1  0.14649050  0.25490200  0.58229800  1
  C  636  1  0.98366100  0.10160500  0.72085600  1
  C  637  1  0.83032450  0.39358100  0.73546300  1
  C  691  1  0.22611950  0.75088900  0.12034700  1
  C  692  1  0.25907850  0.71603850  0.12914950  1
  C  693  1  0.26263200  0.71356800  0.16470200  1
  C  694  1  0.23532500  0.74654750  0.19202150  1
  C  695  1  0.19913800  0.77941750  0.18473450  1
  C  696  1  0.19470250  0.78183800  0.14958500  1
  C  697  1  0.24204300  0.74758800  0.22824500  1
  C  698  1  0.19807050  0.74863100  0.26448600  1
  C  699  1  0.16510700  0.78160250  0.29182050  1
  C  700  1  0.12847500  0.77913750  0.32738150  1
  C  701  1  0.12155250  0.74429250  0.33618850  1
  C  702  1  0.15028100  0.71336050  0.30693650  1
  C  703  1  0.18744750  0.71577100  0.27178200  1
  C  704  1  0.28498100  0.71135150  0.22927350  1
  C  705  1  0.24979900  0.78381550  0.22719350  1
  C  706  1  0.25313000  0.79110750  0.26005250  1
  C  707  1  0.25515450  0.82625650  0.26246050  1
  C  708  1  0.25467700  0.85549250  0.23151050  1
  C  709  1  0.25654200  0.84669150  0.19667350  1
  C  710  1  0.25542900  0.81114850  0.19422350  1
  C  711  1  0.32845400  0.70405650  0.19639750  1
  C  712  1  0.36804100  0.66890300  0.19396600  1
  C  713  1  0.36586100  0.63965850  0.22490650  1
  C  714  1  0.32410300  0.64845300  0.25975600  1
  C  715  1  0.28499450  0.68400900  0.26223900  1
  C  732  1  0.25061300  0.89353850  0.23544850  1
  C  733  1  0.40378850  0.60161200  0.22092700  1
  C  734  1  0.08760900  0.74031500  0.37423900  1
  C  735  1  0.22624200  0.75484550  0.08230050  1
  H  20  1  0.43462500  0.75450350  0.78759450  1
  H  21  1  0.35381550  0.78493950  0.82853950  1
  H  22  1  0.36234300  0.67215250  0.88209450  1
  H  23  1  0.44291850  0.64158050  0.84141950  1
  H  24  1  0.32119050  0.78900100  0.91841300  1
  H  25  1  0.30509050  0.78788800  0.98790300  1
  H  26  1  0.25007200  0.82701450  0.87701050  1
  H  27  1  0.19101850  0.85303800  0.85603000  1
  H  28  1  0.22150600  0.73410500  0.83992200  1
  H  29  1  0.28081350  0.70818050  0.86042650  1
  H  30  1  0.25646950  0.71548300  0.94697200  1
  H  31  1  0.23903850  0.71536450  0.01679550  1
  H  33  1  0.50031650  0.68252450  0.75588550  1
  H  35  1  0.29199600  0.74315550  0.04959950  1
  H  37  1  0.14130150  0.80165100  0.85701500  1
  H  57  1  0.00081500  0.74077600  0.66892200  1
  H  58  1  0.99139950  0.71033200  0.62797400  1
  H  59  1  0.94068400  0.82311400  0.57442000  1
  H  60  1  0.94999750  0.85369550  0.61509950  1
  H  61  1  0.05271450  0.70618250  0.53812850  1
  H  62  1  0.10503050  0.70730100  0.46864400  1
  H  63  1  0.97823600  0.66823550  0.57950550  1
  H  64  1  0.92424200  0.64219250  0.60048450  1
  H  65  1  0.81967500  0.76110800  0.61656000  1
  H  66  1  0.87353950  0.78705500  0.59605500  1
  H  67  1  0.94307900  0.77980850  0.50952650  1
  H  68  1  0.99537150  0.77994450  0.43972750  1
  H  70  1  0.96281850  0.81276100  0.70062700  1
  H  72  1  0.10893600  0.75207300  0.40692800  1
  H  74  1  0.82413650  0.69355400  0.59948000  1
  H  94  1  0.19152250  0.80686800  0.72139100  1
  H  95  1  0.14117850  0.84782300  0.69092800  1
  H  96  1  0.03691900  0.90146150  0.80368250  1
  H  97  1  0.08689150  0.86077850  0.83428250  1
  H  98  1  0.11268900  0.93767450  0.68676050  1
  H  99  1  0.09555000  0.00716350  0.68780450  1
  H  100  1  0.07955400  0.89631650  0.64880750  1
  H  101  1  0.04650200  0.87535750  0.62278850  1
  H  102  1  0.95800800  0.85931900  0.74172400  1
  H  103  1  0.99140600  0.87980500  0.76764500  1
  H  104  1  0.97443900  0.96633500  0.76035400  1
  H  105  1  0.95695350  0.03614250  0.76041850  1
  H  107  1  0.18521650  0.77520350  0.79337750  1
  H  109  1  0.03773150  0.06893100  0.73253400  1
  H  111  1  0.94535850  0.87640200  0.67418100  1
  H  131  1  0.74396500  0.68830100  0.73511400  1
  H  132  1  0.70410750  0.64735150  0.76556450  1
  H  133  1  0.76618050  0.59378100  0.65278500  1
  H  134  1  0.80607350  0.63446300  0.62219700  1
  H  135  1  0.76128450  0.55747250  0.76970350  1
  H  136  1  0.81469050  0.48798800  0.76859500  1
  H  137  1  0.64884500  0.59884900  0.80765800  1
  H  138  1  0.56880800  0.61984850  0.83369050  1
  H  139  1  0.58316200  0.63598400  0.71476600  1
  H  140  1  0.66297800  0.61545850  0.68882950  1
  H  141  1  0.72525100  0.52889700  0.69608400  1
  H  142  1  0.77766150  0.45908600  0.69596200  1
  H  144  1  0.77793750  0.71999950  0.66312250  1
  H  146  1  0.86335850  0.42628400  0.72382500  1
  H  148  1  0.52006800  0.61887900  0.78231700  1
  H  168  1  0.79939700  0.24079400  0.16897400  1
  H  169  1  0.88020200  0.21033500  0.12802600  1
  H  170  1  0.87171500  0.32309050  0.07440750  1
  H  171  1  0.79113850  0.35369150  0.11508750  1
  H  172  1  0.91286550  0.20614050  0.03820650  1
  H  173  1  0.92894150  0.20718500  0.96872600  1
  H  174  1  0.98390650  0.16820950  0.07957750  1
  H  175  1  0.04297550  0.14216050  0.10054450  1
  H  176  1  0.01265850  0.26107750  0.11649050  1
  H  177  1  0.95334300  0.28702650  0.09599950  1
  H  178  1  0.97754550  0.27972600  0.00951100  1
  H  179  1  0.99494150  0.27978950  0.93971350  1
  H  181  1  0.73370300  0.31279200  0.20064400  1
  H  183  1  0.94201450  0.25191000  0.90696500  1
  H  185  1  0.09279500  0.19351100  0.09944500  1
  H  205  1  0.23330300  0.25445850  0.28751650  1
  H  206  1  0.24270000  0.28491200  0.32847100  1
  H  207  1  0.29327900  0.17216000  0.38212800  1
  H  208  1  0.28398000  0.14156950  0.34144150  1
  H  209  1  0.18131700  0.28903900  0.41834500  1
  H  210  1  0.12898900  0.28801250  0.48783250  1
  H  211  1  0.25582000  0.32702250  0.37694850  1
  H  212  1  0.30982800  0.35305200  0.35596900  1
  H  213  1  0.41436550  0.23412000  0.33995800  1
  H  214  1  0.36048400  0.20819150  0.36046250  1
  H  215  1  0.29092400  0.21552950  0.44700050  1
  H  216  1  0.23861600  0.21548550  0.51681050  1
  H  218  1  0.27127950  0.18246800  0.25585200  1
  H  220  1  0.12502950  0.24335800  0.54959400  1
  H  222  1  0.40992650  0.30167600  0.35701600  1
  H  242  1  0.04262300  0.18827950  0.23507350  1
  H  243  1  0.09298650  0.14732150  0.26551650  1
  H  244  1  0.19723750  0.09373650  0.15273550  1
  H  245  1  0.14724250  0.13442650  0.12215650  1
  H  246  1  0.12152500  0.05744400  0.26967000  1
  H  247  1  0.13870800  0.98795500  0.26857600  1
  H  248  1  0.15460900  0.09883500  0.30760500  1
  H  249  1  0.18759950  0.11983750  0.33365450  1
  H  250  1  0.27609650  0.13591750  0.21473950  1
  H  251  1  0.24275200  0.11539350  0.18878750  1
  H  252  1  0.25975950  0.02884900  0.19604300  1
  H  253  1  0.27727350  0.95904700  0.19593900  1
  H  255  1  0.04893700  0.21997150  0.16307750  1
  H  257  1  0.19651450  0.92624250  0.22381250  1
  H  259  1  0.28869350  0.11883650  0.28231250  1
  H  279  1  0.49011300  0.30689500  0.22139000  1
  H  280  1  0.52996700  0.34784550  0.19092950  1
  H  281  1  0.46786900  0.40145350  0.30369250  1
  H  282  1  0.42797650  0.36077100  0.33429000  1
  H  283  1  0.47278450  0.43767950  0.18677850  1
  H  284  1  0.41939500  0.50717500  0.18782600  1
  H  285  1  0.58524150  0.39630350  0.14881650  1
  H  286  1  0.66527800  0.37533500  0.12278900  1
  H  287  1  0.65086600  0.35936300  0.24172500  1
  H  288  1  0.57106050  0.37985250  0.26765150  1
  H  289  1  0.50881650  0.46632750  0.26035050  1
  H  290  1  0.45643400  0.53613850  0.26042050  1
  H  292  1  0.45610300  0.27521200  0.29337900  1
  H  294  1  0.37072800  0.56893700  0.23255300  1
  H  296  1  0.71397750  0.37642250  0.17416750  1
  H  618  1  0.06390750  0.18763250  0.81212950  1
  H  619  1  0.05689800  0.19161200  0.75249500  1
  H  620  1  0.95267400  0.30288750  0.84718050  1
  H  621  1  0.94722700  0.30786900  0.78712700  1
  H  622  1  0.02517000  0.30357700  0.70402000  1
  H  623  1  0.08785900  0.30754100  0.64440700  1
  H  624  1  0.12694950  0.19228400  0.60935500  1
  H  625  1  0.06640250  0.18731250  0.66938550  1
  H  626  1  0.98319300  0.22333400  0.67222600  1
  H  627  1  0.98017600  0.16371550  0.66823450  1
  H  628  1  0.97603950  0.12868850  0.78353050  1
  H  629  1  0.97649750  0.18874000  0.78852900  1
  H  630  1  0.90288400  0.27188200  0.78422000  1
  H  631  1  0.97798500  0.30642700  0.66793200  1
  H  632  1  0.91249400  0.36646500  0.67286200  1
  H  633  1  0.83627300  0.33149600  0.78815000  1
  H  716  1  0.25400100  0.83148200  0.28815800  1
  H  717  1  0.25090400  0.77187200  0.28423600  1
  H  718  1  0.25818800  0.86641150  0.17283850  1
  H  719  1  0.25764050  0.80638350  0.16791450  1
  H  720  1  0.33116700  0.72331450  0.17223250  1
  H  721  1  0.39780600  0.66369850  0.16826950  1
  H  722  1  0.32164550  0.62871550  0.28357950  1
  H  723  1  0.25613850  0.68875800  0.28854800  1
  H  724  1  0.20891950  0.69158650  0.25254850  1
  H  725  1  0.14624200  0.68764300  0.31217900  1
  H  726  1  0.10711750  0.80296650  0.34710850  1
  H  727  1  0.16766350  0.80790950  0.28705850  1
  H  728  1  0.17720650  0.80360350  0.20396550  1
  H  729  1  0.28674450  0.68726400  0.16945000  1
  H  730  1  0.28125900  0.69220600  0.10942700  1
  H  731  1  0.17017150  0.80754850  0.14435950  1
  N  1  1  0.30371000  0.74988200  0.88483000  1
  N  32  1  0.49441300  0.67958150  0.78562650  1
  N  34  1  0.26512100  0.74852200  0.04744700  1
  N  36  1  0.16425650  0.81237400  0.83635800  1
  N  38  1  0.96253650  0.74537600  0.57168500  1
  N  69  1  0.98371300  0.81569900  0.67088300  1
  N  71  1  0.08526000  0.74672200  0.40909100  1
  N  73  1  0.83714700  0.68283650  0.62014450  1
  N  75  1  0.05604600  0.90415550  0.72594350  1
  N  106  1  0.17637350  0.80494550  0.79631150  1
  N  108  1  0.01624250  0.06675550  0.72715850  1
  N  110  1  0.97903600  0.85574100  0.66345500  1
  N  112  1  0.71029250  0.59104950  0.73051850  1
  N  143  1  0.80178050  0.69026200  0.66018500  1
  N  145  1  0.83434300  0.42843600  0.72915900  1
  N  147  1  0.52235700  0.63953950  0.79304550  1
  N  149  1  0.93032500  0.24535550  0.07171350  1
  N  180  1  0.73962550  0.31571350  0.17089850  1
  N  182  1  0.96889100  0.24653250  0.90912050  1
  N  184  1  0.06983550  0.18279900  0.12012200  1
  N  186  1  0.27149550  0.24988200  0.38481700  1
  N  217  1  0.25036250  0.17954300  0.28559000  1
  N  219  1  0.14869300  0.24872900  0.54743400  1
  N  221  1  0.39691200  0.31239300  0.33635400  1
  N  223  1  0.17814050  0.09100650  0.23046350  1
  N  254  1  0.05775400  0.19023400  0.16015500  1
  N  256  1  0.21803600  0.92839600  0.22915700  1
  N  258  1  0.25501950  0.13950900  0.29302300  1
  N  260  1  0.52377850  0.40415450  0.22595350  1
  N  291  1  0.43227650  0.30495750  0.29631250  1
  N  293  1  0.39977050  0.56676100  0.22717600  1
  N  295  1  0.71169100  0.35575000  0.16345400  1
  O  638  1  0.17127250  0.27162500  0.58114500  1
  O  639  1  0.78880000  0.39475700  0.75225600  1
  O  640  1  0.04807550  0.22355500  0.87546100  1
  O  641  1  0.96002800  0.10038700  0.70417600  1
  O  736  1  0.44531100  0.60041250  0.20422350  1
  O  737  1  0.18589500  0.77164350  0.08112050  1
  O  738  1  0.27417000  0.89470600  0.25224300  1
  O  739  1  0.06278650  0.72359850  0.37546650  1
