# generated using pymatgen
data_Cu3H4WC8S4N5
_symmetry_space_group_name_H-M   'P 1'
_cell_length_a   8.66598000
_cell_length_b   14.36848000
_cell_length_c   19.77169000
_cell_angle_alpha   89.94094000
_cell_angle_beta   99.37292000
_cell_angle_gamma   89.97949000
_symmetry_Int_Tables_number   1
_chemical_formula_structural   Cu3H4WC8S4N5
_chemical_formula_sum   'Cu12 H16 W4 C32 S16 N20'
_cell_volume   2429.04073646
_cell_formula_units_Z   4
loop_
 _symmetry_equiv_pos_site_id
 _symmetry_equiv_pos_as_xyz
  1  'x, y, z'
loop_
 _atom_site_type_symbol
 _atom_site_label
 _atom_site_symmetry_multiplicity
 _atom_site_fract_x
 _atom_site_fract_y
 _atom_site_fract_z
 _atom_site_occupancy
  Cu  Cu0  1  0.12518000  0.14280000  0.30255000  1
  Cu  Cu1  1  0.21093000  0.36413000  0.21047000  1
  Cu  Cu2  1  0.24197000  0.26500000  0.48107000  1
  Cu  Cu3  1  0.87539000  0.64350000  0.19796000  1
  Cu  Cu4  1  0.78908000  0.86348000  0.28957000  1
  Cu  Cu5  1  0.75780000  0.76511000  0.01857000  1
  Cu  Cu6  1  0.87481000  0.85720000  0.69745000  1
  Cu  Cu7  1  0.78906000  0.63586000  0.78952000  1
  Cu  Cu8  1  0.75802000  0.73500000  0.51893000  1
  Cu  Cu9  1  0.12460000  0.35650000  0.80204000  1
  Cu  Cu10  1  0.21092000  0.13652000  0.71043000  1
  Cu  Cu11  1  0.24220000  0.23489000  0.98143000  1
  H  H12  1  0.06144000  0.99984000  0.19349000  1
  H  H13  1  0.17172000  0.95474000  0.08892000  1
  H  H14  1  0.56310000  0.13623000  0.15782000  1
  H  H15  1  0.43950000  0.17285000  0.26078000  1
  H  H16  1  0.93913000  0.49937000  0.30671000  1
  H  H17  1  0.82824000  0.45418000  0.41115000  1
  H  H18  1  0.43698000  0.63596000  0.34167000  1
  H  H19  1  0.56122000  0.67264000  0.23891000  1
  H  H20  1  0.93855000  0.00015000  0.80651000  1
  H  H21  1  0.82827000  0.04526000  0.91108000  1
  H  H22  1  0.43689000  0.86376000  0.84218000  1
  H  H23  1  0.56049000  0.82715000  0.73922000  1
  H  H24  1  0.06087000  0.50063000  0.69329000  1
  H  H25  1  0.17175000  0.54582000  0.58885000  1
  H  H26  1  0.56301000  0.36404000  0.65833000  1
  H  H27  1  0.43877000  0.32736000  0.76109000  1
  W  W28  1  0.23254000  0.31629000  0.34953000  1
  W  W29  1  0.76779000  0.81631000  0.15030000  1
  W  W30  1  0.76745000  0.68371000  0.65047000  1
  W  W31  1  0.23220000  0.18369000  0.84970000  1
  C  C32  1  0.97689000  0.04824000  0.30996000  1
  C  C33  1  0.25099000  0.28038000  0.07062000  1
  C  C34  1  0.17229000  0.02814000  0.18384000  1
  C  C35  1  0.23397000  0.00309000  0.12596000  1
  C  C36  1  0.37602000  0.04262000  0.11557000  1
  C  C37  1  0.45285000  0.10432000  0.16456000  1
  C  C38  1  0.38441000  0.12485000  0.22156000  1
  C  C39  1  0.44292000  0.01964000  0.05413000  1
  C  C40  1  0.02391000  0.54927000  0.19043000  1
  C  C41  1  0.74932000  0.77997000  0.42965000  1
  C  C42  1  0.82824000  0.52777000  0.31625000  1
  C  C43  1  0.76621000  0.50269000  0.37407000  1
  C  C44  1  0.62414000  0.54236000  0.38432000  1
  C  C45  1  0.54743000  0.60407000  0.33517000  1
  C  C46  1  0.61617000  0.62463000  0.27825000  1
  C  C47  1  0.55713000  0.51950000  0.44582000  1
  C  C48  1  0.02310000  0.95175000  0.69004000  1
  C  C49  1  0.74900000  0.71962000  0.92938000  1
  C  C50  1  0.82770000  0.97185000  0.81616000  1
  C  C51  1  0.76602000  0.99691000  0.87404000  1
  C  C52  1  0.62397000  0.95737000  0.88442000  1
  C  C53  1  0.54714000  0.89568000  0.83544000  1
  C  C54  1  0.61558000  0.87515000  0.77844000  1
  C  C55  1  0.55707000  0.98036000  0.94587000  1
  C  C56  1  0.97608000  0.45073000  0.80957000  1
  C  C57  1  0.25067000  0.22002000  0.57035000  1
  C  C58  1  0.17176000  0.47223000  0.68375000  1
  C  C59  1  0.23378000  0.49731000  0.62593000  1
  C  C60  1  0.37585000  0.45763000  0.61567000  1
  C  C61  1  0.45256000  0.39593000  0.66483000  1
  C  C62  1  0.38382000  0.37537000  0.72175000  1
  C  C63  1  0.44286000  0.48049000  0.55418000  1
  S  S64  1  0.02513000  0.28757000  0.26793000  1
  S  S65  1  0.31930000  0.17936000  0.39577000  1
  S  S66  1  0.41842000  0.37645000  0.29909000  1
  S  S67  1  0.16000000  0.40173000  0.43216000  1
  S  S68  1  0.97518000  0.78785000  0.23214000  1
  S  S69  1  0.68163000  0.67937000  0.10426000  1
  S  S70  1  0.58171000  0.87612000  0.20075000  1
  S  S71  1  0.84034000  0.90160000  0.06748000  1
  S  S72  1  0.97486000  0.71243000  0.73207000  1
  S  S73  1  0.68069000  0.82064000  0.60423000  1
  S  S74  1  0.58157000  0.62354000  0.70091000  1
  S  S75  1  0.83999000  0.59827000  0.56784000  1
  S  S76  1  0.02481000  0.21215000  0.76786000  1
  S  S77  1  0.31836000  0.32063000  0.89573000  1
  S  S78  1  0.41828000  0.12388000  0.79924000  1
  S  S79  1  0.15965000  0.09839000  0.93252000  1
  N  N80  1  0.24545000  0.08875000  0.23065000  1
  N  N81  1  0.25202000  0.30981000  0.12607000  1
  N  N82  1  0.90447000  0.97895000  0.30924000  1
  N  N83  1  0.40008000  0.93781000  0.02282000  1
  N  N84  1  0.54122000  0.08242000  0.03296000  1
  N  N85  1  0.75531000  0.58854000  0.26938000  1
  N  N86  1  0.74793000  0.80898000  0.37399000  1
  N  N87  1  0.09597000  0.47982000  0.19115000  1
  N  N88  1  0.60005000  0.43774000  0.47738000  1
  N  N89  1  0.45869000  0.58235000  0.46681000  1
  N  N90  1  0.75454000  0.91125000  0.76935000  1
  N  N91  1  0.74798000  0.69018000  0.87393000  1
  N  N92  1  0.09552000  0.02105000  0.69076000  1
  N  N93  1  0.59991000  0.06218000  0.97718000  1
  N  N94  1  0.45877000  0.91758000  0.96704000  1
  N  N95  1  0.24468000  0.41146000  0.73062000  1
  N  N96  1  0.25206000  0.19102000  0.62600000  1
  N  N97  1  0.90402000  0.52018000  0.80885000  1
  N  N98  1  0.39994000  0.56225000  0.52262000  1
  N  N99  1  0.54130000  0.41764000  0.53319000  1
