# generated using pymatgen
data_H25C42(N3O2)2
_symmetry_space_group_name_H-M   'P 1'
_cell_length_a   34.29220000
_cell_length_b   34.29220000
_cell_length_c   68.58450000
_cell_angle_alpha   90.00000000
_cell_angle_beta   90.00000000
_cell_angle_gamma   90.00000000
_symmetry_Int_Tables_number   1
_chemical_formula_structural   H25C42(N3O2)2
_chemical_formula_sum   'H100 C168 N24 O16'
_cell_volume   80652.28438342
_cell_formula_units_Z   4
loop_
 _symmetry_equiv_pos_site_id
 _symmetry_equiv_pos_as_xyz
  1  'x, y, z'
loop_
 _atom_site_type_symbol
 _atom_site_label
 _atom_site_symmetry_multiplicity
 _atom_site_fract_x
 _atom_site_fract_y
 _atom_site_fract_z
 _atom_site_occupancy
  H  73  1  0.06702200  0.95021900  0.84349200  1
  H  74  1  0.06220100  0.95578900  0.87782200  1
  H  75  1  0.99377400  0.04835600  0.83679000  1
  H  76  1  0.98950500  0.05426500  0.87143300  1
  H  77  1  0.96284300  0.01863000  0.90136800  1
  H  78  1  0.96018600  0.02118800  0.93624400  1
  H  79  1  0.08453800  0.00045800  0.90421500  1
  H  80  1  0.08162800  0.00249600  0.93897600  1
  H  81  1  0.01962700  0.93375200  0.94815500  1
  H  82  1  0.01998800  0.88182700  0.97439800  1
  H  83  1  0.01824100  0.98824800  0.00105600  1
  H  84  1  0.01931200  0.03691800  0.02505900  1
  H  85  1  0.02076200  0.09092600  0.94709500  1
  H  86  1  0.02089000  0.14362600  0.97313500  1
  H  87  1  0.96023900  0.16580900  0.01548500  1
  H  88  1  0.96252500  0.23550000  0.01432100  1
  H  89  1  0.08253400  0.16122900  0.00942500  1
  H  90  1  0.08508300  0.23081400  0.00861000  1
  H  91  1  0.01988200  0.14338600  0.05169800  1
  H  92  1  0.01946900  0.09148900  0.07795500  1
  H  93  1  0.02003200  0.88158500  0.05301700  1
  H  94  1  0.02044300  0.93434100  0.07904000  1
  H  95  1  0.08175200  0.02164400  0.08741900  1
  H  96  1  0.08408900  0.02345800  0.12217700  1
  H  97  1  0.95988600  0.00571300  0.08957000  1
  H  98  1  0.96191000  0.00831700  0.12441800  1
  H  99  1  0.98568800  0.97097300  0.15339300  1
  H  100  1  0.99149100  0.97132900  0.18810800  1
  H  101  1  0.07169800  0.06441000  0.18444300  1
  H  102  1  0.06505600  0.06488400  0.14989100  1
  H  103  1  0.96009300  0.85898500  0.00934200  1
  H  104  1  0.96261500  0.78923500  0.01050700  1
  H  105  1  0.06337400  0.74125600  0.04087800  1
  H  106  1  0.06877600  0.67247400  0.04301700  1
  H  107  1  0.99311800  0.66024900  0.99481500  1
  H  108  1  0.98824800  0.72959500  0.99248500  1
  H  109  1  0.08453400  0.79458900  0.01882300  1
  H  110  1  0.08175000  0.86410900  0.01794700  1
  H  111  1  0.06572000  0.28437600  0.98630300  1
  H  112  1  0.06841400  0.35323200  0.98343900  1
  H  113  1  0.98534400  0.29500300  0.03259900  1
  H  114  1  0.98731200  0.36421400  0.02947000  1
  H  119  1  0.05979800  0.60938400  0.02807200  1
  H  120  1  0.05431100  0.97467700  0.81164700  1
  H  121  1  0.04603300  0.41695500  0.99271000  1
  H  122  1  0.06652900  0.01586100  0.21397400  1
  H  195  1  0.07804600  0.06651100  0.34382800  1
  H  196  1  0.07209100  0.06162700  0.37812800  1
  H  197  1  0.97954600  0.99386500  0.33678600  1
  H  198  1  0.97327700  0.98949300  0.37142700  1
  H  199  1  0.00872500  0.96265000  0.40149700  1
  H  200  1  0.00601000  0.96006700  0.43637400  1
  H  201  1  0.02697500  0.08433900  0.40430400  1
  H  202  1  0.02476400  0.08150600  0.43906900  1
  H  203  1  0.09345300  0.01955400  0.44822400  1
  H  204  1  0.14541600  0.01987400  0.47444700  1
  H  205  1  0.03903800  0.01810900  0.50114700  1
  H  206  1  0.99040900  0.01886800  0.52517000  1
  H  207  1  0.93628000  0.02070400  0.44722400  1
  H  208  1  0.88361800  0.02079600  0.47328300  1
  H  209  1  0.86144700  0.96009900  0.51561500  1
  H  210  1  0.79176300  0.96243200  0.51442500  1
  H  211  1  0.86611500  0.08239100  0.50956000  1
  H  212  1  0.79653400  0.08498700  0.50871800  1
  H  213  1  0.88398800  0.01974000  0.55184800  1
  H  214  1  0.93592400  0.01919200  0.57808500  1
  H  215  1  0.14578700  0.01977100  0.55306100  1
  H  216  1  0.09308400  0.02005000  0.57910900  1
  H  217  1  0.00577700  0.08154900  0.58735100  1
  H  218  1  0.00389000  0.08429500  0.62209400  1
  H  219  1  0.02179400  0.95972600  0.58986700  1
  H  220  1  0.01913800  0.96216600  0.62471700  1
  H  221  1  0.05610600  0.98643100  0.65382000  1
  H  222  1  0.05511900  0.99268900  0.68850500  1
  H  223  1  0.96181600  0.07251600  0.68418500  1
  H  224  1  0.96202100  0.06544400  0.64966600  1
  H  225  1  0.16836000  0.95994700  0.50939500  1
  H  226  1  0.23811100  0.96253100  0.51053500  1
  H  227  1  0.28601800  0.06335500  0.54088500  1
  H  228  1  0.35479800  0.06879800  0.54302100  1
  H  229  1  0.36706000  0.99308300  0.49484400  1
  H  230  1  0.29772400  0.98817500  0.49251500  1
  H  231  1  0.23265900  0.08445100  0.51883300  1
  H  232  1  0.16314100  0.08160400  0.51798300  1
  H  233  1  0.74298200  0.06567600  0.48640400  1
  H  234  1  0.67413300  0.06841100  0.48351600  1
  H  235  1  0.73224200  0.98526800  0.53268000  1
  H  236  1  0.66304000  0.98727700  0.52952600  1
  H  241  1  0.41790600  0.05977700  0.52811200  1
  H  242  1  0.05324000  0.05491400  0.31204600  1
  H  243  1  0.61037800  0.04606600  0.49276400  1
  H  244  1  0.00850300  0.06766900  0.71416600  1
  H  250  1  0.96868700  0.05180600  0.78186200  1
  H  252  1  0.06297800  0.97386000  0.77884200  1
  H  266  1  0.97447200  0.97227900  0.28097800  1
  H  268  1  0.05536200  0.06421900  0.27964300  1
  H  282  1  0.07628100  0.54693800  0.01609900  1
  H  284  1  0.95424900  0.54775400  0.01095300  1
  H  298  1  0.48035100  0.07629300  0.51611800  1
  H  300  1  0.47952900  0.95426400  0.51096800  1
  C  1  1  0.01926100  0.93947000  0.96277600  1
  C  2  1  0.01943100  0.91113100  0.97709300  1
  C  3  1  0.01892100  0.92957000  0.99526100  1
  C  5  1  0.01896200  0.97602400  0.97179300  1
  C  6  1  0.01915400  0.01246600  0.96177300  1
  C  7  1  0.01925600  0.04951400  0.97109600  1
  C  9  1  0.01967400  0.09611100  0.99412400  1
  C  10  1  0.02028300  0.11435300  0.97591600  1
  C  11  1  0.02015600  0.08570900  0.96176100  1
  C  12  1  0.01978800  0.11520600  0.01253600  1
  C  13  1  0.01942200  0.09559900  0.03085400  1
  C  15  1  0.01934500  0.04919500  0.05431700  1
  C  16  1  0.01940100  0.08575400  0.06333300  1
  C  17  1  0.01959100  0.11407300  0.04901400  1
  C  18  1  0.01946700  0.01276700  0.06433600  1
  C  19  1  0.01935900  0.97570600  0.05502200  1
  C  21  1  0.01930500  0.92905700  0.03199600  1
  C  22  1  0.01976200  0.91085700  0.05022000  1
  C  23  1  0.01994300  0.93952300  0.06436800  1
  C  24  1  0.01922300  0.90993000  0.01358200  1
  C  25  1  0.02065800  0.86818000  0.01356300  1
  C  26  1  0.05647300  0.84858700  0.01625500  1
  C  27  1  0.05794100  0.80756600  0.01690700  1
  C  28  1  0.02381300  0.78455700  0.01484300  1
  C  29  1  0.98813100  0.80449200  0.01174200  1
  C  30  1  0.98650400  0.84559500  0.01121100  1
  C  31  1  0.02548700  0.74279000  0.01634600  1
  C  32  1  0.00480900  0.71795900  0.00344700  1
  C  33  1  0.00778600  0.67695000  0.00477200  1
  C  34  1  0.03136400  0.65908300  0.01918800  1
  C  35  1  0.05143500  0.68391400  0.03228400  1
  C  36  1  0.04850200  0.72474500  0.03091900  1
  C  37  1  0.02061100  0.01344900  0.08519600  1
  C  38  1  0.05631400  0.01875900  0.09509800  1
  C  39  1  0.05749900  0.02020500  0.11561200  1
  C  40  1  0.02318100  0.01636300  0.12700500  1
  C  41  1  0.98755700  0.01070500  0.11689400  1
  C  42  1  0.98621600  0.00939900  0.09635200  1
  C  43  1  0.02474900  0.01788000  0.14793900  1
  C  44  1  0.04922500  0.04492700  0.15766000  1
  C  45  1  0.05291600  0.04493600  0.17810600  1
  C  46  1  0.03180900  0.01817900  0.18969600  1
  C  47  1  0.00649700  0.99175300  0.18021600  1
  C  48  1  0.00303300  0.99169800  0.15971000  1
  C  49  1  0.02115500  0.15692600  0.01256300  1
  C  50  1  0.98672600  0.17931800  0.01417900  1
  C  51  1  0.98822200  0.22040300  0.01366400  1
  C  52  1  0.02404800  0.24052800  0.01136000  1
  C  53  1  0.05842800  0.21769600  0.00998200  1
  C  54  1  0.05708400  0.17665600  0.01060000  1
  C  55  1  0.02544000  0.28230500  0.00984900  1
  C  56  1  0.04940300  0.30068400  0.99576700  1
  C  57  1  0.05069300  0.34155600  0.99395100  1
  C  58  1  0.02812400  0.36609800  0.00614300  1
  C  59  1  0.00415800  0.34782300  0.02027900  1
  C  60  1  0.00275900  0.30682500  0.02202800  1
  C  61  1  0.02061400  0.01190900  0.94091200  1
  C  62  1  0.98656800  0.01701200  0.92958200  1
  C  63  1  0.05642400  0.00608300  0.93117800  1
  C  64  1  0.05797400  0.00466300  0.91067500  1
  C  65  1  0.02394700  0.00918900  0.89913900  1
  C  66  1  0.98828000  0.01584500  0.90903800  1
  C  67  1  0.02564400  0.00585600  0.87828600  1
  C  68  1  0.00556700  0.03185300  0.86573400  1
  C  69  1  0.00826400  0.02849400  0.84524400  1
  C  70  1  0.03092600  0.99873700  0.83646000  1
  C  71  1  0.05044100  0.97243700  0.84905500  1
  C  72  1  0.04786500  0.97590400  0.86944700  1
  C  115  1  0.03684700  0.61878500  0.02054100  1
  C  116  1  0.03886400  0.01638400  0.20958800  1
  C  117  1  0.03032900  0.40657400  0.00378400  1
  C  118  1  0.03527400  0.99442700  0.81628500  1
  C  123  1  0.08775700  0.01917400  0.46284800  1
  C  124  1  0.11611600  0.01932300  0.47715300  1
  C  125  1  0.09770700  0.01877900  0.49532800  1
  C  127  1  0.05121700  0.01885900  0.47188100  1
  C  128  1  0.01475500  0.01905400  0.46187800  1
  C  129  1  0.97772100  0.01912700  0.47121100  1
  C  131  1  0.93116200  0.01951400  0.49425600  1
  C  132  1  0.91289300  0.02014500  0.47605400  1
  C  133  1  0.94151700  0.02006200  0.46188900  1
  C  134  1  0.91209700  0.01961000  0.51267600  1
  C  135  1  0.93174000  0.01918400  0.53098600  1
  C  137  1  0.97818500  0.01899000  0.55443400  1
  C  138  1  0.94163700  0.01912600  0.56346300  1
  C  139  1  0.91329500  0.01938300  0.54915300  1
  C  140  1  0.01462700  0.01904800  0.56444400  1
  C  141  1  0.05167100  0.01897600  0.55511200  1
  C  143  1  0.09827700  0.01903500  0.53206300  1
  C  144  1  0.11651100  0.01946700  0.55027900  1
  C  145  1  0.08787100  0.01957500  0.56444100  1
  C  146  1  0.11737200  0.01903500  0.51364100  1
  C  147  1  0.15911900  0.02050700  0.51360400  1
  C  148  1  0.17868300  0.05634300  0.51628000  1
  C  149  1  0.21970300  0.05784600  0.51692400  1
  C  150  1  0.24273800  0.02373600  0.51486100  1
  C  151  1  0.22283000  0.98803200  0.51178300  1
  C  152  1  0.18173000  0.98637300  0.51124500  1
  C  153  1  0.28450300  0.02544200  0.51636200  1
  C  154  1  0.30934400  0.00476800  0.50346700  1
  C  155  1  0.35035400  0.00776000  0.50479300  1
  C  156  1  0.36820600  0.03137100  0.51920000  1
  C  157  1  0.34337000  0.05143400  0.53229400  1
  C  158  1  0.30253800  0.04848100  0.53092900  1
  C  159  1  0.01398800  0.02038500  0.58530600  1
  C  160  1  0.00869000  0.05620400  0.59510400  1
  C  161  1  0.00722300  0.05763400  0.61561300  1
  C  162  1  0.01101700  0.02345600  0.62711300  1
  C  163  1  0.01679600  0.98772300  0.61711300  1
  C  164  1  0.01810500  0.98613700  0.59657100  1
  C  165  1  0.00920600  0.02530200  0.64803900  1
  C  166  1  0.98191100  0.04980400  0.65757000  1
  C  167  1  0.98151800  0.05376800  0.67800500  1
  C  168  1  0.00810100  0.03290200  0.68979700  1
  C  169  1  0.03481500  0.00759100  0.68048600  1
  C  170  1  0.03528200  0.00387000  0.65999200  1
  C  171  1  0.87037600  0.02101200  0.51271400  1
  C  172  1  0.84795700  0.98660100  0.51432500  1
  C  173  1  0.80687400  0.98812000  0.51378200  1
  C  174  1  0.78677400  0.02396000  0.51147400  1
  C  175  1  0.80963300  0.05832400  0.51010500  1
  C  176  1  0.85067200  0.05695400  0.51074100  1
  C  177  1  0.74499700  0.02537400  0.50994200  1
  C  178  1  0.72665200  0.04935400  0.49585600  1
  C  179  1  0.68578300  0.05067200  0.49402600  1
  C  180  1  0.66120900  0.02811000  0.50620800  1
  C  181  1  0.67945500  0.00412300  0.52034400  1
  C  182  1  0.72045000  0.00270300  0.52210800  1
  C  183  1  0.01528700  0.02050200  0.44102000  1
  C  184  1  0.01018900  0.98643700  0.42970400  1
  C  185  1  0.02116600  0.05629400  0.43127800  1
  C  186  1  0.02268300  0.05779900  0.41077800  1
  C  187  1  0.01821800  0.02373800  0.39925900  1
  C  188  1  0.01149000  0.98809600  0.40916200  1
  C  189  1  0.02180600  0.02535800  0.37842200  1
  C  190  1  0.99585300  0.00541500  0.36579300  1
  C  191  1  0.99943700  0.00814800  0.34531100  1
  C  192  1  0.02940400  0.03068500  0.33663400  1
  C  193  1  0.05570600  0.04998900  0.34931400  1
  C  194  1  0.05201400  0.04738400  0.36968900  1
  C  237  1  0.40850700  0.03685700  0.52055600  1
  C  238  1  0.00934300  0.04006200  0.70971700  1
  C  239  1  0.62073900  0.03034000  0.50383500  1
  C  240  1  0.03375900  0.03543700  0.31649300  1
  C  245  1  0.01624400  0.01304700  0.78376000  1
  C  246  1  0.98821900  0.03576900  0.77390200  1
  C  247  1  0.98573400  0.03645300  0.75325000  1
  C  248  1  0.01248400  0.01419600  0.74196700  1
  C  249  1  0.04051600  0.99079400  0.75164200  1
  C  251  1  0.04226800  0.99074100  0.77228000  1
  C  261  1  0.01552500  0.01771900  0.28375800  1
  C  262  1  0.99158100  0.99147900  0.27338800  1
  C  263  1  0.99028900  0.99109700  0.25270000  1
  C  264  1  0.01395700  0.01726900  0.24190300  1
  C  265  1  0.03759000  0.04452900  0.25209300  1
  C  267  1  0.03823600  0.04418400  0.27273500  1
  C  277  1  0.01519200  0.55396900  0.01363100  1
  C  278  1  0.05025400  0.53250900  0.01524800  1
  C  279  1  0.05047400  0.49121100  0.01581400  1
  C  280  1  0.01477000  0.47045400  0.01427900  1
  C  281  1  0.97931900  0.49150500  0.01266800  1
  C  283  1  0.98002500  0.53287000  0.01214700  1
  C  293  1  0.47332300  0.01520600  0.51365000  1
  C  294  1  0.49478300  0.05026700  0.51527000  1
  C  295  1  0.53607800  0.05048400  0.51584000  1
  C  296  1  0.55683500  0.01477900  0.51430600  1
  C  297  1  0.53578100  0.97933100  0.51269200  1
  C  299  1  0.49441900  0.98003600  0.51216500  1
  N  4  1  0.01852800  0.96835100  0.99122100  1
  N  8  1  0.01899000  0.05734200  0.99043700  1
  N  14  1  0.01917200  0.05682500  0.03489000  1
  N  20  1  0.01899300  0.96783500  0.03568200  1
  N  126  1  0.05891900  0.01840000  0.49130500  1
  N  130  1  0.96992300  0.01883900  0.49055400  1
  N  136  1  0.97051800  0.01883600  0.53500900  1
  N  142  1  0.05950400  0.01866100  0.53576700  1
  N  253  1  0.95630800  0.05821500  0.74370900  1
  N  254  1  0.06657100  0.96789400  0.74041100  1
  N  259  1  0.01597900  0.01373300  0.80334600  1
  N  260  1  0.01135500  0.01254800  0.72244300  1
  N  269  1  0.96587600  0.96483200  0.24245400  1
  N  270  1  0.05958900  0.07240200  0.24154600  1
  N  275  1  0.01465800  0.01645500  0.30335100  1
  N  276  1  0.01137900  0.01707000  0.22238300  1
  N  285  1  0.08570600  0.47024700  0.01825400  1
  N  286  1  0.94384700  0.47050900  0.01146300  1
  N  291  1  0.01356000  0.59306200  0.01327900  1
  N  292  1  0.01360400  0.43141900  0.01514400  1
  N  301  1  0.55704200  0.08571600  0.51828200  1
  N  302  1  0.55677400  0.94385600  0.51148900  1
  N  307  1  0.43422700  0.01357700  0.51328800  1
  N  308  1  0.59587000  0.01360700  0.51518100  1
  O  255  1  0.95903200  0.09397300  0.74749000  1
  O  256  1  0.10143000  0.97748200  0.74340900  1
  O  257  1  0.92279600  0.04671500  0.74837600  1
  O  258  1  0.06277100  0.93220900  0.74413000  1
  O  271  1  0.97448100  0.92999000  0.24614300  1
  O  272  1  0.04937100  0.10664700  0.24559600  1
  O  273  1  0.93058200  0.97021800  0.24657800  1
  O  274  1  0.09547900  0.06895600  0.24486400  1
  O  287  1  0.10912300  0.47682900  0.00454900  1
  O  288  1  0.92639400  0.47733600  0.99572100  1
  O  289  1  0.10204000  0.47869200  0.03410300  1
  O  290  1  0.92151000  0.47881700  0.02538100  1
  O  303  1  0.55046600  0.10913300  0.50457600  1
  O  304  1  0.54995300  0.92640600  0.49574500  1
  O  305  1  0.54858800  0.10205100  0.53412900  1
  O  306  1  0.54845400  0.92151900  0.52540400  1
