# generated using pymatgen
data_MnH4C10(SO2)2
_symmetry_space_group_name_H-M   'P 1'
_cell_length_a   12.01780000
_cell_length_b   12.01780000
_cell_length_c   19.42500000
_cell_angle_alpha   77.41860000
_cell_angle_beta   77.41860000
_cell_angle_gamma   77.68940000
_symmetry_Int_Tables_number   1
_chemical_formula_structural   MnH4C10(SO2)2
_chemical_formula_sum   'Mn6 H24 C60 S12 O24'
_cell_volume   2631.61310288
_cell_formula_units_Z   6
loop_
 _symmetry_equiv_pos_site_id
 _symmetry_equiv_pos_as_xyz
  1  'x, y, z'
loop_
 _atom_site_type_symbol
 _atom_site_label
 _atom_site_symmetry_multiplicity
 _atom_site_fract_x
 _atom_site_fract_y
 _atom_site_fract_z
 _atom_site_occupancy
  Mn  Mn1  1  0.98196000  0.32430000  0.67781000  1.0
  Mn  Mn2  1  0.67570000  0.01804000  0.82219000  1.0
  Mn  Mn3  1  0.01804000  0.67570000  0.32219000  1.0
  Mn  Mn4  1  0.32430000  0.98196000  0.17781000  1.0
  Mn  Mn5  1  0.00000000  0.50000000  0.50000000  1.0
  Mn  Mn6  1  0.50000000  0.00000000  0.00000000  1.0
  H  H1  1  0.65770000  0.21050000  0.59450000  1.0
  H  H2  1  0.48570000  0.30210000  0.54250000  1.0
  H  H3  1  0.23370000  0.70150000  0.56250000  1.0
  H  H4  1  0.32740000  0.79600000  0.62700000  1.0
  H  H5  1  0.28510000  0.24830000  0.41050000  1.0
  H  H6  1  0.46430000  0.10690000  0.39080000  1.0
  H  H7  1  0.78950000  0.34230000  0.90550000  1.0
  H  H8  1  0.69790000  0.51430000  0.95750000  1.0
  H  H9  1  0.29850000  0.76630000  0.93750000  1.0
  H  H10  1  0.20400000  0.67260000  0.87300000  1.0
  H  H11  1  0.75170000  0.71490000  0.08950000  1.0
  H  H12  1  0.89310000  0.53570000  0.10920000  1.0
  H  H13  1  0.34230000  0.78950000  0.40550000  1.0
  H  H14  1  0.51430000  0.69790000  0.45750000  1.0
  H  H15  1  0.76630000  0.29850000  0.43750000  1.0
  H  H16  1  0.67260000  0.20400000  0.37300000  1.0
  H  H17  1  0.71490000  0.75170000  0.58950000  1.0
  H  H18  1  0.53570000  0.89310000  0.60920000  1.0
  H  H19  1  0.21050000  0.65770000  0.09450000  1.0
  H  H20  1  0.30210000  0.48570000  0.04250000  1.0
  H  H21  1  0.70150000  0.23370000  0.06250000  1.0
  H  H22  1  0.79600000  0.32740000  0.12700000  1.0
  H  H23  1  0.24830000  0.28510000  0.91050000  1.0
  H  H24  1  0.10690000  0.46430000  0.89080000  1.0
  C  C1  1  0.82100000  0.34060000  0.60430000  1.0
  C  C2  1  0.71190000  0.36670000  0.57330000  1.0
  C  C3  1  0.64180000  0.28900000  0.57520000  1.0
  C  C4  1  0.54300000  0.34160000  0.54480000  1.0
  C  C5  1  0.54080000  0.45940000  0.51850000  1.0
  C  C6  1  0.09580000  0.53780000  0.63420000  1.0
  C  C7  1  0.15880000  0.61460000  0.65510000  1.0
  C  C8  1  0.22440000  0.68820000  0.61220000  1.0
  C  C9  1  0.27790000  0.74390000  0.64960000  1.0
  C  C10  1  0.24970000  0.71350000  0.72160000  1.0
  C  C11  1  0.16210000  0.26070000  0.55050000  1.0
  C  C12  1  0.27050000  0.18830000  0.51880000  1.0
  C  C13  1  0.31690000  0.19610000  0.44700000  1.0
  C  C14  1  0.42090000  0.11310000  0.43620000  1.0
  C  C15  1  0.45140000  0.04460000  0.49600000  1.0
  C  C16  1  0.65940000  0.17900000  0.89570000  1.0
  C  C17  1  0.63330000  0.28810000  0.92670000  1.0
  C  C18  1  0.71100000  0.35820000  0.92480000  1.0
  C  C19  1  0.65840000  0.45700000  0.95520000  1.0
  C  C20  1  0.54060000  0.45920000  0.98150000  1.0
  C  C21  1  0.46220000  0.90420000  0.86580000  1.0
  C  C22  1  0.38540000  0.84120000  0.84490000  1.0
  C  C23  1  0.31180000  0.77560000  0.88780000  1.0
  C  C24  1  0.25610000  0.72210000  0.85040000  1.0
  C  C25  1  0.28650000  0.75030000  0.77840000  1.0
  C  C26  1  0.73930000  0.83790000  0.94950000  1.0
  C  C27  1  0.81170000  0.72950000  0.98120000  1.0
  C  C28  1  0.80390000  0.68310000  0.05300000  1.0
  C  C29  1  0.88690000  0.57910000  0.06380000  1.0
  C  C30  1  0.95540000  0.54860000  0.00400000  1.0
  C  C31  1  0.17900000  0.65940000  0.39570000  1.0
  C  C32  1  0.28810000  0.63330000  0.42670000  1.0
  C  C33  1  0.35820000  0.71100000  0.42480000  1.0
  C  C34  1  0.45700000  0.65840000  0.45520000  1.0
  C  C35  1  0.45920000  0.54060000  0.48150000  1.0
  C  C36  1  0.90420000  0.46220000  0.36580000  1.0
  C  C37  1  0.84120000  0.38540000  0.34490000  1.0
  C  C38  1  0.77560000  0.31180000  0.38780000  1.0
  C  C39  1  0.72210000  0.25610000  0.35040000  1.0
  C  C40  1  0.75030000  0.28650000  0.27840000  1.0
  C  C41  1  0.83790000  0.73930000  0.44950000  1.0
  C  C42  1  0.72950000  0.81170000  0.48120000  1.0
  C  C43  1  0.68310000  0.80390000  0.55300000  1.0
  C  C44  1  0.57910000  0.88690000  0.56380000  1.0
  C  C45  1  0.54860000  0.95540000  0.50400000  1.0
  C  C46  1  0.34060000  0.82100000  0.10430000  1.0
  C  C47  1  0.36670000  0.71190000  0.07330000  1.0
  C  C48  1  0.28900000  0.64180000  0.07520000  1.0
  C  C49  1  0.34160000  0.54300000  0.04480000  1.0
  C  C50  1  0.45940000  0.54080000  0.01850000  1.0
  C  C51  1  0.53780000  0.09580000  0.13420000  1.0
  C  C52  1  0.61460000  0.15880000  0.15510000  1.0
  C  C53  1  0.68820000  0.22440000  0.11220000  1.0
  C  C54  1  0.74390000  0.27790000  0.14960000  1.0
  C  C55  1  0.71350000  0.24970000  0.22160000  1.0
  C  C56  1  0.26070000  0.16210000  0.05050000  1.0
  C  C57  1  0.18830000  0.27050000  0.01880000  1.0
  C  C58  1  0.19610000  0.31690000  0.94700000  1.0
  C  C59  1  0.11310000  0.42090000  0.93620000  1.0
  C  C60  1  0.04460000  0.45140000  0.99600000  1.0
  S  S1  1  0.66047000  0.50191000  0.53418000  1.0
  S  S2  1  0.16105000  0.61207000  0.74251000  1.0
  S  S3  1  0.35114000  0.08260000  0.57004000  1.0
  S  S4  1  0.49809000  0.33953000  0.96582000  1.0
  S  S5  1  0.38793000  0.83895000  0.75749000  1.0
  S  S6  1  0.91740000  0.64886000  0.92996000  1.0
  S  S7  1  0.33953000  0.49809000  0.46582000  1.0
  S  S8  1  0.83895000  0.38793000  0.25749000  1.0
  S  S9  1  0.64886000  0.91740000  0.42996000  1.0
  S  S10  1  0.50191000  0.66047000  0.03418000  1.0
  S  S11  1  0.61207000  0.16105000  0.24251000  1.0
  S  S12  1  0.08260000  0.35114000  0.07004000  1.0
  O  O1  1  0.87720000  0.42280000  0.59180000  1.0
  O  O2  1  0.84900000  0.24680000  0.64200000  1.0
  O  O3  1  0.06040000  0.46080000  0.68260000  1.0
  O  O4  1  0.08060000  0.55620000  0.57130000  1.0
  O  O5  1  0.13250000  0.23890000  0.61570000  1.0
  O  O6  1  0.11400000  0.33800000  0.50610000  1.0
  O  O7  1  0.57720000  0.12280000  0.90820000  1.0
  O  O8  1  0.75320000  0.15100000  0.85800000  1.0
  O  O9  1  0.53920000  0.93960000  0.81740000  1.0
  O  O10  1  0.44380000  0.91940000  0.92870000  1.0
  O  O11  1  0.76110000  0.86750000  0.88430000  1.0
  O  O12  1  0.66200000  0.88600000  0.99390000  1.0
  O  O13  1  0.12280000  0.57720000  0.40820000  1.0
  O  O14  1  0.15100000  0.75320000  0.35800000  1.0
  O  O15  1  0.93960000  0.53920000  0.31740000  1.0
  O  O16  1  0.91940000  0.44380000  0.42870000  1.0
  O  O17  1  0.86750000  0.76110000  0.38430000  1.0
  O  O18  1  0.88600000  0.66200000  0.49390000  1.0
  O  O19  1  0.42280000  0.87720000  0.09180000  1.0
  O  O20  1  0.24680000  0.84900000  0.14200000  1.0
  O  O21  1  0.46080000  0.06040000  0.18260000  1.0
  O  O22  1  0.55620000  0.08060000  0.07130000  1.0
  O  O23  1  0.23890000  0.13250000  0.11570000  1.0
  O  O24  1  0.33800000  0.11400000  0.00610000  1.0
