# generated using pymatgen
data_EuH13C21(NO3)2
_symmetry_space_group_name_H-M   'P 1'
_cell_length_a   13.78944000
_cell_length_b   15.20277000
_cell_length_c   15.70663000
_cell_angle_alpha   93.75190000
_cell_angle_beta   112.84793000
_cell_angle_gamma   90.43736000
_symmetry_Int_Tables_number   1
_chemical_formula_structural   EuH13C21(NO3)2
_chemical_formula_sum   'Eu4 H52 C84 N8 O24'
_cell_volume   3025.89318561
_cell_formula_units_Z   4
loop_
 _symmetry_equiv_pos_site_id
 _symmetry_equiv_pos_as_xyz
  1  'x, y, z'
loop_
 _atom_site_type_symbol
 _atom_site_label
 _atom_site_symmetry_multiplicity
 _atom_site_fract_x
 _atom_site_fract_y
 _atom_site_fract_z
 _atom_site_occupancy
  Eu  Eu1  1  0.49868000  0.00983000  0.12836000  1.0
  Eu  Eu2  1  0.88878000  0.47500000  0.87615000  1.0
  Eu  Eu3  1  0.50122000  0.99002000  0.87175000  1.0
  Eu  Eu4  1  0.11098000  0.52460000  0.12396000  1.0
  H  H1  1  0.85628000  0.97151000  0.37244000  1.0
  H  H2  1  0.98511000  0.90750000  0.51532000  1.0
  H  H3  1  0.72623000  0.79076000  0.56195000  1.0
  H  H4  1  0.59865000  0.85231000  0.41827000  1.0
  H  H5  1  0.23799000  0.76601000  0.02607000  1.0
  H  H6  1  0.98155000  0.70021000  0.76696000  1.0
  H  H7  1  0.21165000  0.90561000  0.78848000  1.0
  H  H8  1  0.32514000  0.17251000  0.16355000  1.0
  H  H9  1  0.15750000  0.18090000  0.18915000  1.0
  H  H10  1  0.09711000  0.04937000  0.24813000  1.0
  H  H11  1  0.21134000  0.91715000  0.28182000  1.0
  H  H12  1  0.37777000  0.92131000  0.25383000  1.0
  H  H13  1  0.70926000  0.56594000  0.54708000  1.0
  H  H14  1  0.71460000  0.62717000  0.40457000  1.0
  H  H15  1  0.05266000  0.61413000  0.51887000  1.0
  H  H16  1  0.04615000  0.55098000  0.65948000  1.0
  H  H17  1  0.88684000  0.59032000  0.19081000  1.0
  H  H18  1  0.68174000  0.79849000  0.20993000  1.0
  H  H19  1  0.71669000  0.73413000  0.95330000  1.0
  H  H20  1  0.72519000  0.27678000  0.83615000  1.0
  H  H21  1  0.53824000  0.22760000  0.79915000  1.0
  H  H22  1  0.39727000  0.33950000  0.74677000  1.0
  H  H23  1  0.45038000  0.49473000  0.73256000  1.0
  H  H24  1  0.64051000  0.53173000  0.77080000  1.0
  H  H25  1  0.88969000  0.77662000  0.66956000  1.0
  H  H26  1  0.96116000  0.65550000  0.35840000  1.0
  H  H27  1  0.14380000  0.02862000  0.62743000  1.0
  H  H28  1  0.01479000  0.09243000  0.48438000  1.0
  H  H29  1  0.27384000  0.20930000  0.43773000  1.0
  H  H30  1  0.40123000  0.14807000  0.58171000  1.0
  H  H31  1  0.76079000  0.23411000  0.97411000  1.0
  H  H32  1  0.01818000  0.29927000  0.23244000  1.0
  H  H33  1  0.78801000  0.09380000  0.21153000  1.0
  H  H34  1  0.67464000  0.82754000  0.83641000  1.0
  H  H35  1  0.84236000  0.81922000  0.81086000  1.0
  H  H36  1  0.90271000  0.95072000  0.75189000  1.0
  H  H37  1  0.78846000  0.08290000  0.71813000  1.0
  H  H38  1  0.62194000  0.07877000  0.74615000  1.0
  H  H39  1  0.29079000  0.43387000  0.45281000  1.0
  H  H40  1  0.28548000  0.37287000  0.59547000  1.0
  H  H41  1  0.94743000  0.38603000  0.48123000  1.0
  H  H42  1  0.95395000  0.44889000  0.34046000  1.0
  H  H43  1  0.11328000  0.40942000  0.80934000  1.0
  H  H44  1  0.31859000  0.20143000  0.78994000  1.0
  H  H45  1  0.28352000  0.26528000  0.04655000  1.0
  H  H46  1  0.27441000  0.72319000  0.16328000  1.0
  H  H47  1  0.46144000  0.77245000  0.20074000  1.0
  H  H48  1  0.60245000  0.66051000  0.25327000  1.0
  H  H49  1  0.54920000  0.50529000  0.26741000  1.0
  H  H50  1  0.35901000  0.46827000  0.22864000  1.0
  H  H51  1  0.11006000  0.22345000  0.33021000  1.0
  H  H52  1  0.03895000  0.34447000  0.64162000  1.0
  C  C1  1  0.64256000  0.95675000  0.30573000  1.0
  C  C2  1  0.72009000  0.91628000  0.38795000  1.0
  C  C3  1  0.82930000  0.93110000  0.41426000  1.0
  C  C4  1  0.90050000  0.89583000  0.49307000  1.0
  C  C5  1  0.86349000  0.84557000  0.54757000  1.0
  C  C6  1  0.75413000  0.82928000  0.51936000  1.0
  C  C7  1  0.68313000  0.86383000  0.44018000  1.0
  C  C8  1  0.93141000  0.81447000  0.63604000  1.0
  C  C9  1  0.33134000  0.89348000  0.97405000  1.0
  C  C10  1  0.23488000  0.84059000  0.91319000  1.0
  C  C11  1  0.19619000  0.77670000  0.95341000  1.0
  C  C12  1  0.10536000  0.72603000  0.90004000  1.0
  C  C13  1  0.05140000  0.74138000  0.80690000  1.0
  C  C14  1  0.08670000  0.80855000  0.76646000  1.0
  C  C15  1  0.18174000  0.85587000  0.81989000  1.0
  C  C16  1  0.06495000  0.65586000  0.94257000  1.0
  C  C17  1  0.29771000  0.11808000  0.19107000  1.0
  C  C18  1  0.20384000  0.12202000  0.20507000  1.0
  C  C19  1  0.17066000  0.04904000  0.23762000  1.0
  C  C20  1  0.23366000  0.97553000  0.25620000  1.0
  C  C21  1  0.32646000  0.97720000  0.24054000  1.0
  C  C22  1  0.87154000  0.51340000  0.69317000  1.0
  C  C23  1  0.87724000  0.55328000  0.61066000  1.0
  C  C24  1  0.78347000  0.57643000  0.53941000  1.0
  C  C25  1  0.78653000  0.61044000  0.46078000  1.0
  C  C26  1  0.88351000  0.62354000  0.45182000  1.0
  C  C27  1  0.97745000  0.60361000  0.52486000  1.0
  C  C28  1  0.97422000  0.56825000  0.60347000  1.0
  C  C29  1  0.88530000  0.65383000  0.36611000  1.0
  C  C30  1  0.84261000  0.59875000  0.00644000  1.0
  C  C31  1  0.80622000  0.65773000  0.06695000  1.0
  C  C32  1  0.83385000  0.64276000  0.16023000  1.0
  C  C33  1  0.78857000  0.69381000  0.21275000  1.0
  C  C34  1  0.71881000  0.76028000  0.17069000  1.0
  C  C35  1  0.69533000  0.77731000  0.07869000  1.0
  C  C36  1  0.73775000  0.72483000  0.02625000  1.0
  C  C37  1  0.62058000  0.84911000  0.03773000  1.0
  C  C38  1  0.66146000  0.32254000  0.81186000  1.0
  C  C39  1  0.55744000  0.29551000  0.79156000  1.0
  C  C40  1  0.47939000  0.35777000  0.76262000  1.0
  C  C41  1  0.50845000  0.44400000  0.75439000  1.0
  C  C42  1  0.61430000  0.46525000  0.77571000  1.0
  C  C43  1  0.35741000  0.04522000  0.69486000  1.0
  C  C44  1  0.27969000  0.08433000  0.61192000  1.0
  C  C45  1  0.17060000  0.06903000  0.58550000  1.0
  C  C46  1  0.09940000  0.10413000  0.50660000  1.0
  C  C47  1  0.13645000  0.15442000  0.45212000  1.0
  C  C48  1  0.24579000  0.17078000  0.48024000  1.0
  C  C49  1  0.31673000  0.13650000  0.55957000  1.0
  C  C50  1  0.06841000  0.18553000  0.36376000  1.0
  C  C51  1  0.66851000  0.10514000  0.02541000  1.0
  C  C52  1  0.76425000  0.15899000  0.08674000  1.0
  C  C53  1  0.80279000  0.22331000  0.04676000  1.0
  C  C54  1  0.89393000  0.27378000  0.10028000  1.0
  C  C55  1  0.94807000  0.25815000  0.19319000  1.0
  C  C56  1  0.91279000  0.19098000  0.23359000  1.0
  C  C57  1  0.81771000  0.14365000  0.18009000  1.0
  C  C58  1  0.93535000  0.34379000  0.05824000  1.0
  C  C59  1  0.70205000  0.88199000  0.80889000  1.0
  C  C60  1  0.79595000  0.87807000  0.79494000  1.0
  C  C61  1  0.82913000  0.95104000  0.76235000  1.0
  C  C62  1  0.76609000  0.02454000  0.74374000  1.0
  C  C63  1  0.67325000  0.02286000  0.75937000  1.0
  C  C64  1  0.12841000  0.48656000  0.30682000  1.0
  C  C65  1  0.12279000  0.44652000  0.38928000  1.0
  C  C66  1  0.21657000  0.42344000  0.46051000  1.0
  C  C67  1  0.21358000  0.38958000  0.53921000  1.0
  C  C68  1  0.11663000  0.37659000  0.54827000  1.0
  C  C69  1  0.02265000  0.39642000  0.47522000  1.0
  C  C70  1  0.02583000  0.43163000  0.39653000  1.0
  C  C71  1  0.11486000  0.34624000  0.63396000  1.0
  C  C72  1  0.15774000  0.40098000  0.99377000  1.0
  C  C73  1  0.19383000  0.34197000  0.93305000  1.0
  C  C74  1  0.16631000  0.35697000  0.83983000  1.0
  C  C75  1  0.21165000  0.30603000  0.78727000  1.0
  C  C76  1  0.28148000  0.23952000  0.82926000  1.0
  C  C77  1  0.30460000  0.22238000  0.92118000  1.0
  C  C78  1  0.26220000  0.27480000  0.97363000  1.0
  C  C79  1  0.37895000  0.15057000  0.96270000  1.0
  C  C80  1  0.33815000  0.67747000  0.18768000  1.0
  C  C81  1  0.44225000  0.70450000  0.20825000  1.0
  C  C82  1  0.52030000  0.64226000  0.23729000  1.0
  C  C83  1  0.49116000  0.55602000  0.24541000  1.0
  C  C84  1  0.38527000  0.53475000  0.22385000  1.0
  N  N1  1  0.03131000  0.83468000  0.67655000  1.0
  N  N2  1  0.35850000  0.04693000  0.20784000  1.0
  N  N3  1  0.79933000  0.67656000  0.30155000  1.0
  N  N4  1  0.69051000  0.40589000  0.80470000  1.0
  N  N5  1  0.96854000  0.16498000  0.32347000  1.0
  N  N6  1  0.64119000  0.95312000  0.79207000  1.0
  N  N7  1  0.20078000  0.32344000  0.69848000  1.0
  N  N8  1  0.30907000  0.59409000  0.19472000  1.0
  O  O1  1  0.54828000  0.92365000  0.26951000  1.0
  O  O2  1  0.67075000  0.02200000  0.27246000  1.0
  O  O3  1  0.35454000  0.89786000  0.06098000  1.0
  O  O4  1  0.38520000  0.93343000  0.93706000  1.0
  O  O5  1  0.98500000  0.61090000  0.88705000  1.0
  O  O6  1  0.11211000  0.64726000  0.02915000  1.0
  O  O7  1  0.94129000  0.45954000  0.73676000  1.0
  O  O8  1  0.79716000  0.53538000  0.71838000  1.0
  O  O9  1  0.92403000  0.55268000  0.04339000  1.0
  O  O10  1  0.78923000  0.59368000  0.91965000  1.0
  O  O11  1  0.57771000  0.88371000  0.08943000  1.0
  O  O12  1  0.60508000  0.86987000  0.95625000  1.0
  O  O13  1  0.45024000  0.08094000  0.73217000  1.0
  O  O14  1  0.33077000  0.97866000  0.72747000  1.0
  O  O15  1  0.64416000  0.10265000  0.93836000  1.0
  O  O16  1  0.61614000  0.06199000  0.06153000  1.0
  O  O17  1  0.01721000  0.38730000  0.11278000  1.0
  O  O18  1  0.88634000  0.35339000  0.97206000  1.0
  O  O19  1  0.05844000  0.54020000  0.26313000  1.0
  O  O20  1  0.20293000  0.46473000  0.28168000  1.0
  O  O21  1  0.07573000  0.44651000  0.95703000  1.0
  O  O22  1  0.21209000  0.40658000  0.08036000  1.0
  O  O23  1  0.42291000  0.11590000  0.91204000  1.0
  O  O24  1  0.39348000  0.12983000  0.04404000  1.0
