# generated using pymatgen
data_Zn3H24C48O13
_symmetry_space_group_name_H-M   'P 1'
_cell_length_a   15.73057228
_cell_length_b   15.73888000
_cell_length_c   16.46359000
_cell_angle_alpha   89.99907000
_cell_angle_beta   89.99832912
_cell_angle_gamma   60.01750155
_symmetry_Int_Tables_number   1
_chemical_formula_structural   Zn3H24C48O13
_chemical_formula_sum   'Zn6 H48 C96 O26'
_cell_volume   3530.61274292
_cell_formula_units_Z   2
loop_
 _symmetry_equiv_pos_site_id
 _symmetry_equiv_pos_as_xyz
  1  'x, y, z'
loop_
 _atom_site_type_symbol
 _atom_site_label
 _atom_site_symmetry_multiplicity
 _atom_site_fract_x
 _atom_site_fract_y
 _atom_site_fract_z
 _atom_site_occupancy
  Zn  Zn0  1  0.73489000  0.53023000  0.75000000  1
  Zn  Zn1  1  0.53019000  0.73492000  0.75001000  1
  Zn  Zn2  1  0.73489000  0.73492000  0.74999000  1
  Zn  Zn3  1  0.26512000  0.46977000  0.25000000  1
  Zn  Zn4  1  0.46981000  0.26509000  0.24999000  1
  Zn  Zn5  1  0.26511000  0.26508000  0.25001000  1
  H  H6  1  0.24251000  0.45144000  0.46954000  1
  H  H7  1  0.29288000  0.48204000  0.60296000  1
  H  H8  1  0.17421000  0.54101000  0.71954000  1
  H  H9  1  0.00768000  0.56718000  0.70253000  1
  H  H10  1  0.45145000  0.30606000  0.46954000  1
  H  H11  1  0.48205000  0.22512000  0.60296000  1
  H  H12  1  0.54102000  0.28480000  0.71953000  1
  H  H13  1  0.56719000  0.42512000  0.70253000  1
  H  H14  1  0.30608000  0.24247000  0.46956000  1
  H  H15  1  0.22514000  0.29281000  0.60296000  1
  H  H16  1  0.28480000  0.17418000  0.71953000  1
  H  H17  1  0.42511000  0.00772000  0.70252000  1
  H  H18  1  0.30606000  0.45144000  0.03046000  1
  H  H19  1  0.22508000  0.48204000  0.89704000  1
  H  H20  1  0.28478000  0.54102000  0.78046000  1
  H  H21  1  0.42514000  0.56718000  0.79747000  1
  H  H22  1  0.24250000  0.30606000  0.03046000  1
  H  H23  1  0.29284000  0.22511000  0.89705000  1
  H  H24  1  0.17419000  0.28479000  0.78047000  1
  H  H25  1  0.00769000  0.42513000  0.79747000  1
  H  H26  1  0.45145000  0.24248000  0.03045000  1
  H  H27  1  0.48206000  0.29281000  0.89704000  1
  H  H28  1  0.54102000  0.17419000  0.78047000  1
  H  H29  1  0.56718000  0.00771000  0.79748000  1
  H  H30  1  0.75750000  0.54856000  0.53046000  1
  H  H31  1  0.70712000  0.51796000  0.39704000  1
  H  H32  1  0.82580000  0.45899000  0.28046000  1
  H  H33  1  0.99233000  0.43282000  0.29747000  1
  H  H34  1  0.54856000  0.69393000  0.53046000  1
  H  H35  1  0.51795000  0.77489000  0.39705000  1
  H  H36  1  0.45899000  0.71520000  0.28047000  1
  H  H37  1  0.43282000  0.57487000  0.29747000  1
  H  H38  1  0.69392000  0.75753000  0.53045000  1
  H  H39  1  0.77487000  0.70719000  0.39704000  1
  H  H40  1  0.71521000  0.82581000  0.28047000  1
  H  H41  1  0.57489000  0.99229000  0.29748000  1
  H  H42  1  0.69394000  0.54856000  0.96954000  1
  H  H43  1  0.77492000  0.51796000  0.10297000  1
  H  H44  1  0.71522000  0.45899000  0.21954000  1
  H  H45  1  0.57486000  0.43282000  0.20253000  1
  H  H46  1  0.75751000  0.69393000  0.96954000  1
  H  H47  1  0.70717000  0.77488000  0.10296000  1
  H  H48  1  0.82582000  0.71520000  0.21953000  1
  H  H49  1  0.99232000  0.57487000  0.20253000  1
  H  H50  1  0.54855000  0.75753000  0.96955000  1
  H  H51  1  0.51795000  0.70719000  0.10297000  1
  H  H52  1  0.45899000  0.82581000  0.21953000  1
  H  H53  1  0.43283000  0.99229000  0.20252000  1
  C  C54  1  0.86332000  0.56879000  0.63673000  1
  C  C55  1  0.93370000  0.53260000  0.56631000  1
  C  C56  1  0.02854000  0.52029000  0.57639000  1
  C  C57  1  0.09628000  0.48704000  0.50906000  1
  C  C58  1  0.19168000  0.47432000  0.52056000  1
  C  C59  1  0.21947000  0.49263000  0.59527000  1
  C  C60  1  0.15274000  0.52550000  0.66112000  1
  C  C61  1  0.05917000  0.53976000  0.65198000  1
  C  C62  1  0.56877000  0.56790000  0.63673000  1
  C  C63  1  0.53257000  0.53371000  0.56632000  1
  C  C64  1  0.52029000  0.45117000  0.57639000  1
  C  C65  1  0.48705000  0.41668000  0.50905000  1
  C  C66  1  0.47433000  0.33402000  0.52056000  1
  C  C67  1  0.49264000  0.28792000  0.59526000  1
  C  C68  1  0.52550000  0.32179000  0.66111000  1
  C  C69  1  0.53977000  0.40106000  0.65198000  1
  C  C70  1  0.56788000  0.86335000  0.63673000  1
  C  C71  1  0.53369000  0.93373000  0.56632000  1
  C  C72  1  0.45118000  0.02854000  0.57639000  1
  C  C73  1  0.41669000  0.09627000  0.50905000  1
  C  C74  1  0.33403000  0.19164000  0.52056000  1
  C  C75  1  0.28793000  0.21943000  0.59527000  1
  C  C76  1  0.32179000  0.15271000  0.66111000  1
  C  C77  1  0.40105000  0.05919000  0.65198000  1
  C  C78  1  0.56790000  0.56878000  0.86327000  1
  C  C79  1  0.53371000  0.53259000  0.93369000  1
  C  C80  1  0.45118000  0.52028000  0.92361000  1
  C  C81  1  0.41668000  0.48704000  0.99094000  1
  C  C82  1  0.33400000  0.47432000  0.97944000  1
  C  C83  1  0.28790000  0.49263000  0.90473000  1
  C  C84  1  0.32177000  0.52550000  0.83888000  1
  C  C85  1  0.40107000  0.53977000  0.84802000  1
  C  C86  1  0.86333000  0.56791000  0.86327000  1
  C  C87  1  0.93372000  0.53371000  0.93369000  1
  C  C88  1  0.02854000  0.45118000  0.92361000  1
  C  C89  1  0.09628000  0.41668000  0.99095000  1
  C  C90  1  0.19166000  0.33401000  0.97945000  1
  C  C91  1  0.21945000  0.28792000  0.90474000  1
  C  C92  1  0.15271000  0.32179000  0.83889000  1
  C  C93  1  0.05917000  0.40107000  0.84802000  1
  C  C94  1  0.56877000  0.86335000  0.86327000  1
  C  C95  1  0.53258000  0.93374000  0.93368000  1
  C  C96  1  0.52028000  0.02855000  0.92361000  1
  C  C97  1  0.48704000  0.09627000  0.99095000  1
  C  C98  1  0.47433000  0.19164000  0.97944000  1
  C  C99  1  0.49264000  0.21943000  0.90473000  1
  C  C100  1  0.52550000  0.15272000  0.83889000  1
  C  C101  1  0.53976000  0.05919000  0.84803000  1
  C  C102  1  0.13669000  0.43121000  0.36328000  1
  C  C103  1  0.06630000  0.46741000  0.43369000  1
  C  C104  1  0.97146000  0.47972000  0.42361000  1
  C  C105  1  0.90373000  0.51296000  0.49095000  1
  C  C106  1  0.80833000  0.52567000  0.47944000  1
  C  C107  1  0.78053000  0.50738000  0.40474000  1
  C  C108  1  0.84727000  0.47450000  0.33889000  1
  C  C109  1  0.94084000  0.46023000  0.34802000  1
  C  C110  1  0.43124000  0.43209000  0.36327000  1
  C  C111  1  0.46743000  0.46630000  0.43369000  1
  C  C112  1  0.47972000  0.54882000  0.42361000  1
  C  C113  1  0.51296000  0.58332000  0.49095000  1
  C  C114  1  0.52567000  0.66599000  0.47945000  1
  C  C115  1  0.50737000  0.71208000  0.40474000  1
  C  C116  1  0.47450000  0.67822000  0.33889000  1
  C  C117  1  0.46024000  0.59894000  0.34803000  1
  C  C118  1  0.43212000  0.13666000  0.36327000  1
  C  C119  1  0.46632000  0.06626000  0.43369000  1
  C  C120  1  0.54883000  0.97146000  0.42361000  1
  C  C121  1  0.58331000  0.90374000  0.49095000  1
  C  C122  1  0.66597000  0.80837000  0.47945000  1
  C  C123  1  0.71208000  0.78056000  0.40473000  1
  C  C124  1  0.67822000  0.84729000  0.33889000  1
  C  C125  1  0.59895000  0.94081000  0.34803000  1
  C  C126  1  0.43211000  0.43121000  0.13673000  1
  C  C127  1  0.46630000  0.46740000  0.06631000  1
  C  C128  1  0.54883000  0.47972000  0.07639000  1
  C  C129  1  0.58332000  0.51296000  0.00906000  1
  C  C130  1  0.66601000  0.52567000  0.02056000  1
  C  C131  1  0.71210000  0.50737000  0.09527000  1
  C  C132  1  0.67824000  0.47450000  0.16112000  1
  C  C133  1  0.59893000  0.46024000  0.15198000  1
  C  C134  1  0.13667000  0.43210000  0.13673000  1
  C  C135  1  0.06628000  0.46630000  0.06632000  1
  C  C136  1  0.97147000  0.54882000  0.07640000  1
  C  C137  1  0.90373000  0.58332000  0.00905000  1
  C  C138  1  0.80835000  0.66598000  0.02056000  1
  C  C139  1  0.78056000  0.71208000  0.09526000  1
  C  C140  1  0.84729000  0.67822000  0.16111000  1
  C  C141  1  0.94083000  0.59894000  0.15198000  1
  C  C142  1  0.43123000  0.13666000  0.13673000  1
  C  C143  1  0.46742000  0.06627000  0.06632000  1
  C  C144  1  0.47972000  0.97146000  0.07639000  1
  C  C145  1  0.51296000  0.90373000  0.00906000  1
  C  C146  1  0.52567000  0.80837000  0.02056000  1
  C  C147  1  0.50737000  0.78056000  0.09527000  1
  C  C148  1  0.47450000  0.84729000  0.16111000  1
  C  C149  1  0.46024000  0.94082000  0.15198000  1
  O  O150  1  0.85382000  0.50390000  0.67495000  1
  O  O151  1  0.82269000  0.66076000  0.64848000  1
  O  O152  1  0.50389000  0.64229000  0.67493000  1
  O  O153  1  0.66079000  0.51655000  0.64848000  1
  O  O154  1  0.64232000  0.85383000  0.67494000  1
  O  O155  1  0.51652000  0.82268000  0.64847000  1
  O  O156  1  0.64229000  0.50390000  0.82505000  1
  O  O157  1  0.51656000  0.66075000  0.85153000  1
  O  O158  1  0.85383000  0.64228000  0.82507000  1
  O  O159  1  0.82267000  0.51654000  0.85152000  1
  O  O160  1  0.50386000  0.85382000  0.82506000  1
  O  O161  1  0.66080000  0.82268000  0.85153000  1
  O  O162  1  0.14619000  0.49610000  0.32506000  1
  O  O163  1  0.17732000  0.33924000  0.35153000  1
  O  O164  1  0.49611000  0.35772000  0.32507000  1
  O  O165  1  0.33921000  0.48346000  0.35152000  1
  O  O166  1  0.35768000  0.14618000  0.32506000  1
  O  O167  1  0.48348000  0.17733000  0.35153000  1
  O  O168  1  0.35772000  0.49610000  0.17495000  1
  O  O169  1  0.48345000  0.33924000  0.14848000  1
  O  O170  1  0.14618000  0.35771000  0.17494000  1
  O  O171  1  0.17734000  0.48346000  0.14848000  1
  O  O172  1  0.49615000  0.14617000  0.17494000  1
  O  O173  1  0.33920000  0.17733000  0.14847000  1
  O  O174  1  0.66666667  0.66666667  0.75000000  1
  O  O175  1  0.33333333  0.33333333  0.25000000  1
