# generated using pymatgen
data_MgH3C7NO4
_symmetry_space_group_name_H-M   'P 1'
_cell_length_a   11.20870000
_cell_length_b   13.43822000
_cell_length_c   28.07099000
_cell_angle_alpha   79.94700000
_cell_angle_beta   89.98775000
_cell_angle_gamma   89.87893000
_symmetry_Int_Tables_number   1
_chemical_formula_structural   MgH3C7NO4
_chemical_formula_sum   'Mg12 H36 C84 N12 O48'
_cell_volume   4163.26617194
_cell_formula_units_Z   12
loop_
 _symmetry_equiv_pos_site_id
 _symmetry_equiv_pos_as_xyz
  1  'x, y, z'
loop_
 _atom_site_type_symbol
 _atom_site_label
 _atom_site_symmetry_multiplicity
 _atom_site_fract_x
 _atom_site_fract_y
 _atom_site_fract_z
 _atom_site_occupancy
  Mg  Mg0  1  0.81285000  0.62363000  0.85391000  1
  Mg  Mg1  1  0.53995000  0.46237000  0.83076000  1
  Mg  Mg2  1  0.71302000  0.70017000  0.14361000  1
  Mg  Mg3  1  0.31351000  0.87973000  0.64611000  1
  Mg  Mg4  1  0.04090000  0.03898000  0.66896000  1
  Mg  Mg5  1  0.21333000  0.79980000  0.35647000  1
  Mg  Mg6  1  0.18715000  0.37637000  0.14609000  1
  Mg  Mg7  1  0.46005000  0.53763000  0.16924000  1
  Mg  Mg8  1  0.28699000  0.29983000  0.85639000  1
  Mg  Mg9  1  0.68649000  0.12027000  0.35389000  1
  Mg  Mg10  1  0.95910000  0.96102000  0.33104000  1
  Mg  Mg11  1  0.78668000  0.20020000  0.64353000  1
  H  H12  1  0.45371000  0.68379000  0.70895000  1
  H  H13  1  0.80375000  0.80309000  0.72698000  1
  H  H14  1  0.55174000  0.95963000  0.62557000  1
  H  H15  1  0.67822000  0.69372000  0.98704000  1
  H  H16  1  0.37157000  0.57028000  0.92588000  1
  H  H17  1  0.34714000  0.63337000  0.06488000  1
  H  H18  1  0.04039000  0.35240000  0.88848000  1
  H  H19  1  0.78981000  0.31192000  0.77752000  1
  H  H20  1  0.14277000  0.18243000  0.78473000  1
  H  H21  1  0.95523000  0.81934000  0.79118000  1
  H  H22  1  0.30356000  0.69618000  0.77216000  1
  H  H23  1  0.05037000  0.54104000  0.87320000  1
  H  H24  1  0.18033000  0.80667000  0.51272000  1
  H  H25  1  0.87502000  0.93177000  0.57461000  1
  H  H26  1  0.84690000  0.86548000  0.43633000  1
  H  H27  1  0.53980000  0.14868000  0.61171000  1
  H  H28  1  0.29054000  0.19238000  0.72274000  1
  H  H29  1  0.64431000  0.31849000  0.71508000  1
  H  H30  1  0.54630000  0.31621000  0.29106000  1
  H  H31  1  0.19626000  0.19691000  0.27303000  1
  H  H32  1  0.44827000  0.04037000  0.37443000  1
  H  H33  1  0.32178000  0.30628000  0.01296000  1
  H  H34  1  0.62844000  0.42972000  0.07412000  1
  H  H35  1  0.65287000  0.36663000  0.93512000  1
  H  H36  1  0.95962000  0.64760000  0.11153000  1
  H  H37  1  0.21020000  0.68808000  0.22249000  1
  H  H38  1  0.85724000  0.81758000  0.21527000  1
  H  H39  1  0.04478000  0.18066000  0.20882000  1
  H  H40  1  0.69645000  0.30382000  0.22784000  1
  H  H41  1  0.94963000  0.45896000  0.12681000  1
  H  H42  1  0.81967000  0.19333000  0.48728000  1
  H  H43  1  0.12499000  0.06823000  0.42540000  1
  H  H44  1  0.15311000  0.13452000  0.56367000  1
  H  H45  1  0.46021000  0.85132000  0.38829000  1
  H  H46  1  0.70946000  0.80762000  0.27726000  1
  H  H47  1  0.35570000  0.68151000  0.28492000  1
  C  C48  1  0.52231000  0.74074000  0.69869000  1
  C  C49  1  0.63335000  0.73062000  0.72182000  1
  C  C50  1  0.71766000  0.80700000  0.70891000  1
  C  C51  1  0.68924000  0.89053000  0.67403000  1
  C  C52  1  0.57718000  0.89426000  0.65221000  1
  C  C53  1  0.66022000  0.64615000  0.76336000  1
  C  C54  1  0.81624000  0.40942000  0.85319000  1
  C  C55  1  0.60507000  0.62022000  0.90721000  1
  C  C56  1  0.57850000  0.69291000  0.07506000  1
  C  C57  1  0.51967000  0.66748000  0.03140000  1
  C  C58  1  0.58595000  0.66849000  0.98921000  1
  C  C59  1  0.53325000  0.63162000  0.95073000  1
  C  C60  1  0.41402000  0.59982000  0.95544000  1
  C  C61  1  0.40069000  0.63445000  0.03239000  1
  C  C62  1  0.77141000  0.97983000  0.66455000  1
  C  C63  1  0.94181000  0.19834000  0.72990000  1
  C  C64  1  0.96306000  0.24045000  0.77560000  1
  C  C65  1  0.01587000  0.31988000  0.85702000  1
  C  C66  1  0.90337000  0.33821000  0.83601000  1
  C  C67  1  0.87662000  0.29738000  0.79472000  1
  C  C68  1  0.07335000  0.22545000  0.79915000  1
  C  C69  1  0.02297000  0.76118000  0.80103000  1
  C  C70  1  0.13383000  0.77027000  0.77768000  1
  C  C71  1  0.21746000  0.69288000  0.79021000  1
  C  C72  1  0.18824000  0.60926000  0.82488000  1
  C  C73  1  0.07643000  0.60654000  0.84685000  1
  C  C74  1  0.16073000  0.85561000  0.73655000  1
  C  C75  1  0.31547000  0.09425000  0.64708000  1
  C  C76  1  0.11043000  0.88141000  0.59240000  1
  C  C77  1  0.07856000  0.80685000  0.42516000  1
  C  C78  1  0.02054000  0.83232000  0.46902000  1
  C  C79  1  0.08797000  0.83196000  0.51087000  1
  C  C80  1  0.03650000  0.86961000  0.54944000  1
  C  C81  1  0.91701000  0.90142000  0.54514000  1
  C  C82  1  0.90138000  0.86514000  0.46851000  1
  C  C83  1  0.26901000  0.51871000  0.83429000  1
  C  C84  1  0.44403000  0.30193000  0.77042000  1
  C  C85  1  0.46433000  0.26160000  0.72435000  1
  C  C86  1  0.51570000  0.18208000  0.64298000  1
  C  C87  1  0.40301000  0.16511000  0.66394000  1
  C  C88  1  0.37701000  0.20604000  0.70522000  1
  C  C89  1  0.57436000  0.27620000  0.70070000  1
  C  C90  1  0.47769000  0.25926000  0.30131000  1
  C  C91  1  0.36666000  0.26938000  0.27818000  1
  C  C92  1  0.28234000  0.19300000  0.29109000  1
  C  C93  1  0.31076000  0.10947000  0.32597000  1
  C  C94  1  0.42283000  0.10574000  0.34779000  1
  C  C95  1  0.33979000  0.35386000  0.23664000  1
  C  C96  1  0.18377000  0.59058000  0.14681000  1
  C  C97  1  0.39494000  0.37979000  0.09279000  1
  C  C98  1  0.42151000  0.30709000  0.92495000  1
  C  C99  1  0.48033000  0.33252000  0.96860000  1
  C  C100  1  0.41405000  0.33151000  0.01079000  1
  C  C101  1  0.46676000  0.36839000  0.04927000  1
  C  C102  1  0.58598000  0.40018000  0.04456000  1
  C  C103  1  0.59932000  0.36555000  0.96761000  1
  C  C104  1  0.22859000  0.02017000  0.33545000  1
  C  C105  1  0.05819000  0.80166000  0.27010000  1
  C  C106  1  0.03694000  0.75955000  0.22440000  1
  C  C107  1  0.98413000  0.68012000  0.14299000  1
  C  C108  1  0.09663000  0.66179000  0.16399000  1
  C  C109  1  0.12339000  0.70262000  0.20528000  1
  C  C110  1  0.92666000  0.77455000  0.20085000  1
  C  C111  1  0.97704000  0.23882000  0.19897000  1
  C  C112  1  0.86617000  0.22973000  0.22232000  1
  C  C113  1  0.78254000  0.30712000  0.20980000  1
  C  C114  1  0.81176000  0.39074000  0.17512000  1
  C  C115  1  0.92357000  0.39346000  0.15315000  1
  C  C116  1  0.83928000  0.14439000  0.26345000  1
  C  C117  1  0.68454000  0.90575000  0.35292000  1
  C  C118  1  0.88957000  0.11859000  0.40760000  1
  C  C119  1  0.92145000  0.19315000  0.57484000  1
  C  C120  1  0.97946000  0.16768000  0.53098000  1
  C  C121  1  0.91203000  0.16804000  0.48913000  1
  C  C122  1  0.96351000  0.13039000  0.45056000  1
  C  C123  1  0.08300000  0.09858000  0.45486000  1
  C  C124  1  0.09862000  0.13487000  0.53149000  1
  C  C125  1  0.73099000  0.48129000  0.16571000  1
  C  C126  1  0.55597000  0.69807000  0.22958000  1
  C  C127  1  0.53568000  0.73840000  0.27565000  1
  C  C128  1  0.48430000  0.81792000  0.35702000  1
  C  C129  1  0.59699000  0.83489000  0.33606000  1
  C  C130  1  0.62299000  0.79397000  0.29478000  1
  C  C131  1  0.42564000  0.72380000  0.29930000  1
  N  N132  1  0.49366000  0.82162000  0.66435000  1
  N  N133  1  0.10054000  0.26460000  0.83902000  1
  N  N134  1  0.34700000  0.60293000  0.99490000  1
  N  N135  1  0.99363000  0.68029000  0.83517000  1
  N  N136  1  0.60090000  0.23668000  0.66085000  1
  N  N137  1  0.84880000  0.89739000  0.50609000  1
  N  N138  1  0.50634000  0.17838000  0.33565000  1
  N  N139  1  0.89947000  0.73540000  0.16098000  1
  N  N140  1  0.65301000  0.39707000  0.00511000  1
  N  N141  1  0.00638000  0.31971000  0.16483000  1
  N  N142  1  0.39910000  0.76332000  0.33915000  1
  N  N143  1  0.15120000  0.10261000  0.49391000  1
  O  O144  1  0.70778000  0.39848000  0.84430000  1
  O  O145  1  0.86074000  0.47979000  0.87347000  1
  O  O146  1  0.56489000  0.56556000  0.87848000  1
  O  O147  1  0.70666000  0.66598000  0.90231000  1
  O  O148  1  0.59267000  0.57086000  0.77107000  1
  O  O149  1  0.75270000  0.66148000  0.78812000  1
  O  O150  1  0.53832000  0.65548000  0.11740000  1
  O  O151  1  0.67282000  0.74706000  0.07138000  1
  O  O152  1  0.72720000  0.06087000  0.64028000  1
  O  O153  1  0.87427000  0.96974000  0.68289000  1
  O  O154  1  0.84855000  0.23147000  0.70544000  1
  O  O155  1  0.01689000  0.13578000  0.71942000  1
  O  O156  1  0.20690000  0.10612000  0.65583000  1
  O  O157  1  0.36015000  0.02346000  0.62710000  1
  O  O158  1  0.07367000  0.93806000  0.62098000  1
  O  O159  1  0.21126000  0.83404000  0.59737000  1
  O  O160  1  0.09059000  0.92949000  0.72883000  1
  O  O161  1  0.25481000  0.84298000  0.71215000  1
  O  O162  1  0.03653000  0.84349000  0.38299000  1
  O  O163  1  0.17397000  0.75364000  0.42862000  1
  O  O164  1  0.22467000  0.43912000  0.85974000  1
  O  O165  1  0.37065000  0.52600000  0.81482000  1
  O  O166  1  0.35100000  0.26827000  0.79488000  1
  O  O167  1  0.51933000  0.36389000  0.78099000  1
  O  O168  1  0.29222000  0.60152000  0.15570000  1
  O  O169  1  0.13927000  0.52021000  0.12654000  1
  O  O170  1  0.43512000  0.43444000  0.12153000  1
  O  O171  1  0.29335000  0.33402000  0.09769000  1
  O  O172  1  0.40733000  0.42914000  0.22893000  1
  O  O173  1  0.24731000  0.33852000  0.21188000  1
  O  O174  1  0.46169000  0.34452000  0.88260000  1
  O  O175  1  0.32719000  0.25294000  0.92863000  1
  O  O176  1  0.27280000  0.93913000  0.35972000  1
  O  O177  1  0.12573000  0.03026000  0.31711000  1
  O  O178  1  0.15146000  0.76854000  0.29456000  1
  O  O179  1  0.98312000  0.86422000  0.28058000  1
  O  O180  1  0.79311000  0.89388000  0.34417000  1
  O  O181  1  0.63985000  0.97654000  0.37291000  1
  O  O182  1  0.92634000  0.06194000  0.37902000  1
  O  O183  1  0.78874000  0.16596000  0.40263000  1
  O  O184  1  0.90941000  0.07051000  0.27117000  1
  O  O185  1  0.74520000  0.15702000  0.28785000  1
  O  O186  1  0.96347000  0.15651000  0.61701000  1
  O  O187  1  0.82604000  0.24636000  0.57138000  1
  O  O188  1  0.77534000  0.56088000  0.14027000  1
  O  O189  1  0.62935000  0.47400000  0.18518000  1
  O  O190  1  0.64900000  0.73173000  0.20512000  1
  O  O191  1  0.48068000  0.63611000  0.21901000  1
