# generated using pymatgen
data_H22C29(N2O)2
_symmetry_space_group_name_H-M   'P 1'
_cell_length_a   9.99180000
_cell_length_b   44.92005000
_cell_length_c   44.92000000
_cell_angle_alpha   119.99988954
_cell_angle_beta   90.00000000
_cell_angle_gamma   90.00000000
_symmetry_Int_Tables_number   1
_chemical_formula_structural   H22C29(N2O)2
_chemical_formula_sum   'H66 C87 N12 O6'
_cell_volume   17460.42562601
_cell_formula_units_Z   3
loop_
 _symmetry_equiv_pos_site_id
 _symmetry_equiv_pos_as_xyz
  1  'x, y, z'
loop_
 _atom_site_type_symbol
 _atom_site_label
 _atom_site_symmetry_multiplicity
 _atom_site_fract_x
 _atom_site_fract_y
 _atom_site_fract_z
 _atom_site_occupancy
  C  1  1  0.62479600  0.99543200  0.47511600  1
  C  7  1  0.86893100  0.98664600  0.49079400  1
  C  10  1  0.00251600  0.55323600  0.42269800  1
  C  11  1  0.00229700  0.54004000  0.38671600  1
  C  12  1  0.98857200  0.56192600  0.37289900  1
  C  13  1  0.97692900  0.59788200  0.39469900  1
  C  14  1  0.97661400  0.61121700  0.43061900  1
  C  15  1  0.98982300  0.58925700  0.44435900  1
  C  16  1  0.96437400  0.62008400  0.38174100  1
  C  17  1  0.04850400  0.62014100  0.35838500  1
  C  18  1  0.03911700  0.64298000  0.34615100  1
  C  19  1  0.04014600  0.67893800  0.36880700  1
  C  20  1  0.03930600  0.70213300  0.35618900  1
  C  21  1  0.04025600  0.68883600  0.32023200  1
  C  22  1  0.03929700  0.65302300  0.29703800  1
  C  23  1  0.04010600  0.63036400  0.31033600  1
  C  24  1  0.04870600  0.64078100  0.26196200  1
  C  25  1  0.96457500  0.61742900  0.23854500  1
  C  26  1  0.97713500  0.60447900  0.20338800  1
  C  27  1  0.97684900  0.56855900  0.18079900  1
  C  28  1  0.98880800  0.62628300  0.18923800  1
  C  29  1  0.00260700  0.61247000  0.15353600  1
  C  30  1  0.00275100  0.57649000  0.13074600  1
  C  31  1  0.98993500  0.55482300  0.14509500  1
  C  32  1  0.04871500  0.73721000  0.37902500  1
  C  33  1  0.96462300  0.76062700  0.37908000  1
  C  34  1  0.97717600  0.79578400  0.40128700  1
  C  35  1  0.98880800  0.80993600  0.43724200  1
  C  36  1  0.97690300  0.81837200  0.38795600  1
  C  37  1  0.99001400  0.85407600  0.40992300  1
  C  38  1  0.00271500  0.86842800  0.44594200  1
  C  39  1  0.00254100  0.84563900  0.45913400  1
  C  61  1  0.01971900  0.90453000  0.46826900  1
  C  62  1  0.01979000  0.56271300  0.09464600  1
  C  63  1  0.01947500  0.53090600  0.43646900  1
  C  67  1  0.98343000  0.44042200  0.57148700  1
  C  68  1  0.95588200  0.45362500  0.60678700  1
  C  69  1  0.97813000  0.43367600  0.62245300  1
  C  70  1  0.02516900  0.39945800  0.60307800  1
  C  71  1  0.05449800  0.38637500  0.56789400  1
  C  72  1  0.03412200  0.40655500  0.55235700  1
  C  73  1  0.04302500  0.37870000  0.61763900  1
  C  74  1  0.95383000  0.37636600  0.63881900  1
  C  75  1  0.96894200  0.35475500  0.65228300  1
  C  76  1  0.96800600  0.31866200  0.63057500  1
  C  77  1  0.96888700  0.29650200  0.64441800  1
  C  78  1  0.96804100  0.31088600  0.68051100  1
  C  79  1  0.96890300  0.34688800  0.70267000  1
  C  80  1  0.96807700  0.36859900  0.68828800  1
  C  81  1  0.95377600  0.36036400  0.73774700  1
  C  82  1  0.04299500  0.38153500  0.76125900  1
  C  83  1  0.02511500  0.39610600  0.79657800  1
  C  84  1  0.05443400  0.43129400  0.81867400  1
  C  85  1  0.97803600  0.37674000  0.81142800  1
  C  86  1  0.95576700  0.39241600  0.84704400  1
  C  87  1  0.98328400  0.42772000  0.86913000  1
  C  88  1  0.03405400  0.44683800  0.85438900  1
  C  89  1  0.95375000  0.26142500  0.62281600  1
  C  90  1  0.04294400  0.23791100  0.62048100  1
  C  91  1  0.02504900  0.20259200  0.59973200  1
  C  92  1  0.97801100  0.18774500  0.56551300  1
  C  93  1  0.05426900  0.18049900  0.61283000  1
  C  94  1  0.03391300  0.14478200  0.59265200  1
  C  95  1  0.98327400  0.13003800  0.55878100  1
  C  96  1  0.95577600  0.15212900  0.54556500  1
  C  118  1  0.95511200  0.09423800  0.53888200  1
  C  119  1  0.95509600  0.44362800  0.90492700  1
  C  120  1  0.95527600  0.46032600  0.55559400  1
  C  124  1  0.86892600  0.50315500  0.01252400  1
  C  125  1  0.97824600  0.51753300  0.03561300  1
  C  126  1  0.10627100  0.51352600  0.02062200  1
  C  128  1  0.01548600  0.48392500  0.96416600  1
  C  131  1  0.72813900  0.50717700  0.02419300  1
  C  132  1  0.62481100  0.47867400  0.00374100  1
  C  133  1  0.67959100  0.48363600  0.03777400  1
  C  143  1  0.86895600  0.50838200  0.49606400  1
  C  144  1  0.97826600  0.51712300  0.48170900  1
  C  145  1  0.10631000  0.50614200  0.48570900  1
  C  147  1  0.01557600  0.47925400  0.51528000  1
  C  150  1  0.72815200  0.51601300  0.49203500  1
  C  151  1  0.62480700  0.52404300  0.52052900  1
  C  152  1  0.67953100  0.55312600  0.51558000  1
  C  162  1  0.97824600  0.96355700  0.48209700  1
  C  163  1  0.10628000  0.97854700  0.49307000  1
  C  165  1  0.01549600  0.03500200  0.51994000  1
  C  168  1  0.72812100  0.97499200  0.48318300  1
  C  169  1  0.67948500  0.96137500  0.44606100  1
  H  2  1  0.52170100  0.99448600  0.48265500  1
  H  40  1  0.01035700  0.51416900  0.37004800  1
  H  41  1  0.98737700  0.55133900  0.34673700  1
  H  42  1  0.99354700  0.60013200  0.47051400  1
  H  43  1  0.96923800  0.63715800  0.44717000  1
  H  44  1  0.04404500  0.60434700  0.29372000  1
  H  45  1  0.04405500  0.68834000  0.39482500  1
  H  46  1  0.04423600  0.70545100  0.31083000  1
  H  47  1  0.98760700  0.79435900  0.44782600  1
  H  48  1  0.96936700  0.55200600  0.19018300  1
  H  49  1  0.99372800  0.52867100  0.12981400  1
  H  50  1  0.01065400  0.62914300  0.14433900  1
  H  51  1  0.98761300  0.65244400  0.20481600  1
  H  52  1  0.01058800  0.85483800  0.48500300  1
  H  53  1  0.99373900  0.86935900  0.39905300  1
  H  54  1  0.96943700  0.80898800  0.36201800  1
  H  55  1  0.89210600  0.60774100  0.24639900  1
  H  56  1  0.12207400  0.65022400  0.25410200  1
  H  57  1  0.89198300  0.63764700  0.39145100  1
  H  58  1  0.12183300  0.60282800  0.34893300  1
  H  59  1  0.89219300  0.75277300  0.36152700  1
  H  60  1  0.12204400  0.74506600  0.39633800  1
  H  97  1  0.92046200  0.47813900  0.62162800  1
  H  98  1  0.95800900  0.44432000  0.64813200  1
  H  99  1  0.05218700  0.39573900  0.52657500  1
  H  100  1  0.08817600  0.36167800  0.55299600  1
  H  101  1  0.96233700  0.39472800  0.70419400  1
  H  102  1  0.96232100  0.30843800  0.60444700  1
  H  103  1  0.96227200  0.29498400  0.69073600  1
  H  104  1  0.95794900  0.20277500  0.55486100  1
  H  105  1  0.08812500  0.44618500  0.80886700  1
  H  106  1  0.05204700  0.47262600  0.86935000  1
  H  107  1  0.92031200  0.37758400  0.85672000  1
  H  108  1  0.95793900  0.35106100  0.79639900  1
  H  109  1  0.92035400  0.14245300  0.52105400  1
  H  110  1  0.05201600  0.12981400  0.60346700  1
  H  111  1  0.08806500  0.19029900  0.63751900  1
  H  112  1  0.12413600  0.38836300  0.75322400  1
  H  113  1  0.87108600  0.35383400  0.74546500  1
  H  114  1  0.12413500  0.36382400  0.61079600  1
  H  115  1  0.87117600  0.39062900  0.64536600  1
  H  116  1  0.12407500  0.24594200  0.63534700  1
  H  117  1  0.87108100  0.25371000  0.60855900  1
  H  130  1  0.19019100  0.52214000  0.03556000  1
  H  134  1  0.68729200  0.53320000  0.03820900  1
  H  135  1  0.60943100  0.49503700  0.05927400  1
  H  136  1  0.74746000  0.46342300  0.03523100  1
  H  137  1  0.65963400  0.45547100  0.98086700  1
  H  138  1  0.52170000  0.48716100  0.00471200  1
  H  140  1  0.89952100  0.52165700  0.07857900  1
  H  142  1  0.12142900  0.47264400  0.92200300  1
  H  149  1  0.19020400  0.51245800  0.47707700  1
  H  153  1  0.68733100  0.50400500  0.46601000  1
  H  154  1  0.60934800  0.56322000  0.50417700  1
  H  155  1  0.74736500  0.57080200  0.53579900  1
  H  156  1  0.65963400  0.52437000  0.54373200  1
  H  157  1  0.52171200  0.51651600  0.51203600  1
  H  159  1  0.89943500  0.55594000  0.47756900  1
  H  161  1  0.12154400  0.44837200  0.52656400  1
  H  167  1  0.19018400  0.96360400  0.48677400  1
  H  170  1  0.68728800  0.96100400  0.49522000  1
  H  171  1  0.60927400  0.93988400  0.43599600  1
  H  172  1  0.74731500  0.96388500  0.42836400  1
  H  173  1  0.65964900  0.01828900  0.47475300  1
  H  175  1  0.89950100  0.92058800  0.44326200  1
  H  177  1  0.12140400  0.07716600  0.55084000  1
  N  127  1  0.12102400  0.49726400  0.98600100  1
  N  129  1  0.89167500  0.48770700  0.97815100  1
  N  139  1  0.96293700  0.53256300  0.07059300  1
  N  141  1  0.03623800  0.46795400  0.92944800  1
  N  146  1  0.12109400  0.48776700  0.50195100  1
  N  148  1  0.89174400  0.48945100  0.51150400  1
  N  158  1  0.96289200  0.53705600  0.46666400  1
  N  160  1  0.03637400  0.46051400  0.53125600  1
  N  164  1  0.12103200  0.01316800  0.51144500  1
  N  166  1  0.89168500  0.02102000  0.50973100  1
  N  174  1  0.96292200  0.92857700  0.46215500  1
  N  176  1  0.03623300  0.06971900  0.53869600  1
  O  64  1  0.08727600  0.58198300  0.08411300  1
  O  65  1  0.08721100  0.50113800  0.41723700  1
  O  66  1  0.08726700  0.91506200  0.49806200  1
  O  121  1  0.84756900  0.43180700  0.91430000  1
  O  122  1  0.84767700  0.48149400  0.56739500  1
  O  123  1  0.84762300  0.08486900  0.51767800  1
