# generated using pymatgen
data_NdH11C13O8
_symmetry_space_group_name_H-M   'P 1'
_cell_length_a   12.34880000
_cell_length_b   12.84140000
_cell_length_c   24.10860000
_cell_angle_alpha   90.00000000
_cell_angle_beta   90.00000000
_cell_angle_gamma   90.00000000
_symmetry_Int_Tables_number   1
_chemical_formula_structural   NdH11C13O8
_chemical_formula_sum   'Nd8 H88 C104 O64'
_cell_volume   3823.04246828
_cell_formula_units_Z   8
loop_
 _symmetry_equiv_pos_site_id
 _symmetry_equiv_pos_as_xyz
  1  'x, y, z'
loop_
 _atom_site_type_symbol
 _atom_site_label
 _atom_site_symmetry_multiplicity
 _atom_site_fract_x
 _atom_site_fract_y
 _atom_site_fract_z
 _atom_site_occupancy
  Nd  Nd1  1  0.05460000  0.39822000  0.93180000  1.0
  Nd  Nd2  1  0.27481000  0.62488000  0.58231000  1.0
  Nd  Nd3  1  0.05460000  0.60178000  0.06820000  1.0
  Nd  Nd4  1  0.27481000  0.37512000  0.41769000  1.0
  Nd  Nd5  1  0.94540000  0.10178000  0.43180000  1.0
  Nd  Nd6  1  0.72519000  0.87512000  0.08231000  1.0
  Nd  Nd7  1  0.94540000  0.89822000  0.56820000  1.0
  Nd  Nd8  1  0.72519000  0.12488000  0.91769000  1.0
  H  H1  1  0.91870000  0.30160000  0.74560000  1.0
  H  H2  1  0.23960000  0.32200000  0.75160000  1.0
  H  H3  1  0.09270000  0.25730000  0.60500000  1.0
  H  H4  1  0.93240000  0.28440000  0.56380000  1.0
  H  H5  1  0.73310000  0.19020000  0.58970000  1.0
  H  H6  1  0.76840000  0.22700000  0.53040000  1.0
  H  H7  1  0.74560000  0.30930000  0.57700000  1.0
  H  H8  1  0.27010000  0.21160000  0.58350000  1.0
  H  H9  1  0.45960000  0.32790000  0.60040000  1.0
  H  H10  1  0.43810000  0.26220000  0.54670000  1.0
  H  H11  1  0.45070000  0.20630000  0.60420000  1.0
  H  H12  1  0.38790000  0.04710000  0.92120000  1.0
  H  H13  1  0.04840000  0.98500000  0.91110000  1.0
  H  H14  1  0.07910000  0.11560000  0.81800000  1.0
  H  H15  1  0.97880000  0.04270000  0.82680000  1.0
  H  H16  1  0.09360000  0.99440000  0.81660000  1.0
  H  H17  1  0.41640000  0.52120000  0.08350000  1.0
  H  H18  1  0.74980000  0.44690000  0.08620000  1.0
  H  H19  1  0.73980000  0.56960000  0.18430000  1.0
  H  H20  1  0.83030000  0.48790000  0.17070000  1.0
  H  H21  1  0.71240000  0.45040000  0.18420000  1.0
  H  H22  1  0.91870000  0.69840000  0.25440000  1.0
  H  H23  1  0.23960000  0.67800000  0.24840000  1.0
  H  H24  1  0.09270000  0.74270000  0.39500000  1.0
  H  H25  1  0.93240000  0.71560000  0.43620000  1.0
  H  H26  1  0.73310000  0.80980000  0.41030000  1.0
  H  H27  1  0.76840000  0.77300000  0.46960000  1.0
  H  H28  1  0.74560000  0.69070000  0.42300000  1.0
  H  H29  1  0.27010000  0.78840000  0.41650000  1.0
  H  H30  1  0.45960000  0.67210000  0.39960000  1.0
  H  H31  1  0.43810000  0.73780000  0.45330000  1.0
  H  H32  1  0.45070000  0.79370000  0.39580000  1.0
  H  H33  1  0.38790000  0.95290000  0.07880000  1.0
  H  H34  1  0.04840000  0.01500000  0.08890000  1.0
  H  H35  1  0.07910000  0.88440000  0.18200000  1.0
  H  H36  1  0.97880000  0.95730000  0.17320000  1.0
  H  H37  1  0.09360000  0.00560000  0.18340000  1.0
  H  H38  1  0.41640000  0.47880000  0.91650000  1.0
  H  H39  1  0.74980000  0.55310000  0.91380000  1.0
  H  H40  1  0.73980000  0.43040000  0.81570000  1.0
  H  H41  1  0.83030000  0.51210000  0.82930000  1.0
  H  H42  1  0.71240000  0.54960000  0.81580000  1.0
  H  H43  1  0.08130000  0.19840000  0.24560000  1.0
  H  H44  1  0.76040000  0.17800000  0.25160000  1.0
  H  H45  1  0.90730000  0.24270000  0.10500000  1.0
  H  H46  1  0.06760000  0.21560000  0.06380000  1.0
  H  H47  1  0.26690000  0.30980000  0.08970000  1.0
  H  H48  1  0.23160000  0.27300000  0.03040000  1.0
  H  H49  1  0.25440000  0.19070000  0.07700000  1.0
  H  H50  1  0.72990000  0.28840000  0.08350000  1.0
  H  H51  1  0.54040000  0.17210000  0.10040000  1.0
  H  H52  1  0.56190000  0.23780000  0.04670000  1.0
  H  H53  1  0.54930000  0.29370000  0.10420000  1.0
  H  H54  1  0.61210000  0.45290000  0.42120000  1.0
  H  H55  1  0.95160000  0.51500000  0.41110000  1.0
  H  H56  1  0.92090000  0.38440000  0.31800000  1.0
  H  H57  1  0.02120000  0.45730000  0.32680000  1.0
  H  H58  1  0.90640000  0.50560000  0.31660000  1.0
  H  H59  1  0.58360000  0.97880000  0.58350000  1.0
  H  H60  1  0.25020000  0.05310000  0.58620000  1.0
  H  H61  1  0.26020000  0.93040000  0.68430000  1.0
  H  H62  1  0.16970000  0.01210000  0.67070000  1.0
  H  H63  1  0.28760000  0.04960000  0.68420000  1.0
  H  H64  1  0.08130000  0.80160000  0.75440000  1.0
  H  H65  1  0.76040000  0.82200000  0.74840000  1.0
  H  H66  1  0.90730000  0.75730000  0.89500000  1.0
  H  H67  1  0.06760000  0.78440000  0.93620000  1.0
  H  H68  1  0.26690000  0.69020000  0.91030000  1.0
  H  H69  1  0.23160000  0.72700000  0.96960000  1.0
  H  H70  1  0.25440000  0.80930000  0.92300000  1.0
  H  H71  1  0.72990000  0.71160000  0.91650000  1.0
  H  H72  1  0.54040000  0.82790000  0.89960000  1.0
  H  H73  1  0.56190000  0.76220000  0.95330000  1.0
  H  H74  1  0.54930000  0.70630000  0.89580000  1.0
  H  H75  1  0.61210000  0.54710000  0.57880000  1.0
  H  H76  1  0.95160000  0.48500000  0.58890000  1.0
  H  H77  1  0.92090000  0.61560000  0.68200000  1.0
  H  H78  1  0.02120000  0.54270000  0.67320000  1.0
  H  H79  1  0.90640000  0.49440000  0.68340000  1.0
  H  H80  1  0.58360000  0.02120000  0.41650000  1.0
  H  H81  1  0.25020000  0.94690000  0.41380000  1.0
  H  H82  1  0.26020000  0.06960000  0.31570000  1.0
  H  H83  1  0.16970000  0.98790000  0.32930000  1.0
  H  H84  1  0.28760000  0.95040000  0.31580000  1.0
  H  H85  1  0.10210000  0.00000000  0.00000000  1.0
  H  H86  1  0.89790000  0.50000000  0.50000000  1.0
  H  H87  1  0.69620000  0.50000000  0.00000000  1.0
  H  H88  1  0.30380000  0.00000000  0.50000000  1.0
  C  C1  1  0.99170000  0.27890000  0.66860000  1.0
  C  C2  1  0.98540000  0.29970000  0.72770000  1.0
  C  C3  1  0.07720000  0.31630000  0.75610000  1.0
  C  C4  1  0.17690000  0.31170000  0.73090000  1.0
  C  C5  1  0.18350000  0.29130000  0.67350000  1.0
  C  C6  1  0.08870000  0.27310000  0.64260000  1.0
  C  C7  1  0.88970000  0.23640000  0.58660000  1.0
  C  C8  1  0.93370000  0.12690000  0.58040000  1.0
  C  C9  1  0.77390000  0.24120000  0.56940000  1.0
  C  C10  1  0.30530000  0.27640000  0.59510000  1.0
  C  C11  1  0.25770000  0.36650000  0.56240000  1.0
  C  C12  1  0.42390000  0.26740000  0.58570000  1.0
  C  C13  1  0.06970000  0.33980000  0.81790000  1.0
  C  C14  1  0.23610000  0.02630000  0.95180000  1.0
  C  C15  1  0.34960000  0.02760000  0.95280000  1.0
  C  C16  1  0.07600000  0.05050000  0.89580000  1.0
  C  C17  1  0.01740000  0.14120000  0.92490000  1.0
  C  C18  1  0.05490000  0.05080000  0.83350000  1.0
  C  C19  1  0.45280000  0.51280000  0.05000000  1.0
  C  C20  1  0.56240000  0.51250000  0.04740000  1.0
  C  C21  1  0.72570000  0.51040000  0.10510000  1.0
  C  C22  1  0.77950000  0.60540000  0.07830000  1.0
  C  C23  1  0.75470000  0.50400000  0.16680000  1.0
  C  C24  1  0.99170000  0.72110000  0.33140000  1.0
  C  C25  1  0.98540000  0.70030000  0.27230000  1.0
  C  C26  1  0.07720000  0.68370000  0.24390000  1.0
  C  C27  1  0.17690000  0.68830000  0.26910000  1.0
  C  C28  1  0.18350000  0.70870000  0.32650000  1.0
  C  C29  1  0.08870000  0.72690000  0.35740000  1.0
  C  C30  1  0.88970000  0.76360000  0.41340000  1.0
  C  C31  1  0.93370000  0.87310000  0.41960000  1.0
  C  C32  1  0.77390000  0.75880000  0.43060000  1.0
  C  C33  1  0.30530000  0.72360000  0.40490000  1.0
  C  C34  1  0.25770000  0.63350000  0.43760000  1.0
  C  C35  1  0.42390000  0.73260000  0.41430000  1.0
  C  C36  1  0.06970000  0.66020000  0.18210000  1.0
  C  C37  1  0.23610000  0.97370000  0.04820000  1.0
  C  C38  1  0.34960000  0.97240000  0.04720000  1.0
  C  C39  1  0.07600000  0.94950000  0.10420000  1.0
  C  C40  1  0.01740000  0.85880000  0.07510000  1.0
  C  C41  1  0.05490000  0.94920000  0.16650000  1.0
  C  C42  1  0.45280000  0.48720000  0.95000000  1.0
  C  C43  1  0.56240000  0.48750000  0.95260000  1.0
  C  C44  1  0.72570000  0.48960000  0.89490000  1.0
  C  C45  1  0.77950000  0.39460000  0.92170000  1.0
  C  C46  1  0.75470000  0.49600000  0.83320000  1.0
  C  C47  1  0.00830000  0.22110000  0.16860000  1.0
  C  C48  1  0.01460000  0.20030000  0.22770000  1.0
  C  C49  1  0.92280000  0.18370000  0.25610000  1.0
  C  C50  1  0.82310000  0.18830000  0.23090000  1.0
  C  C51  1  0.81650000  0.20870000  0.17350000  1.0
  C  C52  1  0.91130000  0.22690000  0.14260000  1.0
  C  C53  1  0.11030000  0.26360000  0.08660000  1.0
  C  C54  1  0.06630000  0.37310000  0.08040000  1.0
  C  C55  1  0.22610000  0.25880000  0.06940000  1.0
  C  C56  1  0.69470000  0.22360000  0.09510000  1.0
  C  C57  1  0.74230000  0.13350000  0.06240000  1.0
  C  C58  1  0.57610000  0.23260000  0.08570000  1.0
  C  C59  1  0.93030000  0.16020000  0.31790000  1.0
  C  C60  1  0.76390000  0.47370000  0.45180000  1.0
  C  C61  1  0.65040000  0.47240000  0.45280000  1.0
  C  C62  1  0.92400000  0.44950000  0.39580000  1.0
  C  C63  1  0.98260000  0.35880000  0.42490000  1.0
  C  C64  1  0.94510000  0.44920000  0.33350000  1.0
  C  C65  1  0.54720000  0.98720000  0.55000000  1.0
  C  C66  1  0.43760000  0.98750000  0.54740000  1.0
  C  C67  1  0.27430000  0.98960000  0.60510000  1.0
  C  C68  1  0.22050000  0.89460000  0.57830000  1.0
  C  C69  1  0.24530000  0.99600000  0.66680000  1.0
  C  C70  1  0.00830000  0.77890000  0.83140000  1.0
  C  C71  1  0.01460000  0.79970000  0.77230000  1.0
  C  C72  1  0.92280000  0.81630000  0.74390000  1.0
  C  C73  1  0.82310000  0.81170000  0.76910000  1.0
  C  C74  1  0.81650000  0.79130000  0.82650000  1.0
  C  C75  1  0.91130000  0.77310000  0.85740000  1.0
  C  C76  1  0.11030000  0.73640000  0.91340000  1.0
  C  C77  1  0.06630000  0.62690000  0.91960000  1.0
  C  C78  1  0.22610000  0.74120000  0.93060000  1.0
  C  C79  1  0.69470000  0.77640000  0.90490000  1.0
  C  C80  1  0.74230000  0.86650000  0.93760000  1.0
  C  C81  1  0.57610000  0.76740000  0.91430000  1.0
  C  C82  1  0.93030000  0.83980000  0.68210000  1.0
  C  C83  1  0.76390000  0.52630000  0.54820000  1.0
  C  C84  1  0.65040000  0.52760000  0.54720000  1.0
  C  C85  1  0.92400000  0.55050000  0.60420000  1.0
  C  C86  1  0.98260000  0.64120000  0.57510000  1.0
  C  C87  1  0.94510000  0.55080000  0.66650000  1.0
  C  C88  1  0.54720000  0.01280000  0.45000000  1.0
  C  C89  1  0.43760000  0.01250000  0.45260000  1.0
  C  C90  1  0.27430000  0.01040000  0.39490000  1.0
  C  C91  1  0.22050000  0.10540000  0.42170000  1.0
  C  C92  1  0.24530000  0.00400000  0.33320000  1.0
  C  C93  1  0.17740000  0.00000000  0.00000000  1.0
  C  C94  1  0.40440000  0.00000000  0.00000000  1.0
  C  C95  1  0.52570000  0.00000000  0.00000000  1.0
  C  C96  1  0.82260000  0.50000000  0.50000000  1.0
  C  C97  1  0.59560000  0.50000000  0.50000000  1.0
  C  C98  1  0.47430000  0.50000000  0.50000000  1.0
  C  C99  1  0.39680000  0.50000000  0.00000000  1.0
  C  C100  1  0.62090000  0.50000000  0.00000000  1.0
  C  C101  1  0.27360000  0.50000000  0.00000000  1.0
  C  C102  1  0.60320000  0.00000000  0.50000000  1.0
  C  C103  1  0.37910000  0.00000000  0.50000000  1.0
  C  C104  1  0.72640000  0.00000000  0.50000000  1.0
  O  O1  1  0.28700000  0.29200000  0.65340000  1.0
  O  O2  1  0.23130000  0.44670000  0.58570000  1.0
  O  O3  1  0.25350000  0.34640000  0.51070000  1.0
  O  O4  1  0.89330000  0.26930000  0.64350000  1.0
  O  O5  1  0.95950000  0.09790000  0.53250000  1.0
  O  O6  1  0.93510000  0.06810000  0.62070000  1.0
  O  O7  1  0.97960000  0.33420000  0.84110000  1.0
  O  O8  1  0.15440000  0.36230000  0.84410000  1.0
  O  O9  1  0.19060000  0.05200000  0.90250000  1.0
  O  O10  1  0.07210000  0.21560000  0.93970000  1.0
  O  O11  1  0.91790000  0.13310000  0.92660000  1.0
  O  O12  1  0.57220000  0.04160000  0.96060000  1.0
  O  O13  1  0.87080000  0.58790000  0.05870000  1.0
  O  O14  1  0.73420000  0.68900000  0.07910000  1.0
  O  O15  1  0.60890000  0.51960000  0.10070000  1.0
  O  O16  1  0.22790000  0.45370000  0.96070000  1.0
  O  O17  1  0.28700000  0.70800000  0.34660000  1.0
  O  O18  1  0.23130000  0.55330000  0.41430000  1.0
  O  O19  1  0.25350000  0.65360000  0.48930000  1.0
  O  O20  1  0.89330000  0.73070000  0.35650000  1.0
  O  O21  1  0.95950000  0.90210000  0.46750000  1.0
  O  O22  1  0.93510000  0.93190000  0.37930000  1.0
  O  O23  1  0.97960000  0.66580000  0.15890000  1.0
  O  O24  1  0.15440000  0.63770000  0.15590000  1.0
  O  O25  1  0.19060000  0.94800000  0.09750000  1.0
  O  O26  1  0.07210000  0.78440000  0.06030000  1.0
  O  O27  1  0.91790000  0.86690000  0.07340000  1.0
  O  O28  1  0.57220000  0.95840000  0.03940000  1.0
  O  O29  1  0.87080000  0.41210000  0.94130000  1.0
  O  O30  1  0.73420000  0.31100000  0.92090000  1.0
  O  O31  1  0.60890000  0.48040000  0.89930000  1.0
  O  O32  1  0.22790000  0.54630000  0.03930000  1.0
  O  O33  1  0.71300000  0.20800000  0.15340000  1.0
  O  O34  1  0.76870000  0.05330000  0.08570000  1.0
  O  O35  1  0.74650000  0.15360000  0.01070000  1.0
  O  O36  1  0.10670000  0.23070000  0.14350000  1.0
  O  O37  1  0.04050000  0.40210000  0.03250000  1.0
  O  O38  1  0.06490000  0.43190000  0.12070000  1.0
  O  O39  1  0.02040000  0.16580000  0.34110000  1.0
  O  O40  1  0.84560000  0.13770000  0.34410000  1.0
  O  O41  1  0.80940000  0.44800000  0.40250000  1.0
  O  O42  1  0.92790000  0.28440000  0.43970000  1.0
  O  O43  1  0.08210000  0.36690000  0.42660000  1.0
  O  O44  1  0.42780000  0.45840000  0.46060000  1.0
  O  O45  1  0.12920000  0.91210000  0.55870000  1.0
  O  O46  1  0.26580000  0.81100000  0.57910000  1.0
  O  O47  1  0.39110000  0.98040000  0.60070000  1.0
  O  O48  1  0.77210000  0.04630000  0.46070000  1.0
  O  O49  1  0.71300000  0.79200000  0.84660000  1.0
  O  O50  1  0.76870000  0.94670000  0.91430000  1.0
  O  O51  1  0.74650000  0.84640000  0.98930000  1.0
  O  O52  1  0.10670000  0.76930000  0.85650000  1.0
  O  O53  1  0.04050000  0.59790000  0.96750000  1.0
  O  O54  1  0.06490000  0.56810000  0.87930000  1.0
  O  O55  1  0.02040000  0.83420000  0.65890000  1.0
  O  O56  1  0.84560000  0.86230000  0.65590000  1.0
  O  O57  1  0.80940000  0.55200000  0.59750000  1.0
  O  O58  1  0.92790000  0.71560000  0.56030000  1.0
  O  O59  1  0.08210000  0.63310000  0.57340000  1.0
  O  O60  1  0.42780000  0.54160000  0.53940000  1.0
  O  O61  1  0.12920000  0.08790000  0.44130000  1.0
  O  O62  1  0.26580000  0.18900000  0.42090000  1.0
  O  O63  1  0.39110000  0.01960000  0.39930000  1.0
  O  O64  1  0.77210000  0.95370000  0.53930000  1.0
