# generated using pymatgen
data_MnH6(C3O)4
_symmetry_space_group_name_H-M   'P 1'
_cell_length_a   12.02841000
_cell_length_b   12.91897000
_cell_length_c   14.14555000
_cell_angle_alpha   103.06734000
_cell_angle_beta   101.60896000
_cell_angle_gamma   93.12199000
_symmetry_Int_Tables_number   1
_chemical_formula_structural   MnH6(C3O)4
_chemical_formula_sum   'Mn6 H36 C72 O24'
_cell_volume   2085.87990035
_cell_formula_units_Z   6
loop_
 _symmetry_equiv_pos_site_id
 _symmetry_equiv_pos_as_xyz
  1  'x, y, z'
loop_
 _atom_site_type_symbol
 _atom_site_label
 _atom_site_symmetry_multiplicity
 _atom_site_fract_x
 _atom_site_fract_y
 _atom_site_fract_z
 _atom_site_occupancy
  Mn  Mn0  1  0.89765000  0.86758000  0.74862000  1
  Mn  Mn1  1  0.08430000  0.76103000  0.60573000  1
  Mn  Mn2  1  0.10172000  0.13243000  0.25138000  1
  Mn  Mn3  1  0.91572000  0.23913000  0.39434000  1
  Mn  Mn4  1  0.99866000  0.00021000  0.00044000  1
  Mn  Mn5  1  0.99952000  0.50035000  0.50003000  1
  H  H6  1  0.53287000  0.93018000  0.75474000  1
  H  H7  1  0.74425000  0.13144000  0.02034000  1
  H  H8  1  0.57514000  0.21444000  0.06851000  1
  H  H9  1  0.36441000  0.22138000  0.03400000  1
  H  H10  1  0.17183000  0.13997000  0.93677000  1
  H  H11  1  0.32084000  0.92444000  0.72986000  1
  H  H12  1  0.97478000  0.71212000  0.10581000  1
  H  H13  1  0.81720000  0.58865000  0.79712000  1
  H  H14  1  0.74655000  0.41903000  0.83008000  1
  H  H15  1  0.73730000  0.30578000  0.94842000  1
  H  H16  1  0.79398000  0.27919000  0.12000000  1
  H  H17  1  0.96784000  0.59569000  0.22605000  1
  H  H18  1  0.64912000  0.75771000  0.57709000  1
  H  H19  1  0.79638000  0.56496000  0.35375000  1
  H  H20  1  0.60710000  0.46602000  0.26946000  1
  H  H21  1  0.40222000  0.42231000  0.27428000  1
  H  H22  1  0.23787000  0.46385000  0.35452000  1
  H  H23  1  0.43951000  0.73385000  0.56495000  1
  H  H24  1  0.46587000  0.06993000  0.24488000  1
  H  H25  1  0.25493000  0.86845000  0.97905000  1
  H  H26  1  0.42436000  0.78559000  0.93143000  1
  H  H27  1  0.63505000  0.77865000  0.96629000  1
  H  H28  1  0.82742000  0.86008000  0.06376000  1
  H  H29  1  0.67811000  0.07581000  0.27022000  1
  H  H30  1  0.02429000  0.28780000  0.89380000  1
  H  H31  1  0.18249000  0.41069000  0.20246000  1
  H  H32  1  0.25335000  0.58028000  0.16971000  1
  H  H33  1  0.26249000  0.69384000  0.05138000  1
  H  H34  1  0.20567000  0.72055000  0.87988000  1
  H  H35  1  0.03175000  0.40407000  0.77375000  1
  H  H36  1  0.35073000  0.24233000  0.42297000  1
  H  H37  1  0.20346000  0.43529000  0.64622000  1
  H  H38  1  0.39282000  0.53402000  0.73063000  1
  H  H39  1  0.59778000  0.57769000  0.72575000  1
  H  H40  1  0.76201000  0.53597000  0.64538000  1
  H  H41  1  0.56025000  0.26599000  0.43513000  1
  C  C42  1  0.54087000  0.99159000  0.82325000  1
  C  C43  1  0.64774000  0.02738000  0.88437000  1
  C  C44  1  0.65909000  0.10719000  0.97408000  1
  C  C45  1  0.56535000  0.15195000  0.00049000  1
  C  C46  1  0.35501000  0.15567000  0.96843000  1
  C  C47  1  0.24798000  0.11076000  0.91486000  1
  C  C48  1  0.23550000  0.02452000  0.82978000  1
  C  C49  1  0.33099000  0.98886000  0.79653000  1
  C  C50  1  0.44205000  0.03196000  0.85157000  1
  C  C51  1  0.45432000  0.11525000  0.94099000  1
  C  C52  1  0.75164000  0.98163000  0.86065000  1
  C  C53  1  0.12166000  0.96768000  0.77978000  1
  C  C54  1  0.92531000  0.64759000  0.04635000  1
  C  C55  1  0.89887000  0.66052000  0.94989000  1
  C  C56  1  0.83491000  0.57637000  0.87177000  1
  C  C57  1  0.79673000  0.48239000  0.89039000  1
  C  C58  1  0.78776000  0.36903000  0.00860000  1
  C  C59  1  0.81807000  0.35399000  0.10304000  1
  C  C60  1  0.88355000  0.43599000  0.18246000  1
  C  C61  1  0.91767000  0.53311000  0.16502000  1
  C  C62  1  0.88941000  0.55048000  0.06783000  1
  C  C63  1  0.82328000  0.46655000  0.98807000  1
  C  C64  1  0.93279000  0.76131000  0.92419000  1
  C  C65  1  0.91402000  0.41241000  0.28168000  1
  C  C66  1  0.63951000  0.69390000  0.51004000  1
  C  C67  1  0.73534000  0.66387000  0.47366000  1
  C  C68  1  0.72160000  0.58335000  0.38364000  1
  C  C69  1  0.61623000  0.52891000  0.33714000  1
  C  C70  1  0.41105000  0.48989000  0.33822000  1
  C  C71  1  0.31949000  0.51282000  0.38170000  1
  C  C72  1  0.32872000  0.60301000  0.46276000  1
  C  C73  1  0.43246000  0.66543000  0.50217000  1
  C  C74  1  0.53012000  0.63922000  0.46348000  1
  C  C75  1  0.51851000  0.55161000  0.37753000  1
  C  C76  1  0.84914000  0.71103000  0.53103000  1
  C  C77  1  0.22709000  0.62958000  0.50432000  1
  C  C78  1  0.45789000  0.00857000  0.17635000  1
  C  C79  1  0.35101000  0.97283000  0.11504000  1
  C  C80  1  0.33999000  0.89290000  0.02546000  1
  C  C81  1  0.43391000  0.84815000  0.99936000  1
  C  C82  1  0.64426000  0.84437000  0.03183000  1
  C  C83  1  0.75120000  0.88930000  0.08553000  1
  C  C84  1  0.76354000  0.97561000  0.17054000  1
  C  C85  1  0.66797000  0.01131000  0.20361000  1
  C  C86  1  0.55691000  0.96820000  0.14838000  1
  C  C87  1  0.54486000  0.88484000  0.05904000  1
  C  C88  1  0.24698000  0.01833000  0.13899000  1
  C  C89  1  0.87741000  0.03243000  0.22037000  1
  C  C90  1  0.07392000  0.35220000  0.95332000  1
  C  C91  1  0.10010000  0.33920000  0.04974000  1
  C  C92  1  0.16457000  0.42312000  0.12786000  1
  C  C93  1  0.20303000  0.51705000  0.10933000  1
  C  C94  1  0.21205000  0.63059000  0.99119000  1
  C  C95  1  0.18163000  0.64570000  0.89679000  1
  C  C96  1  0.11596000  0.56381000  0.81740000  1
  C  C97  1  0.08200000  0.46662000  0.83475000  1
  C  C98  1  0.11031000  0.44919000  0.93192000  1
  C  C99  1  0.17651000  0.53305000  0.01170000  1
  C  C100  1  0.06533000  0.23870000  0.07560000  1
  C  C101  1  0.08516000  0.58761000  0.71832000  1
  C  C102  1  0.36033000  0.30613000  0.49002000  1
  C  C103  1  0.26452000  0.33629000  0.52637000  1
  C  C104  1  0.27827000  0.41681000  0.61639000  1
  C  C105  1  0.38368000  0.47113000  0.66294000  1
  C  C106  1  0.58886000  0.51009000  0.66181000  1
  C  C107  1  0.68036000  0.48707000  0.61828000  1
  C  C108  1  0.67107000  0.39682000  0.53727000  1
  C  C109  1  0.56734000  0.33443000  0.49790000  1
  C  C110  1  0.46973000  0.36075000  0.53661000  1
  C  C111  1  0.48139000  0.44838000  0.62255000  1
  C  C112  1  0.15068000  0.28932000  0.46895000  1
  C  C113  1  0.77265000  0.37033000  0.49570000  1
  O  O114  1  0.83958000  0.99948000  0.93281000  1
  O  O115  1  0.74973000  0.92735000  0.77233000  1
  O  O116  1  0.04033000  0.97383000  0.82796000  1
  O  O117  1  0.10548000  0.91189000  0.69023000  1
  O  O118  1  0.97873000  0.84265000  0.99483000  1
  O  O119  1  0.91115000  0.76037000  0.83176000  1
  O  O120  1  0.88947000  0.31579000  0.28543000  1
  O  O121  1  0.96114000  0.48877000  0.35677000  1
  O  O122  1  0.94051000  0.67108000  0.50885000  1
  O  O123  1  0.86045000  0.79256000  0.60524000  1
  O  O124  1  0.15103000  0.55231000  0.49460000  1
  O  O125  1  0.22154000  0.72766000  0.54735000  1
  O  O126  1  0.15828000  0.00037000  0.06743000  1
  O  O127  1  0.24976000  0.07271000  0.22748000  1
  O  O128  1  0.95834000  0.02640000  0.17176000  1
  O  O129  1  0.89429000  0.08803000  0.31002000  1
  O  O130  1  0.01696000  0.15782000  0.00537000  1
  O  O131  1  0.08872000  0.23944000  0.16797000  1
  O  O132  1  0.11048000  0.68403000  0.71448000  1
  O  O133  1  0.03724000  0.51153000  0.64332000  1
  O  O134  1  0.05941000  0.32946000  0.49105000  1
  O  O135  1  0.13937000  0.20765000  0.39483000  1
  O  O136  1  0.84846000  0.44778000  0.50539000  1
  O  O137  1  0.77843000  0.27230000  0.45268000  1
