# generated using pymatgen
data_H24C41(NO)8
_symmetry_space_group_name_H-M   'P 1'
_cell_length_a   16.46900000
_cell_length_b   16.46900000
_cell_length_c   65.87580000
_cell_angle_alpha   89.99990000
_cell_angle_beta   89.99990000
_cell_angle_gamma   90.00000000
_symmetry_Int_Tables_number   1
_chemical_formula_structural   H24C41(NO)8
_chemical_formula_sum   'H96 C164 N32 O32'
_cell_volume   17867.35891319
_cell_formula_units_Z   4
loop_
 _symmetry_equiv_pos_site_id
 _symmetry_equiv_pos_as_xyz
  1  'x, y, z'
loop_
 _atom_site_type_symbol
 _atom_site_label
 _atom_site_symmetry_multiplicity
 _atom_site_fract_x
 _atom_site_fract_y
 _atom_site_fract_z
 _atom_site_occupancy
  C  1  1  0.09390000  0.02371500  0.17414400  1
  C  2  1  0.11700000  0.09080000  0.16210600  1
  C  3  1  0.16948800  0.08067200  0.14548400  1
  C  4  1  0.20338700  0.00387900  0.14049900  1
  C  5  1  0.17237100  0.93607800  0.15136600  1
  C  6  1  0.12033200  0.94567800  0.16815100  1
  C  7  1  0.26277100  0.99440000  0.12283800  1
  C  8  1  0.20312400  0.98351400  0.10528700  1
  C  9  1  0.17116300  0.90600400  0.10014600  1
  C  10  1  0.11745600  0.89534800  0.08375500  1
  C  11  1  0.09153600  0.96262600  0.07218900  1
  C  12  1  0.11650200  0.04096800  0.07825400  1
  C  13  1  0.16964400  0.05100500  0.09476500  1
  C  14  1  0.32174300  0.06541300  0.12052300  1
  C  15  1  0.32393500  0.92530800  0.12500200  1
  C  16  1  0.35866600  0.88758200  0.10764400  1
  C  17  1  0.41565800  0.82454800  0.10937400  1
  C  18  1  0.44279500  0.79888200  0.12866000  1
  C  19  1  0.41508600  0.84071200  0.14600600  1
  C  20  1  0.35798600  0.90373400  0.14409100  1
  C  21  1  0.35578800  0.10464500  0.13775500  1
  C  22  1  0.40880300  0.17100600  0.13581900  1
  C  23  1  0.43215400  0.19931300  0.11642800  1
  C  24  1  0.40619300  0.15540000  0.09921400  1
  C  25  1  0.35351600  0.08877700  0.10133000  1
  C  42  1  0.48593500  0.72770600  0.13081200  1
  C  43  1  0.05202900  0.03714600  0.19208000  1
  C  46  1  0.04397400  0.95130200  0.05515200  1
  C  48  1  0.47048400  0.27340500  0.11396200  1
  C  50  1  0.96775800  0.09065100  0.67879700  1
  C  51  1  0.89962400  0.11854500  0.66781500  1
  C  52  1  0.90943800  0.16794100  0.65060400  1
  C  53  1  0.98727400  0.19377100  0.64391900  1
  C  54  1  0.05506700  0.15799400  0.65385100  1
  C  55  1  0.04587600  0.10922500  0.67125500  1
  C  56  1  0.99786400  0.24890000  0.62546600  1
  C  57  1  0.00493900  0.18519100  0.60869100  1
  C  58  1  0.08088700  0.15507600  0.60173100  1
  C  59  1  0.08629800  0.10213300  0.58500700  1
  C  60  1  0.01522900  0.07432400  0.57529600  1
  C  61  1  0.93910600  0.09566000  0.58351600  1
  C  62  1  0.93449600  0.14841300  0.60023700  1
  C  63  1  0.92893700  0.30974700  0.62222700  1
  C  64  1  0.06912500  0.30794300  0.62691700  1
  C  65  1  0.10499800  0.34152700  0.60916900  1
  C  66  1  0.16922800  0.39751100  0.61020000  1
  C  67  1  0.19794200  0.42508000  0.62917600  1
  C  68  1  0.15837200  0.39827800  0.64693800  1
  C  69  1  0.09431100  0.34205500  0.64572400  1
  C  70  1  0.89288300  0.35141300  0.63883800  1
  C  71  1  0.82724000  0.40486600  0.63613000  1
  C  72  1  0.79728800  0.42154700  0.61647300  1
  C  73  1  0.83851600  0.38830200  0.59964500  1
  C  74  1  0.90401600  0.33484400  0.60253400  1
  C  91  1  0.26905100  0.46889400  0.63065600  1
  C  92  1  0.95581600  0.05116800  0.69710800  1
  C  95  1  0.01949800  0.03926300  0.55636300  1
  C  97  1  0.72324000  0.45920800  0.61359800  1
  C  99  1  0.90921200  0.01918800  0.82578200  1
  C  100  1  0.88464700  0.08730800  0.83725100  1
  C  101  1  0.83147800  0.07833600  0.85377600  1
  C  102  1  0.79842200  0.00166200  0.85921500  1
  C  103  1  0.83118600  0.93307400  0.84898200  1
  C  104  1  0.88371600  0.94147800  0.83224800  1
  C  105  1  0.73807800  0.99276800  0.87669500  1
  C  106  1  0.79651700  0.97921900  0.89439000  1
  C  107  1  0.82173200  0.90036700  0.90047400  1
  C  108  1  0.87306700  0.88826800  0.91727400  1
  C  109  1  0.90401400  0.95499400  0.92830100  1
  C  110  1  0.88661000  0.03392300  0.92107700  1
  C  111  1  0.83536400  0.04540600  0.90425100  1
  C  112  1  0.68114000  0.06535300  0.87916600  1
  C  113  1  0.67501400  0.92562400  0.87405800  1
  C  114  1  0.63546000  0.89095800  0.89117800  1
  C  115  1  0.57769900  0.82876200  0.88914600  1
  C  116  1  0.55450800  0.80116000  0.86971200  1
  C  117  1  0.58667800  0.84040400  0.85247200  1
  C  118  1  0.64455600  0.90255000  0.85470200  1
  C  119  1  0.64578300  0.10372800  0.86197500  1
  C  120  1  0.59479100  0.17166800  0.86390000  1
  C  121  1  0.57477100  0.20257900  0.88327500  1
  C  122  1  0.60207400  0.15982800  0.90054600  1
  C  123  1  0.65282000  0.09171100  0.89845100  1
  C  140  1  0.51213800  0.72960800  0.86750500  1
  C  141  1  0.95117000  0.03130100  0.80782700  1
  C  144  1  0.94818000  0.94213400  0.94595100  1
  C  146  1  0.53812100  0.27760000  0.88563300  1
  C  148  1  0.02288800  0.08746500  0.32106300  1
  C  149  1  0.09150300  0.11310200  0.33219200  1
  C  150  1  0.08270400  0.16344200  0.34926500  1
  C  151  1  0.00557000  0.19248000  0.35563600  1
  C  152  1  0.93695200  0.15909100  0.34554100  1
  C  153  1  0.94515600  0.10931800  0.32828700  1
  C  154  1  0.99663400  0.24846300  0.37397800  1
  C  155  1  0.99021600  0.18545400  0.39092900  1
  C  156  1  0.91448500  0.15378300  0.39760300  1
  C  157  1  0.90911800  0.10105200  0.41437200  1
  C  158  1  0.98008000  0.07479100  0.42440500  1
  C  159  1  0.05623400  0.09773800  0.41645000  1
  C  160  1  0.06084900  0.15037100  0.39971300  1
  C  161  1  0.06616400  0.30895300  0.37676600  1
  C  162  1  0.92574800  0.30798100  0.37268600  1
  C  163  1  0.88928300  0.34050400  0.39047900  1
  C  164  1  0.82557800  0.39710700  0.38950900  1
  C  165  1  0.79795800  0.42629400  0.37057700  1
  C  166  1  0.83825500  0.40055600  0.35281700  1
  C  167  1  0.90182000  0.34375300  0.35396900  1
  C  168  1  0.10354900  0.34766200  0.35989800  1
  C  169  1  0.16946700  0.40098600  0.36233200  1
  C  170  1  0.19846600  0.42049000  0.38191700  1
  C  171  1  0.15609100  0.39005800  0.39890500  1
  C  172  1  0.09029900  0.33673200  0.39629600  1
  C  189  1  0.72728600  0.47089400  0.36910700  1
  C  190  1  0.03414100  0.04703200  0.30286800  1
  C  193  1  0.97525400  0.03939700  0.44331400  1
  C  195  1  0.27244100  0.45846300  0.38471800  1
  C  197  1  0.04843900  0.01463200  0.22704400  1
  C  198  1  0.09033700  0.07648200  0.23745700  1
  C  199  1  0.07137300  0.09441900  0.25767300  1
  C  200  1  0.01113300  0.04989900  0.26798900  1
  C  201  1  0.96782200  0.98749600  0.25771200  1
  C  204  1  0.98735000  0.96904700  0.23719600  1
  C  213  1  0.98426800  0.04869700  0.73172500  1
  C  214  1  0.92578200  0.09374500  0.74252600  1
  C  215  1  0.90822200  0.07502000  0.76277600  1
  C  216  1  0.94983400  0.01183600  0.77274800  1
  C  217  1  0.00918800  0.96571800  0.76211400  1
  C  220  1  0.02728800  0.98497200  0.74156200  1
  C  229  1  0.03565500  0.98364200  0.01949700  1
  C  230  1  0.95448400  0.96203200  0.01519000  1
  C  231  1  0.92511200  0.96402500  0.99521800  1
  C  232  1  0.97636000  0.98669600  0.97907800  1
  C  233  1  0.05779800  0.01042300  0.98310300  1
  C  236  1  0.08737100  0.00854300  0.00342500  1
  C  245  1  0.00301400  0.08184200  0.52127800  1
  C  246  1  0.99746400  0.00784000  0.51056500  1
  C  247  1  0.99470800  0.00743900  0.48924300  1
  C  248  1  0.99806300  0.08101500  0.47830400  1
  C  249  1  0.00435100  0.15591800  0.48890800  1
  C  252  1  0.00585700  0.15623400  0.51048300  1
  C  261  1  0.46056200  0.58393800  0.12331700  1
  C  262  1  0.38880200  0.54285700  0.11793200  1
  C  263  1  0.38587500  0.45808300  0.11792500  1
  C  264  1  0.45527700  0.41238500  0.12282500  1
  C  265  1  0.52877300  0.45243100  0.12820200  1
  C  268  1  0.53145200  0.53905300  0.12829700  1
  C  277  1  0.41215900  0.44609200  0.62230700  1
  C  278  1  0.45433900  0.37508200  0.61681800  1
  C  279  1  0.53915900  0.37325500  0.61690600  1
  C  280  1  0.58389800  0.44304500  0.62201100  1
  C  281  1  0.54279000  0.51593900  0.62738800  1
  C  284  1  0.45612500  0.51750200  0.62738200  1
  C  293  1  0.54044000  0.58616100  0.87478700  1
  C  294  1  0.61314000  0.54641500  0.88001800  1
  C  295  1  0.61759600  0.46170200  0.88006800  1
  C  296  1  0.54883700  0.41476000  0.87534500  1
  C  297  1  0.47447300  0.45342100  0.87009300  1
  C  300  1  0.47022300  0.53997700  0.86995600  1
  C  309  1  0.58372400  0.44673900  0.37674200  1
  C  310  1  0.54176500  0.37535100  0.38201900  1
  C  311  1  0.45697000  0.37297000  0.38167400  1
  C  312  1  0.41200600  0.44254500  0.37650800  1
  C  313  1  0.45289600  0.51576500  0.37129600  1
  C  316  1  0.53954400  0.51789200  0.37156400  1
  H  26  1  0.43493200  0.79566400  0.09647300  1
  H  27  1  0.34069500  0.90391000  0.09336900  1
  H  28  1  0.43338700  0.82345200  0.16022700  1
  H  29  1  0.33962900  0.93233200  0.15706400  1
  H  30  1  0.33950400  0.08738100  0.15208800  1
  H  31  1  0.42712200  0.20078700  0.14867600  1
  H  32  1  0.42210800  0.17379900  0.08490300  1
  H  33  1  0.33588400  0.05934700  0.08841000  1
  H  34  1  0.18568100  0.10889900  0.09863700  1
  H  35  1  0.09685300  0.09137600  0.07058600  1
  H  36  1  0.09918000  0.83778000  0.08004800  1
  H  37  1  0.18868700  0.85546800  0.10801300  1
  H  38  1  0.19011200  0.87851000  0.14765800  1
  H  39  1  0.18533600  0.13135500  0.13745700  1
  H  40  1  0.09871800  0.14837900  0.16582300  1
  H  41  1  0.10350900  0.89534500  0.17624500  1
  H  44  1  0.50588900  0.28314200  0.10196500  1
  H  45  1  0.53308000  0.72442000  0.14015600  1
  H  47  1  0.99759600  0.91275000  0.05569600  1
  H  49  1  0.01539800  0.08518800  0.19312800  1
  H  75  1  0.19629100  0.41621900  0.59700500  1
  H  76  1  0.08607900  0.32355700  0.59509400  1
  H  77  1  0.17752100  0.41724600  0.66095400  1
  H  78  1  0.06707200  0.32506100  0.65899000  1
  H  79  1  0.91132000  0.33974900  0.65336300  1
  H  80  1  0.79905400  0.42832000  0.64868700  1
  H  81  1  0.81861200  0.39906600  0.58515700  1
  H  82  1  0.93122700  0.31158600  0.58987000  1
  H  83  1  0.87799600  0.16449900  0.60523400  1
  H  84  1  0.88641200  0.07704200  0.57668500  1
  H  85  1  0.14240300  0.08794300  0.57931300  1
  H  86  1  0.13386600  0.17502800  0.60807000  1
  H  87  1  0.11272300  0.17015000  0.64897500  1
  H  88  1  0.85809200  0.18688400  0.64330400  1
  H  89  1  0.84190100  0.10574000  0.67265600  1
  H  90  1  0.09671700  0.08872000  0.67858400  1
  H  93  1  0.71384000  0.49417200  0.60150300  1
  H  94  1  0.27319900  0.51533400  0.64020000  1
  H  96  1  0.04307800  0.98431200  0.55444600  1
  H  98  1  0.90622100  0.01714600  0.69891000  1
  H  124  1  0.55556400  0.80136000  0.90196200  1
  H  125  1  0.65102500  0.90840100  0.90555100  1
  H  126  1  0.57131400  0.82159800  0.83815600  1
  H  127  1  0.66617600  0.92920000  0.84178800  1
  H  128  1  0.65982200  0.08458400  0.84763900  1
  H  129  1  0.57544400  0.20048700  0.85100100  1
  H  130  1  0.58842400  0.17995500  0.91485900  1
  H  131  1  0.67118200  0.06308900  0.91141800  1
  H  132  1  0.82396600  0.10370400  0.89976400  1
  H  133  1  0.90981800  0.08400400  0.92823000  1
  H  134  1  0.88575700  0.83000500  0.92169500  1
  H  135  1  0.80075200  0.85006400  0.89306000  1
  H  136  1  0.81386200  0.87574200  0.85304300  1
  H  137  1  0.81463400  0.12973400  0.86137400  1
  H  138  1  0.90222800  0.14469000  0.83315100  1
  H  139  1  0.90144600  0.89056100  0.82450900  1
  H  142  1  0.50582800  0.28966400  0.89805300  1
  H  143  1  0.46506800  0.72597000  0.85814500  1
  H  145  1  0.97871700  0.89037000  0.94769800  1
  H  147  1  0.98988400  0.07769800  0.80684400  1
  H  173  1  0.79809000  0.41513400  0.40270900  1
  H  174  1  0.90745100  0.32149300  0.40452800  1
  H  175  1  0.81984700  0.42056800  0.33883000  1
  H  176  1  0.92945200  0.32731000  0.34070800  1
  H  177  1  0.08563100  0.33423100  0.34543200  1
  H  178  1  0.19833800  0.42255400  0.34966200  1
  H  179  1  0.17525400  0.40287500  0.41335000  1
  H  180  1  0.06228500  0.31546700  0.40907100  1
  H  181  1  0.11733200  0.16725500  0.39487800  1
  H  182  1  0.10888600  0.07999500  0.42344400  1
  H  183  1  0.85294500  0.08576900  0.41984100  1
  H  184  1  0.86152400  0.17274500  0.39106300  1
  H  185  1  0.87955400  0.17339500  0.35023500  1
  H  186  1  0.13435100  0.18088800  0.35666500  1
  H  187  1  0.14892500  0.09796900  0.32755000  1
  H  188  1  0.89396800  0.09049500  0.32082600  1
  H  191  1  0.28157900  0.49407700  0.39670800  1
  H  192  1  0.72327800  0.51676800  0.35939400  1
  H  194  1  0.94558600  0.98758600  0.44541700  1
  H  196  1  0.08157400  0.00988400  0.30136400  1
  H  202  1  0.10250400  0.13987200  0.26488800  1
  H  203  1  0.13524000  0.10888900  0.23038200  1
  H  218  1  0.86457600  0.10788700  0.77020200  1
  H  219  1  0.89491500  0.14017800  0.73563900  1
  H  234  1  0.86565000  0.94928600  0.99255100  1
  H  235  1  0.91542800  0.94630400  0.02659100  1
  H  250  1  0.99088800  0.95314400  0.48177200  1
  H  251  1  0.99421000  0.95389800  0.51821000  1
  H  266  1  0.33199800  0.43003800  0.11452700  1
  H  267  1  0.33679000  0.57429700  0.11455200  1
  H  282  1  0.56795400  0.31975500  0.61352900  1
  H  283  1  0.42367500  0.32263300  0.61341500  1
  H  298  1  0.67200200  0.43460500  0.88341400  1
  H  299  1  0.66464200  0.57882100  0.88331300  1
  H  314  1  0.42837700  0.31927400  0.38496200  1
  H  315  1  0.57261200  0.32310100  0.38550600  1
  N  205  1  0.90553900  0.94185200  0.26719800  1
  N  206  1  0.94422600  0.90528200  0.22759200  1
  N  211  1  0.07251000  0.99866200  0.20827100  1
  N  212  1  0.99595400  0.07154500  0.28698500  1
  N  221  1  0.05185500  0.90056600  0.77125400  1
  N  222  1  0.08776500  0.93864400  0.73156600  1
  N  227  1  0.99841600  0.07089700  0.71270900  1
  N  228  1  0.92689400  0.99548500  0.79158800  1
  N  237  1  0.11134200  0.03738300  0.96767200  1
  N  238  1  0.16810300  0.03084600  0.00852200  1
  N  243  1  0.06499300  0.98470400  0.03832600  1
  N  244  1  0.94309200  0.99234200  0.96083500  1
  N  253  1  0.00825500  0.23205500  0.47883900  1
  N  254  1  0.01082200  0.22910000  0.52196200  1
  N  259  1  0.00270800  0.08587900  0.54135600  1
  N  260  1  0.99740400  0.08410600  0.45824700  1
  N  269  1  0.59968400  0.40985800  0.13407600  1
  N  270  1  0.60276900  0.58307600  0.13305200  1
  N  275  1  0.45213200  0.66366100  0.12372200  1
  N  276  1  0.44244700  0.33352800  0.12414900  1
  N  285  1  0.58440300  0.58724300  0.63340100  1
  N  286  1  0.41122800  0.58824400  0.63217300  1
  N  291  1  0.33255200  0.43600800  0.62300100  1
  N  292  1  0.66282200  0.43102400  0.62365100  1
  N  301  1  0.40410900  0.40937000  0.86448900  1
  N  302  1  0.39797000  0.58268800  0.86534200  1
  N  307  1  0.54723400  0.66604600  0.87446300  1
  N  308  1  0.56239700  0.33594400  0.87424800  1
  N  317  1  0.41115100  0.58687700  0.36520100  1
  N  318  1  0.58422700  0.58898100  0.36696900  1
  N  323  1  0.66344400  0.43734000  0.37639600  1
  N  324  1  0.33315600  0.43009100  0.37481000  1
  O  207  1  0.84799800  0.98630000  0.27297700  1
  O  208  1  0.90452200  0.93026500  0.21255300  1
  O  209  1  0.93178800  0.90209200  0.28208800  1
  O  210  1  0.99077200  0.84915800  0.22198000  1
  O  223  1  0.00468900  0.84508600  0.77694400  1
  O  224  1  0.05941400  0.90055400  0.71664100  1
  O  225  1  0.09342900  0.92390000  0.78614100  1
  O  226  1  0.14575800  0.98226400  0.72567400  1
  O  239  1  0.08482400  0.09885800  0.95852800  1
  O  240  1  0.21962500  0.98565800  0.00014000  1
  O  241  1  0.12687500  0.98248200  0.95503200  1
  O  242  1  0.18307700  0.10364800  0.00422100  1
  O  255  1  0.07000100  0.23793300  0.46772400  1
  O  256  1  0.07515000  0.26767500  0.51847500  1
  O  257  1  0.94580100  0.24584500  0.46843000  1
  O  258  1  0.95071000  0.27461400  0.51905500  1
  O  271  1  0.58788500  0.36461800  0.14914800  1
  O  272  1  0.62685900  0.56954000  0.15083100  1
  O  273  1  0.62890800  0.36898400  0.11975200  1
  O  274  1  0.65926800  0.56844300  0.12076800  1
  O  287  1  0.62916000  0.57578600  0.64857900  1
  O  288  1  0.42422800  0.61221800  0.64998600  1
  O  289  1  0.62560200  0.61692100  0.61919200  1
  O  290  1  0.42538200  0.64511000  0.61995900  1
  O  303  1  0.41610400  0.36433900  0.84938700  1
  O  304  1  0.37349400  0.56851000  0.84762800  1
  O  305  1  0.37678700  0.36775200  0.87891600  1
  O  306  1  0.34218800  0.56712500  0.87776000  1
  O  319  1  0.36695900  0.57524900  0.34992700  1
  O  320  1  0.57197500  0.61308200  0.34913300  1
  O  321  1  0.36939800  0.61643400  0.37932100  1
  O  322  1  0.56909600  0.64561000  0.37917900  1
