# generated using pymatgen
data_ErH14C20N5O7
_symmetry_space_group_name_H-M   'P 1'
_cell_length_a   9.85095000
_cell_length_b   11.85782000
_cell_length_c   11.87535000
_cell_angle_alpha   65.25534000
_cell_angle_beta   71.30748000
_cell_angle_gamma   71.39407000
_symmetry_Int_Tables_number   1
_chemical_formula_structural   ErH14C20N5O7
_chemical_formula_sum   'Er2 H28 C40 N10 O14'
_cell_volume   1165.45830031
_cell_formula_units_Z   2
loop_
 _symmetry_equiv_pos_site_id
 _symmetry_equiv_pos_as_xyz
  1  'x, y, z'
loop_
 _atom_site_type_symbol
 _atom_site_label
 _atom_site_symmetry_multiplicity
 _atom_site_fract_x
 _atom_site_fract_y
 _atom_site_fract_z
 _atom_site_occupancy
  Er  Er1  1  0.24658000  0.06305000  0.94074000  1.0
  Er  Er2  1  0.75061000  0.93773000  0.05990000  1.0
  H  H1  1  0.09915000  0.72609000  0.11199000  1.0
  H  H2  1  0.17604000  0.34002000  0.07268000  1.0
  H  H3  1  0.30041000  0.57128000  0.20749000  1.0
  H  H4  1  0.55221000  0.43882000  0.19295000  1.0
  H  H5  1  0.61272000  0.24809000  0.13044000  1.0
  H  H6  1  0.92226000  0.40602000  0.20917000  1.0
  H  H7  1  0.70743000  0.62229000  0.20722000  1.0
  H  H8  1  0.40085000  0.89057000  0.27433000  1.0
  H  H9  1  0.32531000  0.92855000  0.66086000  1.0
  H  H10  1  0.20184000  0.79422000  0.42890000  1.0
  H  H11  1  0.94994000  0.80784000  0.56128000  1.0
  H  H12  1  0.88870000  0.86931000  0.75226000  1.0
  H  H13  1  0.58085000  0.79049000  0.59259000  1.0
  H  H14  1  0.79425000  0.79093000  0.37572000  1.0
  H  H15  1  0.89865000  0.27508000  0.88919000  1.0
  H  H16  1  0.82173000  0.66181000  0.92777000  1.0
  H  H17  1  0.69827000  0.43011000  0.79274000  1.0
  H  H18  1  0.44638000  0.56237000  0.80703000  1.0
  H  H19  1  0.38524000  0.75276000  0.87008000  1.0
  H  H20  1  0.07656000  0.59486000  0.79077000  1.0
  H  H21  1  0.29081000  0.37842000  0.79232000  1.0
  H  H22  1  0.59697000  0.10993000  0.72718000  1.0
  H  H23  1  0.67285000  0.07077000  0.34104000  1.0
  H  H24  1  0.79680000  0.20524000  0.57280000  1.0
  H  H25  1  0.04838000  0.19203000  0.43980000  1.0
  H  H26  1  0.10901000  0.13097000  0.24873000  1.0
  H  H27  1  0.41797000  0.20935000  0.40861000  1.0
  H  H28  1  0.20388000  0.20929000  0.62498000  1.0
  C  C1  1  0.43370000  0.17122000  0.05842000  1.0
  C  C2  1  0.39711000  0.28260000  0.09949000  1.0
  C  C3  1  0.25620000  0.36057000  0.10252000  1.0
  C  C4  1  0.21906000  0.46440000  0.14286000  1.0
  C  C5  1  0.32773000  0.49197000  0.17478000  1.0
  C  C6  1  0.46923000  0.41582000  0.16870000  1.0
  C  C7  1  0.50391000  0.30980000  0.13354000  1.0
  C  C8  1  0.06801000  0.53878000  0.15415000  1.0
  C  C9  1  0.93546000  0.50095000  0.18620000  1.0
  C  C10  1  0.82539000  0.60997000  0.18746000  1.0
  C  C11  1  0.06741000  0.93954000  0.83103000  1.0
  C  C12  1  0.10444000  0.90085000  0.71813000  1.0
  C  C13  1  0.24542000  0.89873000  0.63990000  1.0
  C  C14  1  0.28282000  0.85882000  0.53577000  1.0
  C  C15  1  0.17422000  0.82682000  0.50822000  1.0
  C  C16  1  0.03264000  0.83237000  0.58434000  1.0
  C  C17  1  0.99770000  0.86692000  0.69063000  1.0
  C  C18  1  0.43375000  0.84733000  0.46089000  1.0
  C  C19  1  0.56686000  0.81390000  0.49799000  1.0
  C  C20  1  0.67620000  0.81182000  0.38872000  1.0
  C  C21  1  0.56288000  0.83037000  0.94175000  1.0
  C  C22  1  0.60067000  0.71858000  0.90111000  1.0
  C  C23  1  0.74181000  0.64091000  0.89796000  1.0
  C  C24  1  0.77929000  0.53706000  0.85749000  1.0
  C  C25  1  0.67074000  0.50938000  0.82552000  1.0
  C  C26  1  0.52913000  0.58528000  0.83163000  1.0
  C  C27  1  0.49409000  0.69114000  0.86705000  1.0
  C  C28  1  0.93028000  0.46250000  0.84611000  1.0
  C  C29  1  0.06305000  0.50005000  0.81374000  1.0
  C  C30  1  0.17283000  0.39089000  0.81238000  1.0
  C  C31  1  0.93054000  0.06050000  0.17032000  1.0
  C  C32  1  0.89355000  0.09888000  0.28341000  1.0
  C  C33  1  0.75276000  0.10070000  0.36188000  1.0
  C  C34  1  0.71549000  0.14064000  0.46601000  1.0
  C  C35  1  0.82412000  0.17278000  0.49342000  1.0
  C  C36  1  0.96554000  0.16743000  0.41703000  1.0
  C  C37  1  0.00025000  0.13302000  0.31069000  1.0
  C  C38  1  0.56450000  0.15229000  0.54078000  1.0
  C  C39  1  0.43160000  0.18585000  0.50335000  1.0
  C  C40  1  0.32193000  0.18817000  0.61237000  1.0
  N  N1  1  0.88381000  0.71061000  0.15643000  1.0
  N  N2  1  0.03111000  0.66478000  0.13760000  1.0
  N  N3  1  0.61700000  0.84380000  0.28859000  1.0
  N  N4  1  0.46975000  0.86403000  0.33497000  1.0
  N  N5  1  0.11406000  0.29039000  0.84369000  1.0
  N  N6  1  0.96682000  0.33646000  0.86280000  1.0
  N  N7  1  0.38078000  0.15632000  0.71267000  1.0
  N  N8  1  0.52813000  0.13579000  0.66666667  1.0
  N  N9  1  0.24838000  0.83166000  0.17197000  1.0
  N  N10  1  0.75121000  0.16949000  0.82896000  1.0
  O  O1  1  0.35351000  0.17167000  0.99252000  1.0
  O  O2  1  0.54234000  0.08221000  0.09163000  1.0
  O  O3  1  0.19752000  0.84545000  0.07887000  1.0
  O  O4  1  0.14515000  0.00645000  0.83230000  1.0
  O  O5  1  0.96010000  0.90252000  0.92005000  1.0
  O  O6  1  0.29414000  0.92705000  0.15993000  1.0
  O  O7  1  0.64196000  0.83094000  0.00806000  1.0
  O  O8  1  0.45406000  0.91871000  0.90799000  1.0
  O  O9  1  0.80009000  0.15555000  0.92327000  1.0
  O  O10  1  0.85332000  0.99278000  0.16964000  1.0
  O  O11  1  0.03710000  0.09843000  0.08083000  1.0
  O  O12  1  0.70580000  0.07423000  0.84011000  1.0
  O  O13  1  0.25330000  0.73299000  0.26697000  1.0
  O  O14  1  0.74794000  0.26795000  0.73375000  1.0
