# generated using pymatgen
data_H7C20(NO2)4
_symmetry_space_group_name_H-M   'P 1'
_cell_length_a   23.54414557
_cell_length_b   24.00160000
_cell_length_c   37.86980000
_cell_angle_alpha   91.39160000
_cell_angle_beta   90.00000000
_cell_angle_gamma   119.37150000
_symmetry_Int_Tables_number   1
_chemical_formula_structural   H7C20(NO2)4
_chemical_formula_sum   'H56 C160 N32 O64'
_cell_volume   18642.05735057
_cell_formula_units_Z   8
loop_
 _symmetry_equiv_pos_site_id
 _symmetry_equiv_pos_as_xyz
  1  'x, y, z'
loop_
 _atom_site_type_symbol
 _atom_site_label
 _atom_site_symmetry_multiplicity
 _atom_site_fract_x
 _atom_site_fract_y
 _atom_site_fract_z
 _atom_site_occupancy
  C  1  1  0.17928150  0.67025950  0.95132000  1
  C  2  1  0.14890900  0.63293300  0.98123100  1
  C  3  1  0.11386150  0.65160150  0.00456700  1
  C  4  1  0.12147250  0.71336150  0.00191500  1
  C  5  1  0.15534500  0.75405700  0.97383800  1
  C  6  1  0.17641350  0.72744150  0.94602000  1
  C  7  1  0.15516100  0.57838700  0.98730100  1
  C  8  1  0.19486100  0.75579500  0.91267500  1
  C  10  1  0.21215600  0.65018500  0.92677500  1
  C  11  1  0.22309800  0.59834300  0.93485400  1
  C  12  1  0.26300050  0.58412650  0.91234000  1
  C  13  1  0.28502150  0.61691050  0.88053400  1
  C  14  1  0.27071600  0.66511800  0.87111300  1
  C  15  1  0.23608850  0.68372850  0.89483300  1
  C  16  1  0.19454600  0.56360800  0.96562800  1
  C  18  1  0.22362000  0.73419800  0.88746700  1
  C  23  1  0.80781150  0.31319550  0.45437200  1
  C  24  1  0.83700250  0.35038450  0.48562800  1
  C  25  1  0.87226100  0.33229800  0.50856300  1
  C  26  1  0.86568300  0.27096200  0.50407500  1
  C  27  1  0.83255600  0.23016100  0.47462000  1
  C  28  1  0.81179650  0.25658950  0.44736400  1
  C  29  1  0.82958500  0.40426900  0.49334900  1
  C  30  1  0.79465050  0.22863850  0.41299600  1
  C  32  1  0.77504450  0.33291050  0.43019000  1
  C  33  1  0.76258650  0.38379250  0.43986100  1
  C  34  1  0.72258150  0.39738050  0.41750500  1
  C  35  1  0.70238200  0.36535000  0.38439500  1
  C  36  1  0.71861650  0.31848650  0.37345300  1
  C  37  1  0.75296100  0.30008700  0.39689700  1
  C  38  1  0.78989700  0.41832100  0.47191200  1
  C  40  1  0.76649450  0.25028150  0.38808800  1
  C  45  1  0.49561400  0.30312400  0.05432000  1
  C  46  1  0.50193950  0.34098650  0.02474900  1
  C  47  1  0.44795000  0.32214100  0.00161900  1
  C  48  1  0.39432850  0.26006250  0.00397800  1
  C  49  1  0.38809100  0.21903400  0.03175500  1
  C  50  1  0.43591900  0.24548600  0.05951900  1
  C  51  1  0.56246000  0.39586700  0.01868900  1
  C  52  1  0.42664400  0.21646900  0.09264000  1
  C  54  1  0.54893800  0.32303100  0.07857800  1
  C  55  1  0.61160650  0.37495850  0.07032800  1
  C  56  1  0.66619900  0.38863200  0.09234900  1
  C  57  1  0.65575600  0.35554300  0.12402500  1
  C  58  1  0.59345200  0.30717200  0.13362800  1
  C  59  1  0.53980600  0.28910300  0.11033400  1
  C  60  1  0.61711400  0.41011000  0.03982800  1
  C  62  1  0.47723350  0.23808050  0.11771700  1
  C  67  1  0.49028650  0.69131550  0.55490800  1
  C  68  1  0.48137300  0.64838600  0.52623000  1
  C  69  1  0.53318650  0.66293750  0.50264300  1
  C  70  1  0.58714650  0.72525150  0.50368400  1
  C  71  1  0.59592450  0.77097550  0.53054100  1
  C  72  1  0.55044650  0.74964650  0.55878900  1
  C  73  1  0.42033650  0.59262750  0.52142500  1
  C  74  1  0.56259800  0.78456700  0.59112800  1
  C  76  1  0.43918700  0.67570000  0.57963400  1
  C  77  1  0.37592500  0.62222800  0.57271800  1
  C  78  1  0.32343950  0.61198950  0.59524900  1
  C  79  1  0.33673900  0.65070600  0.62605800  1
  C  80  1  0.39974000  0.70112500  0.63442200  1
  C  81  1  0.45115400  0.71506000  0.61060200  1
  C  82  1  0.36770750  0.58184750  0.54303900  1
  C  84  1  0.51424650  0.76750550  0.61663800  1
  C  89  1  0.29439150  0.69383250  0.83824600  1
  C  90  1  0.35427350  0.75105650  0.83608000  1
  C  91  1  0.38338200  0.77373600  0.80300100  1
  C  92  1  0.35110700  0.73838400  0.77180400  1
  C  93  1  0.28989900  0.68139600  0.77374100  1
  C  94  1  0.26208650  0.65998150  0.80707700  1
  C  96  1  0.38387650  0.75184150  0.73899900  1
  C  97  1  0.42225650  0.72237650  0.73133100  1
  C  98  1  0.43435900  0.71316700  0.69575300  1
  C  99  1  0.40798550  0.73177150  0.66800000  1
  C  100  1  0.37469850  0.76580950  0.67602500  1
  C  101  1  0.36204550  0.77597150  0.71139400  1
  C  117  1  0.69911700  0.29271100  0.33880000  1
  C  118  1  0.63586900  0.24152100  0.33196600  1
  C  119  1  0.61029550  0.22618950  0.29710600  1
  C  120  1  0.64929400  0.26303900  0.26889600  1
  C  121  1  0.71431800  0.31329200  0.27554500  1
  C  122  1  0.73846750  0.32695150  0.31048100  1
  C  124  1  0.61946150  0.25943050  0.23574600  1
  C  125  1  0.58987800  0.29810200  0.23102500  1
  C  126  1  0.57480400  0.30800300  0.19648600  1
  C  127  1  0.58898750  0.28027750  0.16701800  1
  C  128  1  0.61319000  0.23772200  0.17222200  1
  C  129  1  0.62824650  0.22643050  0.20653700  1
  C  145  1  0.34046700  0.15180600  0.02818100  1
  C  146  1  0.35702100  0.10511400  0.03831700  1
  C  147  1  0.31642250  0.03917550  0.03113400  1
  C  148  1  0.26017800  0.01874800  0.00940100  1
  C  149  1  0.24139800  0.06388200  0.99908400  1
  C  150  1  0.28025300  0.12891200  0.00985600  1
  C  152  1  0.22780950  0.95453250  0.99556200  1
  C  153  1  0.16430500  0.90944200  0.00648000  1
  C  154  1  0.13792050  0.84430550  0.99589000  1
  C  155  1  0.17479900  0.82129400  0.97721300  1
  C  156  1  0.23759900  0.86796200  0.96643200  1
  C  157  1  0.26296300  0.93396400  0.97338800  1
  C  173  1  0.43510500  0.36798900  0.98592200  1
  C  174  1  0.40870750  0.39774350  0.00779800  1
  C  175  1  0.38132100  0.43303900  0.99369000  1
  C  176  1  0.38162700  0.44019100  0.95642900  1
  C  177  1  0.40999000  0.41193800  0.93408200  1
  C  178  1  0.43505600  0.37499600  0.94911800  1
  C  180  1  0.35266600  0.47486500  0.94221600  1
  C  181  1  0.38996200  0.54247500  0.94061900  1
  C  182  1  0.35872300  0.57730200  0.93084500  1
  C  183  1  0.29149700  0.54648500  0.92248700  1
  C  184  1  0.25563600  0.47920100  0.92273100  1
  C  185  1  0.28524150  0.44289250  0.93292400  1
  C  201  1  0.73240200  0.42664200  0.08223200  1
  C  202  1  0.76321700  0.49384600  0.08091100  1
  C  203  1  0.82947150  0.53029150  0.07129500  1
  C  204  1  0.86611550  0.49877050  0.06413100  1
  C  205  1  0.83633250  0.43137450  0.06655100  1
  C  206  1  0.76986850  0.39629350  0.07548000  1
  C  208  1  0.93031650  0.53333150  0.05051100  1
  C  209  1  0.98467200  0.57147600  0.07306000  1
  C  210  1  0.04708150  0.60824250  0.05813500  1
  C  211  1  0.05641800  0.60590600  0.02146300  1
  C  212  1  0.00198950  0.56676650  0.99958600  1
  C  213  1  0.93898300  0.53086500  0.01353000  1
  C  229  1  0.64360750  0.83728050  0.52558000  1
  C  230  1  0.62799000  0.88580300  0.53435100  1
  C  231  1  0.66915600  0.95055900  0.52656800  1
  C  232  1  0.72491850  0.96733650  0.50555900  1
  C  233  1  0.74237400  0.92014600  0.49630000  1
  C  234  1  0.70295550  0.85670450  0.50759600  1
  C  236  1  0.75884800  0.03023800  0.49193600  1
  C  237  1  0.82221950  0.07536250  0.50439700  1
  C  238  1  0.84944250  0.14014450  0.49489000  1
  C  239  1  0.81326400  0.16295100  0.47603600  1
  C  240  1  0.75090750  0.11608250  0.46331700  1
  C  241  1  0.72489300  0.05025100  0.46912300  1
  C  257  1  0.54482350  0.61457250  0.48789700  1
  C  258  1  0.56939700  0.58569900  0.51079500  1
  C  259  1  0.59718300  0.54921400  0.49781400  1
  C  260  1  0.59893700  0.53969400  0.46062500  1
  C  261  1  0.57192750  0.56657150  0.43719900  1
  C  262  1  0.54652100  0.60482000  0.45117000  1
  C  264  1  0.62952100  0.50502600  0.44749600  1
  C  265  1  0.59317750  0.43729250  0.44447600  1
  C  266  1  0.62563050  0.40295450  0.43500100  1
  C  267  1  0.69315250  0.43437850  0.42835400  1
  C  268  1  0.72822550  0.50170450  0.43026900  1
  C  269  1  0.69736400  0.53754800  0.44016800  1
  C  285  1  0.25633650  0.57123550  0.58647600  1
  C  286  1  0.22676600  0.50399400  0.58652300  1
  C  287  1  0.15997900  0.46485800  0.57746200  1
  C  288  1  0.12159900  0.49387800  0.56951600  1
  C  289  1  0.15008900  0.56145000  0.57081100  1
  C  290  1  0.21707050  0.59914050  0.57922400  1
  C  292  1  0.05722350  0.45621050  0.55548100  1
  C  293  1  0.00341250  0.42076750  0.57776400  1
  C  294  1  0.94071500  0.38162200  0.56244700  1
  C  295  1  0.93070150  0.37903750  0.52560100  1
  C  296  1  0.98461050  0.41531550  0.50396100  1
  C  297  1  0.04784250  0.45336350  0.51832400  1
  H  9  1  0.10061450  0.72808650  0.02099300  1
  H  17  1  0.31350700  0.60638800  0.86416800  1
  H  19  1  0.20023000  0.52558800  0.97221300  1
  H  20  1  0.13528350  0.55174250  0.00920300  1
  H  21  1  0.23797950  0.75803850  0.86430100  1
  H  22  1  0.18811400  0.79336500  0.90636800  1
  H  31  1  0.88669550  0.25673550  0.52287300  1
  H  39  1  0.67457800  0.37607300  0.36792900  1
  H  41  1  0.78307550  0.45567550  0.47965300  1
  H  42  1  0.84848500  0.43064000  0.51625500  1
  H  43  1  0.75276600  0.22657600  0.36412200  1
  H  44  1  0.80204050  0.19140450  0.40567000  1
  H  53  1  0.35864750  0.24552250  0.98496000  1
  H  61  1  0.69490400  0.36652400  0.14039000  1
  H  63  1  0.66070250  0.44802850  0.03303900  1
  H  64  1  0.56884450  0.42262050  0.99688300  1
  H  65  1  0.46849100  0.21342300  0.14056200  1
  H  66  1  0.38265400  0.17835800  0.09886400  1
  H  75  1  0.62131050  0.73651550  0.48444700  1
  H  83  1  0.29922850  0.64170950  0.64297000  1
  H  85  1  0.32359800  0.54275300  0.53715600  1
  H  86  1  0.41207550  0.56198350  0.50032900  1
  H  87  1  0.52501700  0.79626000  0.63882000  1
  H  88  1  0.60708600  0.82371900  0.59644800  1
  H  95  1  0.21944250  0.61746750  0.80856000  1
  H  102  1  0.45634100  0.68625200  0.69023200  1
  H  103  1  0.35366650  0.77769250  0.65602800  1
  H  104  1  0.37880250  0.77474550  0.85876000  1
  H  123  1  0.78360150  0.36563450  0.31559500  1
  H  130  1  0.55902200  0.34039400  0.19284300  1
  H  131  1  0.62452450  0.21833950  0.15080600  1
  H  132  1  0.60636000  0.21803100  0.35261000  1
  H  151  1  0.26546100  0.16037900  0.00220300  1
  H  158  1  0.09195650  0.81287550  0.00396700  1
  H  159  1  0.26777300  0.85439600  0.95426500  1
  H  160  1  0.40104100  0.11866500  0.05014900  1
  H  179  1  0.45244500  0.35197000  0.93303700  1
  H  186  1  0.38568500  0.62616200  0.93022400  1
  H  187  1  0.20711800  0.45621900  0.91605300  1
  H  188  1  0.40584050  0.39053550  0.03448900  1
  H  207  1  0.74857300  0.34756000  0.07685100  1
  H  214  1  0.08569600  0.63820900  0.07412400  1
  H  215  1  0.00709850  0.56707850  0.97269700  1
  H  216  1  0.73701550  0.51664650  0.08633900  1
  H  235  1  0.71680800  0.82367100  0.50082500  1
  H  242  1  0.89511050  0.17163750  0.50428900  1
  H  243  1  0.72119750  0.12943450  0.45084500  1
  H  244  1  0.58453150  0.87440450  0.54587900  1
  H  263  1  0.53047950  0.62714350  0.43436900  1
  H  270  1  0.59925050  0.35404350  0.43306200  1
  H  271  1  0.77694000  0.52510300  0.42475600  1
  H  272  1  0.57125650  0.59496550  0.53749200  1
  H  291  1  0.23749250  0.64793650  0.57955700  1
  H  298  1  0.90240150  0.35387250  0.57830000  1
  H  299  1  0.97884950  0.41148950  0.47701900  1
  H  300  1  0.25434250  0.48304350  0.59230800  1
  N  105  1  0.32350050  0.80490350  0.71955200  1
  N  106  1  0.44223850  0.69676950  0.75901000  1
  N  107  1  0.44504250  0.82940950  0.80051300  1
  N  108  1  0.25918050  0.64441550  0.74266100  1
  N  133  1  0.65387800  0.18480300  0.21212200  1
  N  134  1  0.58013000  0.32990500  0.26053000  1
  N  135  1  0.54539200  0.17724200  0.29017200  1
  N  136  1  0.75743700  0.35535700  0.25023000  1
  N  161  1  0.32316600  0.97931500  0.95870700  1
  N  162  1  0.12958150  0.92947850  0.02923500  1
  N  163  1  0.33179450  0.99375150  0.04520900  1
  N  164  1  0.18615500  0.04401900  0.97673200  1
  N  189  1  0.24834950  0.37529250  0.93435500  1
  N  190  1  0.45758650  0.57427750  0.94898000  1
  N  191  1  0.35324150  0.45644850  0.01899800  1
  N  192  1  0.41461650  0.41674050  0.89689300  1
  N  217  1  0.88430800  0.49518000  0.99082700  1
  N  218  1  0.97520650  0.57313150  0.10992200  1
  N  219  1  0.85940900  0.59748200  0.06805100  1
  N  220  1  0.87334650  0.40021250  0.06000200  1
  N  245  1  0.66489300  0.00453900  0.45301400  1
  N  246  1  0.85583000  0.05587800  0.52771500  1
  N  247  1  0.65502100  0.99838900  0.53959200  1
  N  248  1  0.79710100  0.93639400  0.47464900  1
  N  273  1  0.73336300  0.60526800  0.44308400  1
  N  274  1  0.52521250  0.40491250  0.45094000  1
  N  275  1  0.62369150  0.52724950  0.52413500  1
  N  276  1  0.56921500  0.55933800  0.39991700  1
  N  301  1  0.10198200  0.48621900  0.49592000  1
  N  302  1  0.01371500  0.42437500  0.61478400  1
  N  303  1  0.13121350  0.39735850  0.57541800  1
  N  304  1  0.11136250  0.59017650  0.56343000  1
  O  109  1  0.35017500  0.86142000  0.70921500  1
  O  110  1  0.20321600  0.63755500  0.73812500  1
  O  111  1  0.48853750  0.82370250  0.81657900  1
  O  112  1  0.41674800  0.63697500  0.75602100  1
  O  113  1  0.26752950  0.77445550  0.70577300  1
  O  114  1  0.25486500  0.59014000  0.74320500  1
  O  115  1  0.44369550  0.87774050  0.81295900  1
  O  116  1  0.50314150  0.72081650  0.76012700  1
  O  137  1  0.61286700  0.12838500  0.20310300  1
  O  138  1  0.73701600  0.38890800  0.23591000  1
  O  139  1  0.50481200  0.18838000  0.30584800  1
  O  140  1  0.61213000  0.38970000  0.25834800  1
  O  141  1  0.70504350  0.20042650  0.19503300  1
  O  142  1  0.77207700  0.32688000  0.22687300  1
  O  143  1  0.53705050  0.12383750  0.29938900  1
  O  144  1  0.52091400  0.31343000  0.26389300  1
  O  165  1  0.36902500  0.96844900  0.96551000  1
  O  166  1  0.14482400  0.05627200  0.99052200  1
  O  167  1  0.38840850  0.00488250  0.03786800  1
  O  168  1  0.07554600  0.91700000  0.01597100  1
  O  169  1  0.31793400  0.97956200  0.92570700  1
  O  170  1  0.20194000  0.07062900  0.94743000  1
  O  171  1  0.32704200  0.99303000  0.07825300  1
  O  172  1  0.11976050  0.90321450  0.05860200  1
  O  193  1  0.20241000  0.35781400  0.95582500  1
  O  194  1  0.44826650  0.47356950  0.88761200  1
  O  195  1  0.29293700  0.43324800  0.01464200  1
  O  196  1  0.49094300  0.60367800  0.92292300  1
  O  197  1  0.22450800  0.35039800  0.90461400  1
  O  198  1  0.35993100  0.39228100  0.88176600  1
  O  199  1  0.38000800  0.51627300  0.02041400  1
  O  200  1  0.47170950  0.61387650  0.97430100  1
  O  221  1  0.89002750  0.45355050  0.97285050  1
  O  222  1  0.87669150  0.37233950  0.08693400  1
  O  223  1  0.85883150  0.62463350  0.09673200  1
  O  224  1  0.99147000  0.62870800  0.12118000  1
  O  225  1  0.87593850  0.53082150  0.97019000  1
  O  226  1  0.84965850  0.35988650  0.03487500  1
  O  227  1  0.83169550  0.61223350  0.04464600  1
  O  228  1  0.00736550  0.55302950  0.12660400  1
  O  249  1  0.61916950  0.01611050  0.45911100  1
  O  250  1  0.83811700  0.92519300  0.48941100  1
  O  251  1  0.59853700  0.98711400  0.53144500  1
  O  252  1  0.91002750  0.06715650  0.51560000  1
  O  253  1  0.67087050  0.00283150  0.42010700  1
  O  254  1  0.78043500  0.90599400  0.44557300  1
  O  255  1  0.66047000  0.00339500  0.57267300  1
  O  256  1  0.86507300  0.08351800  0.55746800  1
  O  277  1  0.77827600  0.62396700  0.46584500  1
  O  278  1  0.53595200  0.50188600  0.38986500  1
  O  279  1  0.68416950  0.55008350  0.52169400  1
  O  280  1  0.49325750  0.37437450  0.42384500  1
  O  281  1  0.75843200  0.62947700  0.41417400  1
  O  282  1  0.62457950  0.58278350  0.38639700  1
  O  283  1  0.59669850  0.46747250  0.52483000  1
  O  284  1  0.51056650  0.36617850  0.47554500  1
  O  305  1  0.09556050  0.52509050  0.47697400  1
  O  306  1  0.10903500  0.62192300  0.58971200  1
  O  307  1  0.13432000  0.37517000  0.60461900  1
  O  308  1  0.99823900  0.37054200  0.62687400  1
  O  309  1  0.11025400  0.44796900  0.47622600  1
  O  310  1  0.13258150  0.62644650  0.53759700  1
  O  311  1  0.15813100  0.37976700  0.55248800  1
  O  312  1  0.98149700  0.44626600  0.63043000  1
