# generated using pymatgen
data_H17C30(N3O2)2
_symmetry_space_group_name_H-M   'P 1'
_cell_length_a   9.84520000
_cell_length_b   50.49875000
_cell_length_c   50.49880000
_cell_angle_alpha   120.00009826
_cell_angle_beta   89.99200000
_cell_angle_gamma   90.00000002
_symmetry_Int_Tables_number   1
_chemical_formula_structural   H17C30(N3O2)2
_chemical_formula_sum   'H102 C180 N36 O24'
_cell_volume   21742.84777574
_cell_formula_units_Z   6
loop_
 _symmetry_equiv_pos_site_id
 _symmetry_equiv_pos_as_xyz
  1  'x, y, z'
loop_
 _atom_site_type_symbol
 _atom_site_label
 _atom_site_symmetry_multiplicity
 _atom_site_fract_x
 _atom_site_fract_y
 _atom_site_fract_z
 _atom_site_occupancy
  C  1  1  0.99177400  0.97656400  0.61619467  1
  C  2  1  0.99060600  0.94493400  0.60063900  1
  C  3  1  0.99420000  0.93452100  0.56927633  1
  C  5  1  0.99535800  0.98633533  0.59475400  1
  C  6  1  0.99992633  0.01745200  0.60195500  1
  C  7  1  0.00064000  0.02706067  0.57983033  1
  C  9  1  0.99761900  0.02675200  0.53517300  1
  C  10  1  0.01109700  0.05703767  0.55872667  1
  C  11  1  0.01240800  0.05724000  0.58612800  1
  C  12  1  0.99337000  0.01671233  0.50334933  1
  C  13  1  0.98942700  0.98536933  0.47988000  1
  C  15  1  0.99147000  0.93357000  0.45441000  1
  C  16  1  0.98500000  0.94333000  0.43298100  1
  C  17  1  0.98320400  0.97495367  0.44853667  1
  C  18  1  0.99759400  0.90245733  0.44718433  1
  C  19  1  0.00001100  0.89283533  0.46929100  1
  C  21  1  0.99973700  0.89313867  0.51394800  1
  C  22  1  0.01259600  0.86285133  0.49035400  1
  C  23  1  0.01246800  0.86265733  0.46295267  1
  C  24  1  0.99759300  0.90317933  0.54578300  1
  C  25  1  0.00574000  0.88006600  0.55434300  1
  C  26  1  0.89448800  0.86057467  0.55005267  1
  C  27  1  0.90787500  0.83572900  0.55526600  1
  C  28  1  0.03285000  0.82958600  0.56504700  1
  C  29  1  0.14320700  0.84949500  0.56977300  1
  C  30  1  0.13035000  0.87412567  0.56427167  1
  C  31  1  0.00928500  0.87906267  0.41575833  1
  C  32  1  0.89560000  0.86158200  0.39906567  1
  C  33  1  0.91147100  0.83580900  0.36963800  1
  C  34  1  0.04155500  0.82648567  0.35598867  1
  C  35  1  0.15450800  0.84448900  0.37279600  1
  C  36  1  0.13894300  0.87023167  0.40214833  1
  C  37  1  0.00003100  0.03980700  0.49474000  1
  C  38  1  0.12325500  0.04537133  0.48397967  1
  C  39  1  0.13501500  0.06990933  0.47831400  1
  C  40  1  0.02499300  0.09007367  0.48366033  1
  C  41  1  0.90139200  0.08429133  0.49424233  1
  C  42  1  0.88907500  0.05954100  0.49963067  1
  C  43  1  0.01163000  0.04092167  0.63335667  1
  C  44  1  0.14129900  0.05009933  0.64686533  1
  C  45  1  0.89764300  0.05834533  0.64996500  1
  C  46  1  0.91326500  0.08445700  0.67916067  1
  C  47  1  0.04339800  0.09421033  0.69264300  1
  C  48  1  0.15661500  0.07619167  0.67598900  1
  C  75  1  0.06272200  0.80018633  0.32755000  1
  C  76  1  0.04127600  0.11441467  0.47822567  1
  C  77  1  0.06424900  0.12104267  0.72065733  1
  C  78  1  0.05007600  0.80513300  0.57028300  1
  C  83  1  0.99096100  0.53569533  0.00722467  1
  C  84  1  0.98980400  0.55176433  0.03885500  1
  C  85  1  0.99403800  0.53080867  0.04925667  1
  C  87  1  0.99501400  0.50448467  0.99744633  1
  C  88  1  0.99998400  0.48057633  0.96632900  1
  C  89  1  0.00086400  0.44884167  0.95671167  1
  C  91  1  0.99789800  0.40448633  0.95700667  1
  C  92  1  0.01145900  0.39776433  0.92672567  1
  C  93  1  0.01287700  0.42496900  0.92653500  1
  C  94  1  0.99367200  0.38269367  0.96703667  1
  C  95  1  0.98966600  0.39056000  0.99837967  1
  C  97  1  0.99159000  0.41688067  0.05018167  1
  C  98  1  0.98535100  0.38568733  0.04041267  1
  C  99  1  0.98350200  0.36962433  0.00878833  1
  C  100  1  0.99752900  0.44076533  0.08129433  1
  C  101  1  0.00031700  0.47249400  0.09092100  1
  C  103  1  0.00029700  0.51685200  0.09062600  1
  C  104  1  0.01326200  0.52353633  0.12090833  1
  C  105  1  0.01291700  0.49632800  0.12109767  1
  C  106  1  0.99791900  0.53865100  0.08059400  1
  C  107  1  0.00604500  0.57032333  0.10370933  1
  C  108  1  0.89475300  0.58550567  0.12320167  1
  C  109  1  0.90805700  0.61557033  0.14803933  1
  C  110  1  0.03296200  0.63151900  0.15416900  1
  C  111  1  0.14334000  0.61635300  0.13425333  1
  C  112  1  0.13054200  0.58622533  0.10960900  1
  C  113  1  0.00932600  0.43272933  0.10468367  1
  C  114  1  0.89566100  0.43349200  0.12216367  1
  C  115  1  0.91157200  0.42982500  0.14792600  1
  C  116  1  0.04168800  0.42552467  0.15724900  1
  C  117  1  0.15462400  0.42433667  0.13923867  1
  C  118  1  0.13902200  0.42798333  0.11351933  1
  C  119  1  0.00042700  0.35099400  0.94393433  1
  C  120  1  0.12357500  0.33466733  0.93836200  1
  C  121  1  0.13531900  0.30446267  0.91382267  1
  C  122  1  0.02526800  0.28964333  0.89367200  1
  C  123  1  0.90167800  0.30601200  0.89946767  1
  C  124  1  0.88936600  0.33615133  0.92422133  1
  C  125  1  0.01161600  0.48852567  0.94287333  1
  C  126  1  0.14125300  0.49284800  0.93366600  1
  C  127  1  0.89763300  0.48768033  0.92543633  1
  C  128  1  0.91317900  0.49078800  0.89933500  1
  C  129  1  0.04327600  0.49453767  0.88957967  1
  C  130  1  0.15653000  0.49588500  0.90757600  1
  C  157  1  0.06288400  0.42336533  0.18353433  1
  C  158  1  0.04156200  0.25987067  0.86932433  1
  C  159  1  0.06408800  0.49575633  0.86276433  1
  C  160  1  0.05010600  0.66121300  0.17861700  1
  C  165  1  0.99173500  0.36754133  0.44804933  1
  C  166  1  0.99053600  0.38309533  0.43197333  1
  C  167  1  0.99433400  0.41445733  0.45292133  1
  C  169  1  0.99530000  0.38898433  0.47926133  1
  C  170  1  0.99987233  0.38178567  0.50317967  1
  C  171  1  0.00053900  0.40391233  0.53491333  1
  C  173  1  0.99748200  0.44857333  0.57926033  1
  C  174  1  0.01075900  0.42501767  0.58599500  1
  C  175  1  0.01221100  0.39761633  0.55879633  1
  C  176  1  0.99348000  0.48040067  0.60104167  1
  C  177  1  0.98983500  0.50387433  0.59317033  1
  C  179  1  0.99188400  0.52934167  0.56683267  1
  C  180  1  0.98624900  0.55077767  0.59802967  1
  C  181  1  0.98443600  0.53522667  0.61410267  1
  C  182  1  0.99757400  0.53655900  0.54293600  1
  C  183  1  0.00012133  0.51444733  0.51120933  1
  C  185  1  0.00011033  0.46978200  0.46685900  1
  C  186  1  0.01286000  0.49337567  0.46015967  1
  C  187  1  0.01245400  0.52078100  0.48736200  1
  C  188  1  0.99788700  0.43794700  0.44506933  1
  C  189  1  0.00609500  0.42938200  0.41339600  1
  C  190  1  0.89475800  0.43363600  0.39819100  1
  C  191  1  0.90811800  0.42841567  0.36812867  1
  C  192  1  0.03311500  0.41865033  0.35220333  1
  C  193  1  0.14354300  0.41396000  0.36739300  1
  C  194  1  0.13069600  0.41944800  0.39752133  1
  C  195  1  0.00942800  0.56797900  0.55095233  1
  C  196  1  0.89569200  0.58470200  0.55024000  1
  C  197  1  0.91153300  0.61414533  0.55393400  1
  C  198  1  0.04165600  0.62775967  0.55818200  1
  C  199  1  0.15464600  0.61092200  0.55931300  1
  C  200  1  0.13909600  0.58157267  0.55570867  1
  C  201  1  0.00060600  0.48900667  0.63273833  1
  C  202  1  0.12415800  0.49955533  0.64893333  1
  C  203  1  0.13623600  0.50520500  0.67912600  1
  C  204  1  0.02618600  0.50001567  0.69405467  1
  C  205  1  0.90221600  0.48962733  0.67781067  1
  C  206  1  0.88957200  0.48426833  0.64768733  1
  C  207  1  0.01163700  0.35038633  0.49525200  1
  C  208  1  0.14133900  0.33689100  0.49094400  1
  C  209  1  0.89766400  0.33376533  0.49604767  1
  C  210  1  0.91335900  0.30458833  0.49300567  1
  C  211  1  0.04350000  0.29110267  0.48926300  1
  C  212  1  0.15671200  0.30777900  0.48793833  1
  C  239  1  0.06280400  0.65619867  0.56032467  1
  C  240  1  0.04285900  0.50539633  0.72380667  1
  C  241  1  0.06439700  0.26309800  0.48810000  1
  C  242  1  0.05032200  0.41341500  0.32251500  1
  C  247  1  0.97300400  0.75519700  0.28466900  1
  C  249  1  0.10822200  0.71519100  0.24474733  1
  C  250  1  0.98845400  0.69926200  0.22934900  1
  C  252  1  0.85361500  0.73906400  0.26949633  1
  C  253  1  0.72404800  0.74967533  0.28069100  1
  C  254  1  0.23828000  0.70400900  0.23500600  1
  C  263  1  0.97318500  0.42548033  0.22853433  1
  C  265  1  0.10840900  0.42556200  0.26853000  1
  C  266  1  0.98863700  0.42608900  0.28446400  1
  C  268  1  0.85379700  0.42644100  0.24467300  1
  C  269  1  0.72422700  0.42702700  0.23407100  1
  C  270  1  0.23846400  0.42700233  0.27970433  1
  C  279  1  0.97303900  0.69908500  0.55822900  1
  C  281  1  0.10821700  0.73900300  0.55813433  1
  C  282  1  0.98844200  0.75440600  0.55761267  1
  C  284  1  0.85363500  0.71426133  0.55727700  1
  C  285  1  0.72407500  0.70307133  0.55670367  1
  C  286  1  0.23826900  0.74874167  0.55668700  1
  C  295  1  0.97159400  0.16528867  0.76393133  1
  C  297  1  0.10266500  0.20747367  0.80225800  1
  C  298  1  0.98250000  0.22172733  0.81876100  1
  C  300  1  0.85124100  0.17978133  0.78013400  1
  C  301  1  0.72299600  0.16718300  0.77025300  1
  C  302  1  0.22933600  0.22042867  0.81092833  1
  C  311  1  0.97153100  0.49474800  0.81850233  1
  C  313  1  0.10284300  0.49107067  0.77642167  1
  C  314  1  0.98272400  0.49319633  0.76208600  1
  C  316  1  0.85121800  0.49635133  0.80394133  1
  C  317  1  0.72286300  0.49893367  0.81645933  1
  C  318  1  0.22965600  0.48691200  0.76356567  1
  C  327  1  0.97172300  0.21982467  0.48906933  1
  C  329  1  0.10271800  0.18150433  0.49296500  1
  C  330  1  0.98253000  0.16500300  0.49069467  1
  C  332  1  0.85135900  0.20362333  0.48734233  1
  C  333  1  0.72313800  0.21350333  0.48460133  1
  C  334  1  0.22935300  0.17282967  0.49727433  1
  H  49  1  0.25295700  0.08245433  0.68451367  1
  H  50  1  0.22628200  0.03853733  0.63504733  1
  H  51  1  0.82849600  0.09688133  0.69003600  1
  H  52  1  0.80287000  0.05279400  0.64038367  1
  H  53  1  0.99066600  0.98999100  0.63947200  1
  H  54  1  0.98859400  0.93192133  0.61093833  1
  H  55  1  0.00094000  0.96009433  0.54800633  1
  H  56  1  0.00108100  0.95981267  0.50111467  1
  H  57  1  0.02337700  0.07648600  0.60702700  1
  H  58  1  0.02115300  0.07611933  0.55676033  1
  H  59  1  0.20647600  0.03194600  0.48081667  1
  H  60  1  0.22663000  0.07333500  0.47088300  1
  H  61  1  0.79916600  0.05643233  0.50789467  1
  H  62  1  0.81906700  0.09818767  0.49830433  1
  H  63  1  0.97935800  0.98795633  0.43823933  1
  H  64  1  0.98262900  0.92990000  0.40970700  1
  H  65  1  0.02367800  0.84377767  0.49230133  1
  H  66  1  0.02284400  0.84342100  0.44202433  1
  H  67  1  0.80083800  0.86693733  0.40867467  1
  H  68  1  0.82685100  0.82343733  0.35859633  1
  H  69  1  0.22374600  0.88187000  0.41398100  1
  H  70  1  0.25082300  0.83854600  0.36413933  1
  H  71  1  0.21372100  0.88736467  0.56696967  1
  H  72  1  0.23581200  0.84579167  0.57658667  1
  H  73  1  0.82528800  0.82201800  0.55164900  1
  H  74  1  0.80356000  0.86391400  0.54233033  1
  H  79  1  0.15707800  0.79548000  0.31937600  1
  H  80  1  0.10961800  0.11225900  0.46274167  1
  H  81  1  0.15930700  0.12695367  0.72798667  1
  H  82  1  0.12043400  0.80702200  0.58528200  1
  H  131  1  0.25286000  0.49816500  0.90131400  1
  H  132  1  0.22625800  0.49259667  0.94521867  1
  H  133  1  0.82837000  0.48926333  0.88693733  1
  H  134  1  0.80286100  0.48367633  0.93101500  1
  H  135  1  0.98994600  0.54555100  0.99380100  1
  H  136  1  0.98804600  0.57507700  0.05187267  1
  H  137  1  0.00223600  0.48398133  0.02367633  1
  H  138  1  0.00053400  0.43735933  0.02394167  1
  H  139  1  0.02367200  0.42662600  0.90728767  1
  H  140  1  0.02152800  0.37671733  0.90763900  1
  H  141  1  0.20678100  0.34492100  0.95179533  1
  H  142  1  0.22689800  0.29359467  0.91040267  1
  H  143  1  0.79948100  0.34753067  0.92733000  1
  H  144  1  0.81934600  0.29618267  0.88557333  1
  H  145  1  0.98002100  0.34632233  0.99578100  1
  H  146  1  0.98304800  0.37583667  0.05383667  1
  H  147  1  0.02385000  0.54456333  0.13999667  1
  H  148  1  0.02271200  0.49463400  0.14034400  1
  H  149  1  0.80085400  0.43770833  0.11680000  1
  H  150  1  0.82695400  0.43112833  0.16029333  1
  H  151  1  0.22380600  0.42818667  0.10187667  1
  H  152  1  0.25096600  0.42166733  0.14519533  1
  H  153  1  0.21394200  0.57569400  0.09637267  1
  H  154  1  0.23587200  0.62689733  0.13793367  1
  H  155  1  0.82545800  0.62565200  0.16175600  1
  H  156  1  0.80388500  0.57442467  0.11987400  1
  H  161  1  0.15724400  0.41989600  0.18823100  1
  H  162  1  0.11013500  0.24656367  0.87144200  1
  H  163  1  0.15912000  0.49726800  0.85689633  1
  H  164  1  0.12041600  0.67433133  0.17672400  1
  H  213  1  0.25305900  0.29924633  0.48565233  1
  H  214  1  0.22630000  0.34871533  0.49120633  1
  H  215  1  0.82857700  0.29369267  0.49451033  1
  H  216  1  0.80288000  0.34334600  0.50007733  1
  H  217  1  0.99067800  0.34426200  0.43820100  1
  H  218  1  0.98883800  0.37279233  0.40865933  1
  H  219  1  0.00140400  0.43572833  0.49975833  1
  H  220  1  0.99945500  0.48261233  0.54635167  1
  H  221  1  0.02283600  0.37671333  0.55715167  1
  H  222  1  0.02062100  0.42698333  0.60704733  1
  H  223  1  0.20737200  0.50261900  0.63859700  1
  H  224  1  0.22812700  0.51248367  0.68988267  1
  H  225  1  0.79939500  0.47613567  0.63640267  1
  H  226  1  0.81986200  0.48566700  0.68771467  1
  H  227  1  0.98111900  0.54553067  0.63740833  1
  H  228  1  0.98424700  0.57405367  0.60787567  1
  H  229  1  0.02311000  0.49143567  0.43912533  1
  H  230  1  0.02202200  0.54172000  0.48904300  1
  H  231  1  0.80089000  0.57511900  0.54603900  1
  H  232  1  0.82690200  0.62520000  0.55262900  1
  H  233  1  0.22392800  0.56970600  0.55543533  1
  H  234  1  0.25097700  0.61955367  0.56196767  1
  H  235  1  0.21409600  0.41676933  0.40806433  1
  H  236  1  0.23612800  0.40712867  0.35686267  1
  H  237  1  0.82548800  0.43200800  0.35803067  1
  H  238  1  0.80381500  0.44134867  0.40925500  1
  H  243  1  0.15717400  0.66435600  0.56375633  1
  H  244  1  0.11252200  0.52057333  0.73697867  1
  H  245  1  0.15946400  0.25577067  0.48668633  1
  H  246  1  0.12062900  0.39839967  0.30939367  1
  H  257  1  0.72840500  0.78803500  0.28264800  1
  H  260  1  0.22845700  0.66734100  0.23641200  1
  H  273  1  0.72858000  0.39062700  0.19570667  1
  H  276  1  0.22863100  0.46507933  0.31637100  1
  H  289  1  0.72845800  0.70111567  0.59310700  1
  H  292  1  0.22842800  0.74732700  0.51860833  1
  H  305  1  0.74619500  0.12934367  0.76885233  1
  H  308  1  0.38435300  0.21690633  0.83076067  1
  H  321  1  0.74530500  0.53536033  0.85434300  1
  H  324  1  0.38608200  0.51018767  0.76795167  1
  H  337  1  0.74651200  0.21488533  0.44815700  1
  H  340  1  0.38396100  0.15272900  0.47389500  1
  N  4  1  0.99555300  0.96026900  0.56708900  1
  N  8  1  0.99168300  0.00971267  0.54901867  1
  N  14  1  0.99242900  0.95963100  0.48207467  1
  N  20  1  0.99238800  0.91017933  0.50012233  1
  N  86  1  0.99535900  0.50287433  0.02350633  1
  N  90  1  0.99186800  0.43537000  0.97405200  1
  N  96  1  0.99259600  0.41848867  0.02412400  1
  N  102  1  0.99274800  0.48598767  0.07358233  1
  N  168  1  0.99555300  0.41664733  0.48085833  1
  N  172  1  0.99171300  0.43472567  0.54837467  1
  N  178  1  0.99259700  0.50168100  0.56523700  1
  N  184  1  0.99280000  0.48361467  0.49772767  1
  N  248  1  0.09382500  0.74209733  0.27150000  1
  N  251  1  0.86794700  0.71199833  0.24283033  1
  N  261  1  0.96794400  0.78130600  0.31154667  1
  N  262  1  0.98186100  0.67211800  0.20369800  1
  N  264  1  0.09400800  0.42541000  0.24162500  1
  N  267  1  0.86813000  0.42683600  0.27173600  1
  N  277  1  0.96811900  0.42625300  0.20242800  1
  N  278  1  0.98204400  0.42758133  0.31160733  1
  N  280  1  0.09384500  0.71225100  0.55829033  1
  N  283  1  0.86793700  0.74092767  0.55687767  1
  N  293  1  0.96799600  0.67221000  0.55746467  1
  N  294  1  0.98181000  0.78005800  0.55612300  1
  N  296  1  0.09093800  0.18018567  0.77582800  1
  N  299  1  0.86319800  0.20721833  0.80649533  1
  N  309  1  0.96788100  0.13889500  0.73732033  1
  N  310  1  0.97466300  0.24908033  0.84408700  1
  N  312  1  0.09099100  0.49188533  0.80368533  1
  N  315  1  0.86332600  0.49531167  0.77652367  1
  N  325  1  0.96774400  0.49450200  0.84488167  1
  N  326  1  0.97493400  0.49121867  0.73475033  1
  N  328  1  0.09103600  0.20793100  0.49209667  1
  N  331  1  0.86326300  0.17726567  0.48842767  1
  N  341  1  0.96803500  0.24643133  0.48927933  1
  N  342  1  0.97464400  0.13968533  0.49273400  1
  O  255  1  0.63735800  0.73080733  0.27707833  1
  O  256  1  0.67876800  0.77352600  0.28288833  1
  O  258  1  0.32709400  0.72209067  0.23763133  1
  O  259  1  0.28042300  0.68116700  0.23546100  1
  O  271  1  0.63754100  0.44228000  0.25294500  1
  O  272  1  0.67894700  0.40537700  0.21022000  1
  O  274  1  0.32727800  0.41154767  0.26161867  1
  O  275  1  0.28060600  0.45030300  0.30254233  1
  O  287  1  0.63737600  0.70668700  0.54145500  1
  O  288  1  0.67881800  0.70087500  0.57836033  1
  O  290  1  0.32708500  0.74611700  0.57214000  1
  O  291  1  0.28040700  0.74827900  0.53338400  1
  O  303  1  0.62871300  0.18462267  0.77443733  1
  O  304  1  0.68929100  0.14293433  0.76885700  1
  O  306  1  0.28843600  0.22665067  0.79336833  1
  O  307  1  0.29808000  0.21188133  0.82574267  1
  O  319  1  0.62887500  0.48561167  0.79895667  1
  O  320  1  0.68867900  0.52173200  0.84070667  1
  O  322  1  0.28734500  0.46277867  0.75656200  1
  O  323  1  0.29961200  0.51021500  0.77285667  1
  O  335  1  0.62878900  0.20933000  0.49785033  1
  O  336  1  0.68954200  0.21488667  0.46173800  1
  O  338  1  0.28884400  0.19049467  0.52095133  1
  O  339  1  0.29775200  0.15779267  0.47389700  1
