# generated using pymatgen
data_Zn3H42C59(N6O5)2
_symmetry_space_group_name_H-M   'P 1'
_cell_length_a   14.29647000
_cell_length_b   20.11327000
_cell_length_c   22.16455000
_cell_angle_alpha   90.00000000
_cell_angle_beta   90.00000000
_cell_angle_gamma   90.00000000
_symmetry_Int_Tables_number   1
_chemical_formula_structural   Zn3H42C59(N6O5)2
_chemical_formula_sum   'Zn12 H168 C236 N48 O40'
_cell_volume   6373.38889410
_cell_formula_units_Z   4
loop_
 _symmetry_equiv_pos_site_id
 _symmetry_equiv_pos_as_xyz
  1  'x, y, z'
loop_
 _atom_site_type_symbol
 _atom_site_label
 _atom_site_symmetry_multiplicity
 _atom_site_fract_x
 _atom_site_fract_y
 _atom_site_fract_z
 _atom_site_occupancy
  Zn  Zn0  1  0.82624000  0.19959000  0.24395000  1
  Zn  Zn1  1  0.63175000  0.22682000  0.99800000  1
  Zn  Zn2  1  0.81250000  0.34535000  0.71043000  1
  Zn  Zn3  1  0.17376000  0.80041000  0.24395000  1
  Zn  Zn4  1  0.36825000  0.77319000  0.99799000  1
  Zn  Zn5  1  0.18750000  0.65463000  0.71034000  1
  Zn  Zn6  1  0.82624000  0.80041000  0.74395000  1
  Zn  Zn7  1  0.63175000  0.77318000  0.49799000  1
  Zn  Zn8  1  0.81250000  0.65464000  0.21037000  1
  Zn  Zn9  1  0.17376000  0.19959000  0.74395000  1
  Zn  Zn10  1  0.36824000  0.22682000  0.49800000  1
  Zn  Zn11  1  0.18750000  0.34535000  0.21042000  1
  H  H12  1  0.65887000  0.31330000  0.80076000  1
  H  H13  1  0.55676000  0.30788000  0.25640000  1
  H  H14  1  0.43805000  0.39742000  0.25255000  1
  H  H15  1  0.65034000  0.53610000  0.19504000  1
  H  H16  1  0.76865000  0.44613000  0.20087000  1
  H  H17  1  0.03194000  0.13807000  0.24498000  1
  H  H18  1  0.91145000  0.28655000  0.13541000  1
  H  H19  1  0.08794000  0.25652000  0.08963000  1
  H  H20  1  0.11086000  0.05706000  0.17117000  1
  H  H21  1  0.40641000  0.05921000  0.13104000  1
  H  H22  1  0.25007000  0.24325000  0.13737000  1
  H  H23  1  0.16773000  0.96738000  0.23466000  1
  H  H24  1  0.30783000  0.82465000  0.12858000  1
  H  H25  1  0.35058000  0.94983000  0.08360000  1
  H  H26  1  0.40089000  0.27829000  0.17339000  1
  H  H27  1  0.57038000  0.31215000  0.11976000  1
  H  H28  1  0.48466000  0.12721000  0.04957000  1
  H  H29  1  0.62491000  0.96674000  0.96113000  1
  H  H30  1  0.71067000  0.87765000  0.90443000  1
  H  H31  1  0.92441000  0.01871000  0.85654000  1
  H  H32  1  0.83989000  0.10660000  0.91521000  1
  H  H33  1  0.83486000  0.38311000  0.13276000  1
  H  H34  1  0.97083000  0.45439000  0.12914000  1
  H  H35  1  0.95664000  0.45813000  0.93426000  1
  H  H36  1  0.81834000  0.38803000  0.93696000  1
  H  H37  1  0.51298000  0.14849000  0.88805000  1
  H  H38  1  0.35289000  0.20655000  0.83757000  1
  H  H39  1  0.45888000  0.32995000  0.97665000  1
  H  H40  1  0.20340000  0.25793000  0.87868000  1
  H  H41  1  0.12929000  0.46450000  0.85378000  1
  H  H42  1  0.41483000  0.41057000  0.89167000  1
  H  H43  1  0.03820000  0.26130000  0.91428000  1
  H  H44  1  0.86432000  0.26157000  0.85741000  1
  H  H45  1  0.03464000  0.40670000  0.77610000  1
  H  H46  1  0.22273000  0.54770000  0.79309000  1
  H  H47  1  0.41830000  0.64703000  0.90210000  1
  H  H48  1  0.39886000  0.51736000  0.94463000  1
  H  H49  1  0.73988000  0.09765000  0.80532000  1
  H  H50  1  0.65622000  0.98968000  0.80271000  1
  H  H51  1  0.40696000  0.09093000  0.74219000  1
  H  H52  1  0.48905000  0.19825000  0.74947000  1
  H  H53  1  0.73400000  0.42644000  0.03806000  1
  H  H54  1  0.34112000  0.68671000  0.80076000  1
  H  H55  1  0.44325000  0.69212000  0.25640000  1
  H  H56  1  0.56195000  0.60258000  0.25255000  1
  H  H57  1  0.34967000  0.46390000  0.19504000  1
  H  H58  1  0.23136000  0.55387000  0.20087000  1
  H  H59  1  0.96807000  0.86194000  0.24496000  1
  H  H60  1  0.08855000  0.71345000  0.13539000  1
  H  H61  1  0.91206000  0.74348000  0.08962000  1
  H  H62  1  0.88915000  0.94294000  0.17116000  1
  H  H63  1  0.59360000  0.94080000  0.13102000  1
  H  H64  1  0.74992000  0.75675000  0.13736000  1
  H  H65  1  0.83229000  0.03262000  0.23465000  1
  H  H66  1  0.69217000  0.17536000  0.12859000  1
  H  H67  1  0.64942000  0.05018000  0.08360000  1
  H  H68  1  0.59912000  0.72172000  0.17339000  1
  H  H69  1  0.42963000  0.68785000  0.11976000  1
  H  H70  1  0.51533000  0.87279000  0.04956000  1
  H  H71  1  0.37509000  0.03327000  0.96114000  1
  H  H72  1  0.28934000  0.12236000  0.90443000  1
  H  H73  1  0.07559000  0.98130000  0.85654000  1
  H  H74  1  0.16011000  0.89340000  0.91521000  1
  H  H75  1  0.16514000  0.61688000  0.13275000  1
  H  H76  1  0.02915000  0.54562000  0.12914000  1
  H  H77  1  0.04335000  0.54186000  0.93426000  1
  H  H78  1  0.18166000  0.61194000  0.93695000  1
  H  H79  1  0.48701000  0.85151000  0.88805000  1
  H  H80  1  0.64711000  0.79346000  0.83756000  1
  H  H81  1  0.54113000  0.67006000  0.97665000  1
  H  H82  1  0.79661000  0.74208000  0.87867000  1
  H  H83  1  0.87071000  0.53551000  0.85378000  1
  H  H84  1  0.58517000  0.58945000  0.89167000  1
  H  H85  1  0.96181000  0.73871000  0.91427000  1
  H  H86  1  0.13568000  0.73844000  0.85740000  1
  H  H87  1  0.96536000  0.59331000  0.77610000  1
  H  H88  1  0.77727000  0.45232000  0.79309000  1
  H  H89  1  0.58171000  0.35298000  0.90211000  1
  H  H90  1  0.60114000  0.48265000  0.94463000  1
  H  H91  1  0.26012000  0.90236000  0.80531000  1
  H  H92  1  0.34378000  0.01033000  0.80271000  1
  H  H93  1  0.59305000  0.90908000  0.74219000  1
  H  H94  1  0.51095000  0.80176000  0.74947000  1
  H  H95  1  0.26598000  0.57356000  0.03805000  1
  H  H96  1  0.65888000  0.68671000  0.30076000  1
  H  H97  1  0.55676000  0.69212000  0.75640000  1
  H  H98  1  0.43805000  0.60258000  0.75255000  1
  H  H99  1  0.65034000  0.46391000  0.69504000  1
  H  H100  1  0.76864000  0.55387000  0.70087000  1
  H  H101  1  0.03193000  0.86194000  0.74496000  1
  H  H102  1  0.91145000  0.71345000  0.63539000  1
  H  H103  1  0.08795000  0.74348000  0.58962000  1
  H  H104  1  0.11086000  0.94294000  0.67116000  1
  H  H105  1  0.40641000  0.94080000  0.63103000  1
  H  H106  1  0.25008000  0.75675000  0.63735000  1
  H  H107  1  0.16771000  0.03262000  0.73466000  1
  H  H108  1  0.30782000  0.17536000  0.62859000  1
  H  H109  1  0.35058000  0.05018000  0.58360000  1
  H  H110  1  0.40088000  0.72172000  0.67339000  1
  H  H111  1  0.57037000  0.68785000  0.61975000  1
  H  H112  1  0.48467000  0.87279000  0.54956000  1
  H  H113  1  0.62490000  0.03326000  0.46114000  1
  H  H114  1  0.71066000  0.12236000  0.40443000  1
  H  H115  1  0.92441000  0.98130000  0.35654000  1
  H  H116  1  0.83989000  0.89340000  0.41521000  1
  H  H117  1  0.83486000  0.61688000  0.63275000  1
  H  H118  1  0.97086000  0.54563000  0.62914000  1
  H  H119  1  0.95665000  0.54186000  0.43426000  1
  H  H120  1  0.81834000  0.61194000  0.43695000  1
  H  H121  1  0.51299000  0.85151000  0.38805000  1
  H  H122  1  0.35288000  0.79346000  0.33757000  1
  H  H123  1  0.45888000  0.67006000  0.47665000  1
  H  H124  1  0.20339000  0.74208000  0.37867000  1
  H  H125  1  0.12929000  0.53551000  0.35378000  1
  H  H126  1  0.41483000  0.58945000  0.39167000  1
  H  H127  1  0.03819000  0.73871000  0.41427000  1
  H  H128  1  0.86432000  0.73843000  0.35739000  1
  H  H129  1  0.03464000  0.59330000  0.27610000  1
  H  H130  1  0.22273000  0.45231000  0.29309000  1
  H  H131  1  0.41829000  0.35298000  0.40211000  1
  H  H132  1  0.39887000  0.48265000  0.44463000  1
  H  H133  1  0.73987000  0.90236000  0.30530000  1
  H  H134  1  0.65621000  0.01034000  0.30270000  1
  H  H135  1  0.40695000  0.90908000  0.24219000  1
  H  H136  1  0.48904000  0.80176000  0.24946000  1
  H  H137  1  0.73402000  0.57356000  0.53805000  1
  H  H138  1  0.34113000  0.31331000  0.30076000  1
  H  H139  1  0.44324000  0.30788000  0.75640000  1
  H  H140  1  0.56195000  0.39742000  0.75255000  1
  H  H141  1  0.34966000  0.53610000  0.69504000  1
  H  H142  1  0.23136000  0.44613000  0.70087000  1
  H  H143  1  0.96806000  0.13807000  0.74498000  1
  H  H144  1  0.08855000  0.28655000  0.63541000  1
  H  H145  1  0.91206000  0.25652000  0.58963000  1
  H  H146  1  0.88914000  0.05706000  0.67117000  1
  H  H147  1  0.59359000  0.05921000  0.63104000  1
  H  H148  1  0.74993000  0.24326000  0.63737000  1
  H  H149  1  0.83228000  0.96738000  0.73466000  1
  H  H150  1  0.69217000  0.82465000  0.62858000  1
  H  H151  1  0.64942000  0.94984000  0.58360000  1
  H  H152  1  0.59911000  0.27830000  0.67339000  1
  H  H153  1  0.42962000  0.31215000  0.61976000  1
  H  H154  1  0.51533000  0.12721000  0.54957000  1
  H  H155  1  0.37509000  0.96674000  0.46113000  1
  H  H156  1  0.28933000  0.87765000  0.40443000  1
  H  H157  1  0.07558000  0.01871000  0.35654000  1
  H  H158  1  0.16011000  0.10660000  0.41521000  1
  H  H159  1  0.16514000  0.38311000  0.63276000  1
  H  H160  1  0.02917000  0.45439000  0.62914000  1
  H  H161  1  0.04336000  0.45813000  0.43426000  1
  H  H162  1  0.18165000  0.38803000  0.43696000  1
  H  H163  1  0.48702000  0.14850000  0.38805000  1
  H  H164  1  0.64711000  0.20656000  0.33757000  1
  H  H165  1  0.54112000  0.32995000  0.47666000  1
  H  H166  1  0.79660000  0.25793000  0.37868000  1
  H  H167  1  0.87071000  0.46450000  0.35378000  1
  H  H168  1  0.58517000  0.41057000  0.39168000  1
  H  H169  1  0.96180000  0.26130000  0.41428000  1
  H  H170  1  0.13567000  0.26157000  0.35741000  1
  H  H171  1  0.96536000  0.40670000  0.27610000  1
  H  H172  1  0.77726000  0.54770000  0.29309000  1
  H  H173  1  0.58169000  0.64703000  0.40210000  1
  H  H174  1  0.60113000  0.51736000  0.44463000  1
  H  H175  1  0.26012000  0.09766000  0.30532000  1
  H  H176  1  0.34377000  0.98968000  0.30271000  1
  H  H177  1  0.59303000  0.09092000  0.24219000  1
  H  H178  1  0.51095000  0.19825000  0.24948000  1
  H  H179  1  0.26600000  0.42644000  0.53806000  1
  C  C180  1  0.74362000  0.31857000  0.23257000  1
  C  C181  1  0.67041000  0.37126000  0.22866000  1
  C  C182  1  0.57667000  0.35776000  0.24258000  1
  C  C183  1  0.51000000  0.40805000  0.23999000  1
  C  C184  1  0.53520000  0.47324000  0.22349000  1
  C  C185  1  0.62926000  0.48631000  0.20892000  1
  C  C186  1  0.69589000  0.43603000  0.21184000  1
  C  C187  1  0.02340000  0.17394000  0.20895000  1
  C  C188  1  0.96409000  0.25220000  0.15147000  1
  C  C189  1  0.05071000  0.23797000  0.12855000  1
  C  C190  1  0.17285000  0.15351000  0.15618000  1
  C  C191  1  0.17470000  0.08435000  0.16143000  1
  C  C192  1  0.25882000  0.05072000  0.15135000  1
  C  C193  1  0.34021000  0.08520000  0.13576000  1
  C  C194  1  0.33569000  0.15443000  0.13042000  1
  C  C195  1  0.25263000  0.18916000  0.14014000  1
  C  C196  1  0.21146000  0.94504000  0.20033000  1
  C  C197  1  0.28711000  0.87332000  0.14457000  1
  C  C198  1  0.30930000  0.93498000  0.12233000  1
  C  C199  1  0.44244000  0.25339000  0.13937000  1
  C  C200  1  0.52589000  0.26934000  0.11256000  1
  C  C201  1  0.48532000  0.17213000  0.07659000  1
  C  C202  1  0.67093000  0.09623000  0.96992000  1
  C  C203  1  0.72734000  0.04182000  0.94131000  1
  C  C204  1  0.69171000  0.97687000  0.93940000  1
  C  C205  1  0.73924000  0.92759000  0.90761000  1
  C  C206  1  0.82239000  0.94264000  0.87667000  1
  C  C207  1  0.86007000  0.00704000  0.88069000  1
  C  C208  1  0.81299000  0.05609000  0.91307000  1
  C  C209  1  0.86507000  0.89364000  0.83360000  1
  C  C210  1  0.74881000  0.32353000  0.03684000  1
  C  C211  1  0.79577000  0.39284000  0.03622000  1
  C  C212  1  0.85509000  0.40648000  0.09047000  1
  C  C213  1  0.93102000  0.44626000  0.08797000  1
  C  C214  1  0.96515000  0.47577000  0.03208000  1
  C  C215  1  0.92362000  0.44800000  0.97755000  1
  C  C216  1  0.84668000  0.40878000  0.97843000  1
  C  C217  1  0.47809000  0.19472000  0.89881000  1
  C  C218  1  0.39863000  0.22172000  0.87401000  1
  C  C219  1  0.45447000  0.28871000  0.94544000  1
  C  C220  1  0.31431000  0.33019000  0.89097000  1
  C  C221  1  0.22253000  0.31036000  0.87907000  1
  C  C222  1  0.15680000  0.35927000  0.86410000  1
  C  C223  1  0.18171000  0.42660000  0.86239000  1
  C  C224  1  0.27431000  0.44461000  0.87351000  1
  C  C225  1  0.34165000  0.39672000  0.88753000  1
  C  C226  1  0.01073000  0.29097000  0.87770000  1
  C  C227  1  0.92520000  0.29242000  0.84967000  1
  C  C228  1  0.00779000  0.36989000  0.80720000  1
  C  C229  1  0.27296000  0.55840000  0.82833000  1
  C  C230  1  0.37686000  0.60636000  0.88496000  1
  C  C231  1  0.36878000  0.54272000  0.90628000  1
  C  C232  1  0.67405000  0.21781000  0.78495000  1
  C  C233  1  0.62055000  0.15482000  0.77777000  1
  C  C234  1  0.66718000  0.09527000  0.79118000  1
  C  C235  1  0.62015000  0.03481000  0.78889000  1
  C  C236  1  0.52536000  0.03201000  0.77179000  1
  C  C237  1  0.47966000  0.09189000  0.75670000  1
  C  C238  1  0.52621000  0.15259000  0.76023000  1
  C  C239  1  0.25638000  0.68143000  0.23256000  1
  C  C240  1  0.32959000  0.62874000  0.22865000  1
  C  C241  1  0.42333000  0.64225000  0.24257000  1
  C  C242  1  0.49000000  0.59195000  0.23999000  1
  C  C243  1  0.46480000  0.52677000  0.22349000  1
  C  C244  1  0.37074000  0.51370000  0.20891000  1
  C  C245  1  0.30411000  0.56397000  0.21183000  1
  C  C246  1  0.97661000  0.82606000  0.20893000  1
  C  C247  1  0.03592000  0.74780000  0.15145000  1
  C  C248  1  0.94929000  0.76203000  0.12854000  1
  C  C249  1  0.82716000  0.84649000  0.15616000  1
  C  C250  1  0.82531000  0.91566000  0.16142000  1
  C  C251  1  0.74119000  0.94929000  0.15134000  1
  C  C252  1  0.65980000  0.91481000  0.13575000  1
  C  C253  1  0.66432000  0.84558000  0.13041000  1
  C  C254  1  0.74737000  0.81085000  0.14013000  1
  C  C255  1  0.78856000  0.05496000  0.20032000  1
  C  C256  1  0.71290000  0.12669000  0.14457000  1
  C  C257  1  0.69071000  0.06503000  0.12233000  1
  C  C258  1  0.55757000  0.74662000  0.13937000  1
  C  C259  1  0.47412000  0.73067000  0.11256000  1
  C  C260  1  0.51468000  0.82787000  0.07658000  1
  C  C261  1  0.32907000  0.90378000  0.96992000  1
  C  C262  1  0.27265000  0.95818000  0.94131000  1
  C  C263  1  0.30829000  0.02314000  0.93940000  1
  C  C264  1  0.26076000  0.07242000  0.90761000  1
  C  C265  1  0.17761000  0.05736000  0.87667000  1
  C  C266  1  0.13993000  0.99296000  0.88069000  1
  C  C267  1  0.18700000  0.94392000  0.91307000  1
  C  C268  1  0.13493000  0.10637000  0.83360000  1
  C  C269  1  0.25117000  0.67647000  0.03684000  1
  C  C270  1  0.20421000  0.60716000  0.03621000  1
  C  C271  1  0.14490000  0.59352000  0.09046000  1
  C  C272  1  0.06895000  0.55375000  0.08796000  1
  C  C273  1  0.03481000  0.52424000  0.03208000  1
  C  C274  1  0.07636000  0.55200000  0.97755000  1
  C  C275  1  0.15331000  0.59122000  0.97843000  1
  C  C276  1  0.52190000  0.80529000  0.89881000  1
  C  C277  1  0.60137000  0.77829000  0.87401000  1
  C  C278  1  0.54553000  0.71130000  0.94544000  1
  C  C279  1  0.68569000  0.66982000  0.89097000  1
  C  C280  1  0.77748000  0.68965000  0.87907000  1
  C  C281  1  0.84320000  0.64074000  0.86410000  1
  C  C282  1  0.81829000  0.57342000  0.86239000  1
  C  C283  1  0.72569000  0.55541000  0.87352000  1
  C  C284  1  0.65836000  0.60329000  0.88753000  1
  C  C285  1  0.98928000  0.70904000  0.87769000  1
  C  C286  1  0.07481000  0.70759000  0.84966000  1
  C  C287  1  0.99221000  0.63012000  0.80720000  1
  C  C288  1  0.72705000  0.44161000  0.82833000  1
  C  C289  1  0.62315000  0.39365000  0.88497000  1
  C  C290  1  0.63123000  0.45730000  0.90629000  1
  C  C291  1  0.32598000  0.78219000  0.78494000  1
  C  C292  1  0.37944000  0.84519000  0.77776000  1
  C  C293  1  0.33282000  0.90474000  0.79117000  1
  C  C294  1  0.37985000  0.96521000  0.78889000  1
  C  C295  1  0.47464000  0.96800000  0.77179000  1
  C  C296  1  0.52034000  0.90812000  0.75669000  1
  C  C297  1  0.47379000  0.84742000  0.76022000  1
  C  C298  1  0.74361000  0.68143000  0.73256000  1
  C  C299  1  0.67041000  0.62874000  0.72865000  1
  C  C300  1  0.57667000  0.64225000  0.74257000  1
  C  C301  1  0.51000000  0.59195000  0.73999000  1
  C  C302  1  0.53520000  0.52677000  0.72349000  1
  C  C303  1  0.62926000  0.51370000  0.70891000  1
  C  C304  1  0.69589000  0.56398000  0.71183000  1
  C  C305  1  0.02340000  0.82607000  0.70893000  1
  C  C306  1  0.96409000  0.74780000  0.65145000  1
  C  C307  1  0.05071000  0.76203000  0.62854000  1
  C  C308  1  0.17285000  0.84649000  0.65616000  1
  C  C309  1  0.17469000  0.91566000  0.66142000  1
  C  C310  1  0.25881000  0.94929000  0.65134000  1
  C  C311  1  0.34021000  0.91481000  0.63575000  1
  C  C312  1  0.33569000  0.84558000  0.63041000  1
  C  C313  1  0.25264000  0.81085000  0.64013000  1
  C  C314  1  0.21145000  0.05497000  0.70032000  1
  C  C315  1  0.28710000  0.12669000  0.64457000  1
  C  C316  1  0.30929000  0.06503000  0.62233000  1
  C  C317  1  0.44244000  0.74662000  0.63937000  1
  C  C318  1  0.52588000  0.73067000  0.61256000  1
  C  C319  1  0.48532000  0.82787000  0.57658000  1
  C  C320  1  0.67093000  0.90378000  0.46992000  1
  C  C321  1  0.72735000  0.95818000  0.44131000  1
  C  C322  1  0.69170000  0.02314000  0.43940000  1
  C  C323  1  0.73923000  0.07242000  0.40760000  1
  C  C324  1  0.82238000  0.05736000  0.37667000  1
  C  C325  1  0.86007000  0.99296000  0.38070000  1
  C  C326  1  0.81300000  0.94392000  0.41307000  1
  C  C327  1  0.86507000  0.10636000  0.33361000  1
  C  C328  1  0.74883000  0.67647000  0.53683000  1
  C  C329  1  0.79579000  0.60716000  0.53621000  1
  C  C330  1  0.85510000  0.59352000  0.59046000  1
  C  C331  1  0.93105000  0.55375000  0.58796000  1
  C  C332  1  0.96519000  0.52424000  0.53208000  1
  C  C333  1  0.92364000  0.55200000  0.47755000  1
  C  C334  1  0.84669000  0.59122000  0.47843000  1
  C  C335  1  0.47809000  0.80529000  0.39881000  1
  C  C336  1  0.39863000  0.77829000  0.37401000  1
  C  C337  1  0.45447000  0.71130000  0.44544000  1
  C  C338  1  0.31431000  0.66982000  0.39097000  1
  C  C339  1  0.22252000  0.68965000  0.37907000  1
  C  C340  1  0.15680000  0.64074000  0.36410000  1
  C  C341  1  0.18171000  0.57341000  0.36239000  1
  C  C342  1  0.27431000  0.55540000  0.37352000  1
  C  C343  1  0.34165000  0.60329000  0.38753000  1
  C  C344  1  0.01072000  0.70904000  0.37769000  1
  C  C345  1  0.92519000  0.70758000  0.34966000  1
  C  C346  1  0.00779000  0.63011000  0.30720000  1
  C  C347  1  0.27295000  0.44161000  0.32833000  1
  C  C348  1  0.37685000  0.39365000  0.38497000  1
  C  C349  1  0.36877000  0.45729000  0.40629000  1
  C  C350  1  0.67405000  0.78219000  0.28493000  1
  C  C351  1  0.62055000  0.84519000  0.27776000  1
  C  C352  1  0.66717000  0.90474000  0.29117000  1
  C  C353  1  0.62014000  0.96521000  0.28889000  1
  C  C354  1  0.52535000  0.96800000  0.27180000  1
  C  C355  1  0.47966000  0.90813000  0.25669000  1
  C  C356  1  0.52620000  0.84742000  0.26022000  1
  C  C357  1  0.25639000  0.31857000  0.73257000  1
  C  C358  1  0.32959000  0.37126000  0.72866000  1
  C  C359  1  0.42333000  0.35776000  0.74258000  1
  C  C360  1  0.49000000  0.40805000  0.73999000  1
  C  C361  1  0.46480000  0.47324000  0.72349000  1
  C  C362  1  0.37074000  0.48631000  0.70891000  1
  C  C363  1  0.30411000  0.43603000  0.71183000  1
  C  C364  1  0.97660000  0.17394000  0.70894000  1
  C  C365  1  0.03591000  0.25220000  0.65147000  1
  C  C366  1  0.94929000  0.23797000  0.62855000  1
  C  C367  1  0.82715000  0.15351000  0.65617000  1
  C  C368  1  0.82530000  0.08435000  0.66143000  1
  C  C369  1  0.74118000  0.05072000  0.65135000  1
  C  C370  1  0.65979000  0.08520000  0.63576000  1
  C  C371  1  0.66431000  0.15443000  0.63042000  1
  C  C372  1  0.74736000  0.18916000  0.64014000  1
  C  C373  1  0.78855000  0.94504000  0.70032000  1
  C  C374  1  0.71289000  0.87332000  0.64457000  1
  C  C375  1  0.69070000  0.93498000  0.62233000  1
  C  C376  1  0.55756000  0.25339000  0.63937000  1
  C  C377  1  0.47411000  0.26934000  0.61256000  1
  C  C378  1  0.51468000  0.17213000  0.57659000  1
  C  C379  1  0.32907000  0.09623000  0.46992000  1
  C  C380  1  0.27265000  0.04182000  0.44131000  1
  C  C381  1  0.30829000  0.97686000  0.43941000  1
  C  C382  1  0.26076000  0.92759000  0.40761000  1
  C  C383  1  0.17761000  0.94264000  0.37667000  1
  C  C384  1  0.13993000  0.00704000  0.38070000  1
  C  C385  1  0.18700000  0.05609000  0.41307000  1
  C  C386  1  0.13493000  0.89364000  0.33360000  1
  C  C387  1  0.25119000  0.32353000  0.53684000  1
  C  C388  1  0.20422000  0.39284000  0.53622000  1
  C  C389  1  0.14491000  0.40649000  0.59047000  1
  C  C390  1  0.06898000  0.44627000  0.58797000  1
  C  C391  1  0.03485000  0.47578000  0.53208000  1
  C  C392  1  0.07639000  0.44800000  0.47755000  1
  C  C393  1  0.15332000  0.40877000  0.47844000  1
  C  C394  1  0.52191000  0.19472000  0.39881000  1
  C  C395  1  0.60137000  0.22172000  0.37401000  1
  C  C396  1  0.54553000  0.28871000  0.44544000  1
  C  C397  1  0.68569000  0.33019000  0.39097000  1
  C  C398  1  0.77747000  0.31036000  0.37907000  1
  C  C399  1  0.84320000  0.35927000  0.36410000  1
  C  C400  1  0.81829000  0.42660000  0.36239000  1
  C  C401  1  0.72569000  0.44461000  0.37352000  1
  C  C402  1  0.65835000  0.39672000  0.38754000  1
  C  C403  1  0.98927000  0.29097000  0.37770000  1
  C  C404  1  0.07480000  0.29242000  0.34967000  1
  C  C405  1  0.99221000  0.36988000  0.30720000  1
  C  C406  1  0.72704000  0.55840000  0.32833000  1
  C  C407  1  0.62314000  0.60636000  0.38496000  1
  C  C408  1  0.63122000  0.54271000  0.40628000  1
  C  C409  1  0.32596000  0.21781000  0.28496000  1
  C  C410  1  0.37944000  0.15482000  0.27777000  1
  C  C411  1  0.33282000  0.09527000  0.29118000  1
  C  C412  1  0.37985000  0.03481000  0.28890000  1
  C  C413  1  0.47463000  0.03201000  0.27179000  1
  C  C414  1  0.52033000  0.09189000  0.25670000  1
  C  C415  1  0.47378000  0.15260000  0.26023000  1
  N  N416  1  0.94855000  0.21231000  0.20154000  1
  N  N417  1  0.08733000  0.18764000  0.16496000  1
  N  N418  1  0.26043000  0.98042000  0.15789000  1
  N  N419  1  0.22706000  0.88032000  0.19330000  1
  N  N420  1  0.41759000  0.19127000  0.11631000  1
  N  N421  1  0.55118000  0.21865000  0.07341000  1
  N  N422  1  0.51245000  0.23700000  0.94285000  1
  N  N423  1  0.38428000  0.28167000  0.90397000  1
  N  N424  1  0.06352000  0.34117000  0.85083000  1
  N  N425  1  0.92435000  0.34161000  0.80563000  1
  N  N426  1  0.30196000  0.51217000  0.86991000  1
  N  N427  1  0.31761000  0.61556000  0.83634000  1
  N  N428  1  0.05146000  0.78770000  0.20152000  1
  N  N429  1  0.91268000  0.81237000  0.16495000  1
  N  N430  1  0.73958000  0.01959000  0.15788000  1
  N  N431  1  0.77295000  0.11969000  0.19330000  1
  N  N432  1  0.58241000  0.80874000  0.11630000  1
  N  N433  1  0.44882000  0.78135000  0.07340000  1
  N  N434  1  0.48755000  0.76301000  0.94285000  1
  N  N435  1  0.61572000  0.71834000  0.90397000  1
  N  N436  1  0.93649000  0.65884000  0.85083000  1
  N  N437  1  0.07566000  0.65840000  0.80562000  1
  N  N438  1  0.69804000  0.48784000  0.86991000  1
  N  N439  1  0.68240000  0.38445000  0.83634000  1
  N  N440  1  0.94855000  0.78770000  0.70152000  1
  N  N441  1  0.08733000  0.81237000  0.66495000  1
  N  N442  1  0.26042000  0.01959000  0.65788000  1
  N  N443  1  0.22705000  0.11969000  0.69330000  1
  N  N444  1  0.41759000  0.80874000  0.61630000  1
  N  N445  1  0.55118000  0.78135000  0.57340000  1
  N  N446  1  0.51245000  0.76301000  0.44284000  1
  N  N447  1  0.38428000  0.71834000  0.40397000  1
  N  N448  1  0.06352000  0.65883000  0.35083000  1
  N  N449  1  0.92434000  0.65839000  0.30562000  1
  N  N450  1  0.30196000  0.48784000  0.36991000  1
  N  N451  1  0.31760000  0.38445000  0.33634000  1
  N  N452  1  0.05145000  0.21231000  0.70153000  1
  N  N453  1  0.91267000  0.18764000  0.66496000  1
  N  N454  1  0.73957000  0.98042000  0.65789000  1
  N  N455  1  0.77294000  0.88032000  0.69329000  1
  N  N456  1  0.58240000  0.19127000  0.61631000  1
  N  N457  1  0.44882000  0.21865000  0.57341000  1
  N  N458  1  0.48755000  0.23700000  0.44285000  1
  N  N459  1  0.61572000  0.28167000  0.40398000  1
  N  N460  1  0.93648000  0.34117000  0.35084000  1
  N  N461  1  0.07565000  0.34160000  0.30563000  1
  N  N462  1  0.69803000  0.51217000  0.36991000  1
  N  N463  1  0.68239000  0.61556000  0.33634000  1
  O  O464  1  0.82827000  0.33347000  0.22729000  1
  O  O465  1  0.71410000  0.25806000  0.24242000  1
  O  O466  1  0.59317000  0.08374000  0.99384000  1
  O  O467  1  0.70827000  0.15505000  0.96657000  1
  O  O468  1  0.81935000  0.83777000  0.82712000  1
  O  O469  1  0.93570000  0.90956000  0.80347000  1
  O  O470  1  0.76014000  0.28351000  0.07910000  1
  O  O471  1  0.69369000  0.31332000  0.99085000  1
  O  O472  1  0.76002000  0.21903000  0.78810000  1
  O  O473  1  0.62000000  0.27246000  0.78775000  1
  O  O474  1  0.17173000  0.66653000  0.22729000  1
  O  O475  1  0.28590000  0.74194000  0.24242000  1
  O  O476  1  0.40683000  0.91627000  0.99384000  1
  O  O477  1  0.29173000  0.84496000  0.96657000  1
  O  O478  1  0.18065000  0.16223000  0.82712000  1
  O  O479  1  0.06430000  0.09044000  0.80347000  1
  O  O480  1  0.23984000  0.71648000  0.07909000  1
  O  O481  1  0.30631000  0.68668000  0.99085000  1
  O  O482  1  0.23994000  0.78098000  0.78810000  1
  O  O483  1  0.38000000  0.72755000  0.78775000  1
  O  O484  1  0.82827000  0.66654000  0.72729000  1
  O  O485  1  0.71410000  0.74194000  0.74242000  1
  O  O486  1  0.59317000  0.91627000  0.49384000  1
  O  O487  1  0.70828000  0.84496000  0.46657000  1
  O  O488  1  0.81935000  0.16223000  0.32712000  1
  O  O489  1  0.93570000  0.09044000  0.30348000  1
  O  O490  1  0.76016000  0.71648000  0.57909000  1
  O  O491  1  0.69369000  0.68668000  0.49085000  1
  O  O492  1  0.76003000  0.78098000  0.28810000  1
  O  O493  1  0.62000000  0.72755000  0.28775000  1
  O  O494  1  0.17173000  0.33347000  0.72729000  1
  O  O495  1  0.28589000  0.25806000  0.74242000  1
  O  O496  1  0.40683000  0.08374000  0.49384000  1
  O  O497  1  0.29172000  0.15505000  0.46657000  1
  O  O498  1  0.18065000  0.83777000  0.32712000  1
  O  O499  1  0.06431000  0.90956000  0.30346000  1
  O  O500  1  0.23985000  0.28351000  0.57910000  1
  O  O501  1  0.30631000  0.31332000  0.49085000  1
  O  O502  1  0.23996000  0.21903000  0.28810000  1
  O  O503  1  0.38000000  0.27246000  0.28775000  1
