# generated using pymatgen
data_SiH28(C9N)4
_symmetry_space_group_name_H-M   'P 1'
_cell_length_a   32.75940000
_cell_length_b   32.75930000
_cell_length_c   42.62100000
_cell_angle_alpha   89.98230000
_cell_angle_beta   90.01770000
_cell_angle_gamma   90.00000000
_symmetry_Int_Tables_number   1
_chemical_formula_structural   SiH28(C9N)4
_chemical_formula_sum   'Si8 H224 C288 N32'
_cell_volume   45739.78783924
_cell_formula_units_Z   8
loop_
 _symmetry_equiv_pos_site_id
 _symmetry_equiv_pos_as_xyz
  1  'x, y, z'
loop_
 _atom_site_type_symbol
 _atom_site_label
 _atom_site_symmetry_multiplicity
 _atom_site_fract_x
 _atom_site_fract_y
 _atom_site_fract_z
 _atom_site_occupancy
  Si  7  1  0.74299500  0.02191700  0.67293100  1
  Si  48  1  0.30045600  0.02142600  0.67305300  1
  Si  89  1  0.02208400  0.30061900  0.17311000  1
  Si  130  1  0.02159300  0.74315000  0.17287500  1
  Si  171  1  0.74333400  0.02204600  0.32939600  1
  Si  212  1  0.30019300  0.02139000  0.32963800  1
  Si  253  1  0.02145700  0.74303200  0.82940300  1
  Si  294  1  0.02206700  0.29990400  0.82963300  1
  H  26  1  0.84190500  0.91397800  0.67063200  1
  H  27  1  0.80130500  0.96535300  0.64669500  1
  H  28  1  0.78700600  0.93877700  0.75814500  1
  H  29  1  0.74616600  0.99037900  0.73457700  1
  H  30  1  0.72346800  0.07851300  0.72277500  1
  H  31  1  0.76316800  0.12968000  0.74763100  1
  H  32  1  0.86212500  0.10283800  0.68771700  1
  H  33  1  0.82300200  0.05114100  0.66290300  1
  H  34  1  0.76235900  0.08437000  0.62728700  1
  H  35  1  0.75925700  0.08432200  0.57171100  1
  H  36  1  0.71594400  0.96294900  0.57277400  1
  H  37  1  0.71913000  0.96240800  0.62855900  1
  H  38  1  0.68718600  0.96074200  0.69666600  1
  H  39  1  0.68358000  0.08299700  0.66408600  1
  H  40  1  0.61154200  0.08352200  0.67080600  1
  H  41  1  0.61535600  0.96209400  0.70381700  1
  H  67  1  0.20082000  0.12862400  0.67083600  1
  H  68  1  0.24135100  0.07721000  0.64694200  1
  H  69  1  0.25767800  0.10565800  0.75794600  1
  H  70  1  0.29849700  0.05403600  0.73440100  1
  H  71  1  0.32001300  0.96560200  0.72339900  1
  H  72  1  0.28044300  0.91451500  0.74853200  1
  H  73  1  0.18158000  0.94025300  0.68817500  1
  H  74  1  0.22057300  0.99182300  0.66308200  1
  H  75  1  0.28148500  0.95851000  0.62773800  1
  H  76  1  0.28469500  0.95813500  0.57215000  1
  H  77  1  0.32685400  0.07992300  0.57264700  1
  H  78  1  0.32353700  0.08089600  0.62840600  1
  H  79  1  0.35663500  0.08318300  0.69506800  1
  H  80  1  0.35952600  0.95979700  0.66506400  1
  H  81  1  0.43185600  0.95981400  0.67005500  1
  H  82  1  0.42880000  0.08239600  0.70051200  1
  H  108  1  0.91398600  0.20185800  0.17060900  1
  H  109  1  0.96544200  0.24240800  0.14676600  1
  H  110  1  0.93879300  0.25658800  0.25819200  1
  H  111  1  0.99046600  0.29738600  0.23471300  1
  H  112  1  0.07875100  0.32019100  0.22294400  1
  H  113  1  0.12993100  0.28051000  0.24782400  1
  H  114  1  0.10294400  0.18145900  0.18801500  1
  H  115  1  0.05124100  0.22057300  0.16317800  1
  H  116  1  0.08465300  0.28122900  0.12759500  1
  H  117  1  0.08475900  0.28432900  0.07202300  1
  H  118  1  0.96337300  0.32761400  0.07282800  1
  H  119  1  0.96269100  0.32446900  0.12860800  1
  H  120  1  0.96090400  0.35642600  0.19682100  1
  H  121  1  0.08314700  0.36005000  0.16429000  1
  H  122  1  0.08364500  0.43208800  0.17096700  1
  H  123  1  0.96223000  0.42826200  0.20394200  1
  H  149  1  0.12889300  0.84268200  0.17078700  1
  H  150  1  0.07749000  0.80217500  0.14682700  1
  H  151  1  0.10563300  0.78598400  0.25789900  1
  H  152  1  0.05401700  0.74520600  0.23429100  1
  H  153  1  0.96566900  0.72362600  0.22314800  1
  H  154  1  0.91458900  0.76324300  0.24821800  1
  H  155  1  0.94047300  0.86207300  0.18787500  1
  H  156  1  0.99204100  0.82303300  0.16284500  1
  H  157  1  0.95882200  0.76219900  0.12741600  1
  H  158  1  0.95859600  0.75892200  0.07182600  1
  H  159  1  0.08029600  0.71651800  0.07260800  1
  H  160  1  0.08113000  0.71992500  0.12836600  1
  H  161  1  0.08329400  0.68699300  0.19506100  1
  H  162  1  0.95999000  0.68408600  0.16479200  1
  H  163  1  0.95998100  0.61176000  0.16982700  1
  H  164  1  0.08247800  0.61481500  0.20054400  1
  H  190  1  0.86216800  0.10274800  0.31296600  1
  H  191  1  0.82347700  0.05128000  0.33839400  1
  H  192  1  0.76209500  0.12944800  0.25404900  1
  H  193  1  0.72278600  0.07843200  0.27954800  1
  H  194  1  0.74504100  0.99012300  0.26781900  1
  H  195  1  0.78574300  0.93877800  0.24380700  1
  H  196  1  0.84301900  0.91481700  0.33059100  1
  H  197  1  0.80266300  0.96595500  0.35493500  1
  H  198  1  0.72144300  0.96278500  0.37465800  1
  H  199  1  0.72141000  0.96351400  0.43051800  1
  H  200  1  0.76202300  0.08575600  0.42979100  1
  H  201  1  0.76244600  0.08545800  0.37420100  1
  H  202  1  0.68393400  0.08307600  0.33868800  1
  H  203  1  0.68713900  0.96060900  0.30664500  1
  H  204  1  0.61523300  0.96193000  0.29991800  1
  H  205  1  0.61180300  0.08356300  0.33241600  1
  H  231  1  0.18159400  0.94034400  0.31324500  1
  H  232  1  0.22023200  0.99175700  0.33877200  1
  H  233  1  0.28126700  0.91482100  0.25367800  1
  H  234  1  0.32055500  0.96579000  0.27930600  1
  H  235  1  0.29964900  0.05430600  0.26833700  1
  H  236  1  0.25901000  0.10567200  0.24424100  1
  H  237  1  0.19985600  0.12792700  0.33051100  1
  H  238  1  0.24010400  0.07672300  0.35492100  1
  H  239  1  0.32120100  0.08065900  0.37513400  1
  H  240  1  0.32137000  0.07946700  0.43098200  1
  H  241  1  0.28233000  0.95671400  0.42975100  1
  H  242  1  0.28181300  0.95746000  0.37415100  1
  H  243  1  0.35929100  0.95978800  0.33796500  1
  H  244  1  0.35664800  0.08349400  0.30867700  1
  H  245  1  0.42886600  0.08273900  0.30354500  1
  H  246  1  0.43168700  0.95985300  0.33333333  1
  H  272  1  0.94089600  0.86197800  0.81299200  1
  H  273  1  0.99231200  0.82319100  0.83841400  1
  H  274  1  0.91411000  0.76202100  0.75402000  1
  H  275  1  0.96509100  0.72262000  0.77950800  1
  H  276  1  0.05357900  0.74485900  0.76789800  1
  H  277  1  0.10500800  0.78559300  0.74401100  1
  H  278  1  0.12873400  0.84266500  0.83088500  1
  H  279  1  0.07750600  0.80227100  0.85510700  1
  H  280  1  0.08055100  0.72111100  0.87481000  1
  H  281  1  0.07959100  0.72104700  0.93066900  1
  H  282  1  0.95730100  0.76151900  0.92963600  1
  H  283  1  0.95783500  0.76198600  0.87405000  1
  H  284  1  0.96040700  0.68361100  0.83852000  1
  H  285  1  0.08299000  0.68690200  0.80673900  1
  H  286  1  0.08172100  0.61499000  0.80000300  1
  H  287  1  0.95997200  0.61149100  0.83224700  1
  H  313  1  0.10314600  0.18132400  0.81328200  1
  H  314  1  0.05171100  0.21993500  0.83879400  1
  H  315  1  0.12873000  0.28107500  0.75375500  1
  H  316  1  0.07775300  0.32033000  0.77937400  1
  H  317  1  0.98936300  0.29944900  0.76828100  1
  H  318  1  0.93806400  0.25885700  0.74407000  1
  H  319  1  0.91554600  0.19954100  0.83025600  1
  H  320  1  0.96668000  0.23974600  0.85478900  1
  H  321  1  0.96265500  0.32092400  0.87498700  1
  H  322  1  0.96364700  0.32112400  0.93083400  1
  H  323  1  0.08634900  0.28190800  0.92989900  1
  H  324  1  0.08581100  0.28137500  0.87429300  1
  H  325  1  0.08366800  0.35896100  0.83809700  1
  H  326  1  0.96006800  0.35641200  0.80853800  1
  H  327  1  0.96088000  0.42863500  0.80341000  1
  H  328  1  0.08366700  0.43135800  0.83344700  1
  H  331  1  0.80228900  0.80471300  0.78425200  1
  H  332  1  0.84745300  0.77587700  0.78711400  1
  H  333  1  0.81941800  0.77585300  0.75159000  1
  H  338  1  0.90606600  0.94482000  0.70252000  1
  H  339  1  0.93732000  0.94351300  0.73632500  1
  H  340  1  0.88925300  0.96805100  0.73793200  1
  H  345  1  0.24114300  0.23954900  0.78346900  1
  H  346  1  0.19576200  0.26800300  0.78647300  1
  H  347  1  0.22336400  0.26796300  0.75076100  1
  H  352  1  0.13760800  0.09775800  0.70328500  1
  H  353  1  0.10680300  0.09911500  0.73731300  1
  H  354  1  0.15510400  0.07502400  0.73871100  1
  H  359  1  0.80468700  0.24133400  0.28420000  1
  H  360  1  0.77591400  0.19613300  0.28708200  1
  H  361  1  0.77584500  0.22412700  0.25154000  1
  H  366  1  0.94479000  0.13764000  0.20245000  1
  H  367  1  0.94354400  0.10635900  0.23624300  1
  H  368  1  0.96807300  0.15443000  0.23785700  1
  H  373  1  0.23976700  0.80237700  0.28344000  1
  H  374  1  0.26824000  0.84775500  0.28640100  1
  H  375  1  0.26811200  0.82013200  0.25070000  1
  H  380  1  0.09791300  0.90593200  0.20323100  1
  H  381  1  0.09933700  0.93678100  0.23723300  1
  H  382  1  0.07521600  0.88849500  0.23867600  1
  H  387  1  0.24193300  0.23891500  0.21797200  1
  H  388  1  0.19657000  0.26734500  0.21465500  1
  H  389  1  0.22387200  0.26741300  0.25052200  1
  H  394  1  0.13754000  0.09741800  0.29788800  1
  H  395  1  0.10712500  0.09866500  0.26364200  1
  H  396  1  0.15542600  0.07453800  0.26265000  1
  H  401  1  0.80218500  0.80419200  0.21827800  1
  H  402  1  0.84764000  0.77588000  0.21512900  1
  H  403  1  0.82032900  0.77599000  0.25097500  1
  H  408  1  0.90592700  0.94643000  0.29779900  1
  H  409  1  0.93659300  0.94509200  0.26369400  1
  H  410  1  0.88825500  0.96912800  0.26241300  1
  H  415  1  0.23957600  0.80206000  0.71860600  1
  H  416  1  0.26786600  0.84753400  0.71548800  1
  H  417  1  0.26772800  0.82018000  0.75132900  1
  H  422  1  0.09725500  0.90566500  0.79813500  1
  H  423  1  0.09861100  0.93638600  0.76404600  1
  H  424  1  0.07458100  0.88804700  0.76273200  1
  H  429  1  0.80457200  0.24178500  0.71783600  1
  H  430  1  0.77619500  0.19639500  0.71450500  1
  H  431  1  0.77618100  0.22358800  0.75040700  1
  H  436  1  0.94628500  0.13733700  0.79755500  1
  H  437  1  0.94500600  0.10695600  0.76330700  1
  H  438  1  0.96911300  0.15526600  0.76230500  1
  H  443  1  0.49896600  0.05615400  0.61552500  1
  H  444  1  0.45410600  0.02923800  0.62531900  1
  H  445  1  0.49769200  0.00214900  0.61250600  1
  H  450  1  0.57632400  0.99135000  0.75264500  1
  H  451  1  0.53387200  0.01843900  0.76752400  1
  H  452  1  0.57692000  0.04560300  0.75361900  1
  H  457  1  0.05620100  0.54445700  0.11551800  1
  H  458  1  0.02930600  0.58935100  0.12524100  1
  H  459  1  0.00219100  0.54573800  0.11249600  1
  H  464  1  0.99151300  0.46745600  0.25275100  1
  H  465  1  0.01860600  0.50995100  0.26757000  1
  H  466  1  0.04576800  0.46687300  0.25373200  1
  H  471  1  0.49796300  0.00291800  0.39125800  1
  H  472  1  0.45426000  0.02975000  0.37832500  1
  H  473  1  0.49907000  0.05689800  0.38790700  1
  H  478  1  0.57674400  0.04498500  0.24980400  1
  H  479  1  0.53360600  0.01777000  0.23611800  1
  H  480  1  0.57606100  0.99074100  0.25108100  1
  H  485  1  0.04058800  0.49766700  0.89126200  1
  H  486  1  0.01376600  0.45397500  0.87832500  1
  H  487  1  0.98661100  0.49878600  0.88787200  1
  H  492  1  0.99871100  0.57648300  0.74975300  1
  H  493  1  0.02598300  0.53336800  0.73610400  1
  H  494  1  0.05295500  0.57583900  0.75108500  1
  H  499  1  0.63907100  0.03116300  0.51504700  1
  H  500  1  0.65664400  0.01275300  0.55143700  1
  H  501  1  0.64980900  0.97843400  0.51979100  1
  H  506  1  0.82824500  0.01304000  0.46027800  1
  H  507  1  0.84179800  0.04024600  0.49456400  1
  H  508  1  0.82125900  0.06681100  0.46218800  1
  H  513  1  0.40456500  0.01208400  0.51540300  1
  H  514  1  0.38673700  0.03029000  0.55176600  1
  H  515  1  0.39333000  0.06470600  0.52013300  1
  H  520  1  0.21529000  0.02866300  0.46037200  1
  H  521  1  0.20193600  0.00120900  0.49459400  1
  H  522  1  0.22278400  0.97495600  0.46220700  1
  H  527  1  0.03115700  0.40448600  0.01505100  1
  H  528  1  0.01293600  0.38690600  0.05148700  1
  H  529  1  0.97850300  0.39343600  0.01985200  1
  H  534  1  0.01414100  0.21503500  0.96059900  1
  H  535  1  0.04154800  0.20176700  0.99487000  1
  H  536  1  0.06785700  0.22245500  0.96243700  1
  H  541  1  0.01203000  0.63886200  0.01540600  1
  H  542  1  0.03041500  0.65669800  0.05172100  1
  H  543  1  0.06472500  0.64981500  0.02007500  1
  H  548  1  0.02983400  0.82786700  0.96005800  1
  H  549  1  0.00257000  0.84152900  0.99428200  1
  H  550  1  0.97606500  0.82086100  0.96193700  1
  C  1  1  0.60706800  0.02347400  0.68922800  1
  C  2  1  0.62752200  0.05799100  0.67726500  1
  C  3  1  0.67007300  0.05748900  0.67335800  1
  C  4  1  0.69339200  0.02249700  0.68126500  1
  C  5  1  0.67235800  0.98765500  0.69253000  1
  C  6  1  0.62979100  0.98821500  0.69667100  1
  C  8  1  0.74295000  0.02269000  0.63384700  1
  C  9  1  0.72808400  0.98839000  0.61707600  1
  C  10  1  0.72577300  0.98866400  0.58414200  1
  C  11  1  0.73703700  0.02376400  0.56700500  1
  C  12  1  0.75125500  0.05828800  0.58351800  1
  C  13  1  0.75351100  0.05799700  0.61644500  1
  C  14  1  0.76811700  0.06096500  0.68885300  1
  C  15  1  0.76765200  0.98183200  0.68772200  1
  C  16  1  0.79626600  0.95915300  0.66987900  1
  C  17  1  0.82074000  0.92904100  0.68398400  1
  C  18  1  0.81739200  0.92094900  0.71637000  1
  C  19  1  0.78895600  0.94312500  0.73439600  1
  C  20  1  0.76502500  0.97366900  0.72034200  1
  C  21  1  0.75192400  0.08422200  0.71397000  1
  C  22  1  0.77539000  0.11451000  0.72885700  1
  C  23  1  0.81580000  0.12253600  0.71912400  1
  C  24  1  0.83252700  0.09863800  0.69474200  1
  C  25  1  0.80920700  0.06817300  0.68004700  1
  C  42  1  0.43667600  0.02076100  0.68651600  1
  C  43  1  0.41596300  0.98542200  0.67643200  1
  C  44  1  0.37327200  0.98564100  0.67353700  1
  C  45  1  0.35014300  0.02090400  0.68105600  1
  C  46  1  0.37143300  0.05619300  0.69117100  1
  C  47  1  0.41416300  0.05602400  0.69418800  1
  C  49  1  0.30028500  0.02042500  0.63398600  1
  C  50  1  0.31482300  0.05474000  0.61705300  1
  C  51  1  0.31723100  0.05421300  0.58413200  1
  C  52  1  0.30638100  0.01884900  0.56717400  1
  C  53  1  0.29241000  0.98433800  0.58383700  1
  C  54  1  0.29007600  0.98488100  0.61675900  1
  C  55  1  0.27540400  0.98253900  0.68924500  1
  C  56  1  0.27594700  0.06162800  0.68773600  1
  C  57  1  0.24680900  0.08381800  0.67000500  1
  C  58  1  0.22239100  0.11396900  0.68408800  1
  C  59  1  0.22626900  0.12254900  0.71636300  1
  C  60  1  0.25524200  0.10087800  0.73427200  1
  C  61  1  0.27920500  0.07036400  0.72023000  1
  C  62  1  0.29159600  0.95967400  0.71458900  1
  C  63  1  0.26820400  0.92946800  0.72964700  1
  C  64  1  0.22787600  0.92114400  0.71985600  1
  C  65  1  0.21112300  0.94469100  0.69526300  1
  C  66  1  0.23437100  0.97506900  0.68039900  1
  C  83  1  0.02360800  0.43655600  0.18938600  1
  C  84  1  0.05813100  0.41610500  0.17744100  1
  C  85  1  0.05764700  0.37354800  0.17357200  1
  C  86  1  0.02264900  0.35022300  0.18143900  1
  C  87  1  0.98780800  0.37126300  0.19268700  1
  C  88  1  0.98837800  0.41382400  0.19687300  1
  C  90  1  0.02296300  0.30065900  0.13403000  1
  C  91  1  0.98870700  0.31551400  0.11718200  1
  C  92  1  0.98906800  0.31781100  0.08424700  1
  C  93  1  0.02422100  0.30656600  0.06718300  1
  C  94  1  0.05869700  0.29234000  0.08377300  1
  C  95  1  0.05831100  0.29008300  0.11669800  1
  C  96  1  0.06108700  0.27548400  0.18909700  1
  C  97  1  0.98196700  0.27596700  0.18783200  1
  C  98  1  0.95923100  0.24743300  0.16994700  1
  C  99  1  0.92903000  0.22301900  0.18398700  1
  C  100  1  0.92093600  0.22629900  0.21637500  1
  C  101  1  0.94317600  0.25464400  0.23444800  1
  C  102  1  0.97374900  0.27857000  0.22044300  1
  C  103  1  0.08438500  0.29169500  0.21419300  1
  C  104  1  0.11469700  0.26824600  0.22908400  1
  C  105  1  0.12269100  0.22782100  0.21938500  1
  C  106  1  0.09875200  0.21106300  0.19502600  1
  C  107  1  0.06828500  0.23437900  0.18032000  1
  C  124  1  0.02088700  0.60694200  0.18642000  1
  C  125  1  0.98558000  0.62765200  0.17624000  1
  C  126  1  0.98581400  0.67034000  0.17331600  1
  C  127  1  0.02105600  0.69347300  0.18091800  1
  C  128  1  0.05633500  0.67218000  0.19106600  1
  C  129  1  0.05613800  0.62945800  0.19413700  1
  C  131  1  0.02068900  0.74330000  0.13380300  1
  C  132  1  0.05501700  0.72865400  0.11695400  1
  C  133  1  0.05457700  0.72621200  0.08403400  1
  C  134  1  0.01928200  0.73711400  0.06699300  1
  C  135  1  0.98474500  0.75115100  0.08357400  1
  C  136  1  0.98520400  0.75353700  0.11649700  1
  C  137  1  0.98265700  0.76820200  0.18898900  1
  C  138  1  0.06176700  0.76766100  0.18761900  1
  C  139  1  0.08403500  0.79674300  0.16990700  1
  C  140  1  0.11416600  0.82115500  0.18403100  1
  C  141  1  0.12269300  0.81728900  0.21632100  1
  C  142  1  0.10097800  0.78832900  0.23420200  1
  C  143  1  0.07043100  0.76442400  0.22013100  1
  C  144  1  0.95976400  0.75203800  0.21431500  1
  C  145  1  0.92958600  0.77547200  0.22935400  1
  C  146  1  0.92129200  0.81579800  0.21954000  1
  C  147  1  0.94487600  0.83252800  0.19497000  1
  C  148  1  0.97525200  0.80925000  0.18014100  1
  C  165  1  0.60709800  0.02340500  0.31427900  1
  C  166  1  0.62974800  0.98809900  0.30685800  1
  C  167  1  0.67235400  0.98753700  0.31079800  1
  C  168  1  0.69353700  0.02245500  0.32174500  1
  C  169  1  0.67030400  0.05748300  0.32966600  1
  C  170  1  0.62770100  0.05795800  0.32603700  1
  C  172  1  0.74453400  0.02319400  0.36846200  1
  C  173  1  0.75511500  0.05885900  0.38540600  1
  C  174  1  0.75478800  0.05924300  0.41837100  1
  C  175  1  0.74352000  0.02409200  0.43544300  1
  C  176  1  0.73060900  0.98918800  0.41877300  1
  C  177  1  0.73088700  0.98885100  0.38578400  1
  C  178  1  0.76777000  0.98197600  0.31438000  1
  C  179  1  0.76809800  0.06098800  0.31299100  1
  C  180  1  0.80936600  0.06819800  0.32132100  1
  C  181  1  0.83244600  0.09852200  0.30625100  1
  C  182  1  0.81528700  0.12229300  0.28195500  1
  C  183  1  0.77467500  0.11428700  0.27270400  1
  C  184  1  0.75143600  0.08414000  0.28798500  1
  C  185  1  0.76435900  0.97360200  0.28183300  1
  C  186  1  0.78828500  0.94329000  0.26750400  1
  C  187  1  0.81733900  0.92141700  0.28518100  1
  C  188  1  0.82136400  0.92960500  0.31750600  1
  C  189  1  0.79701800  0.95959000  0.33186200  1
  C  206  1  0.43664100  0.02096100  0.31721900  1
  C  207  1  0.41418000  0.05633800  0.30973200  1
  C  208  1  0.37143000  0.05648900  0.31257600  1
  C  209  1  0.35004500  0.02106000  0.32227800  1
  C  210  1  0.37312200  0.98575700  0.32980200  1
  C  211  1  0.41584400  0.98556900  0.32710400  1
  C  213  1  0.29885900  0.02001000  0.36868900  1
  C  214  1  0.28880500  0.98405900  0.38547700  1
  C  215  1  0.28922100  0.98340300  0.41843900  1
  C  216  1  0.30008300  0.01855400  0.43564700  1
  C  217  1  0.31247900  0.05377200  0.41912900  1
  C  218  1  0.31209900  0.05438700  0.38614800  1
  C  219  1  0.27589800  0.06157400  0.31466200  1
  C  220  1  0.27543600  0.98259100  0.31305700  1
  C  221  1  0.23427300  0.97510500  0.32152700  1
  C  222  1  0.21122600  0.94480900  0.30640100  1
  C  223  1  0.22830100  0.92137800  0.28189400  1
  C  224  1  0.26877100  0.92973000  0.27246900  1
  C  225  1  0.29197700  0.95986600  0.28779700  1
  C  226  1  0.27992300  0.07047600  0.28224100  1
  C  227  1  0.25609800  0.10086700  0.26788000  1
  C  228  1  0.22643100  0.12216700  0.28535200  1
  C  229  1  0.22186500  0.11349100  0.31756200  1
  C  230  1  0.24614800  0.08347800  0.33197300  1
  C  247  1  0.02019900  0.60682400  0.81423400  1
  C  248  1  0.05553600  0.62949000  0.80692000  1
  C  249  1  0.05606800  0.67209000  0.81086400  1
  C  250  1  0.02108100  0.69325800  0.82169000  1
  C  251  1  0.98602900  0.67000300  0.82953600  1
  C  252  1  0.98558700  0.62740300  0.82590500  1
  C  254  1  0.02014200  0.74413900  0.86846500  1
  C  255  1  0.98438100  0.75463200  0.88532100  1
  C  256  1  0.98386100  0.75428400  0.91828400  1
  C  257  1  0.01896000  0.74307300  0.93544000  1
  C  258  1  0.05395100  0.73020400  0.91885900  1
  C  259  1  0.05441700  0.73048400  0.88587100  1
  C  260  1  0.06158600  0.76748800  0.81449000  1
  C  261  1  0.98258200  0.76787400  0.81296000  1
  C  262  1  0.97539700  0.80913100  0.82131900  1
  C  263  1  0.94510400  0.83226700  0.80625500  1
  C  264  1  0.92132700  0.81516600  0.78194700  1
  C  265  1  0.92930600  0.77457000  0.77266400  1
  C  266  1  0.95944900  0.75128700  0.78792300  1
  C  267  1  0.07004100  0.76416500  0.78195300  1
  C  268  1  0.10042600  0.78808700  0.76770400  1
  C  269  1  0.12227100  0.81708500  0.78544300  1
  C  270  1  0.11397800  0.82104400  0.81775400  1
  C  271  1  0.08393800  0.79667900  0.83204000  1
  C  288  1  0.02261200  0.43636800  0.81722800  1
  C  289  1  0.98724200  0.41393700  0.80968500  1
  C  290  1  0.98704700  0.37118500  0.81254400  1
  C  291  1  0.02244000  0.34976700  0.82229600  1
  C  292  1  0.05773100  0.37281700  0.82989000  1
  C  293  1  0.05795800  0.41554200  0.82718500  1
  C  295  1  0.02330400  0.29850500  0.86868700  1
  C  296  1  0.05918800  0.28842800  0.88555800  1
  C  297  1  0.05971700  0.28884500  0.91852300  1
  C  298  1  0.02450900  0.29974500  0.93564700  1
  C  299  1  0.98936600  0.31217600  0.91904500  1
  C  300  1  0.98888000  0.31180100  0.88606100  1
  C  301  1  0.98190500  0.27564500  0.81458900  1
  C  302  1  0.06091100  0.27517200  0.81310200  1
  C  303  1  0.06838100  0.23399600  0.82156000  1
  C  304  1  0.09868700  0.21096100  0.80644300  1
  C  305  1  0.12212600  0.22806200  0.78194500  1
  C  306  1  0.11379500  0.26854900  0.77253100  1
  C  307  1  0.08366400  0.29174000  0.78785900  1
  C  308  1  0.97314200  0.27970900  0.78214600  1
  C  309  1  0.94283100  0.25587100  0.76770900  1
  C  310  1  0.92144200  0.22619900  0.78512600  1
  C  311  1  0.93004100  0.22156100  0.81734500  1
  C  312  1  0.95994400  0.24587500  0.83184700  1
  C  329  1  0.82923500  0.79464500  0.77133400  1
  C  330  1  0.85168900  0.83063200  0.75942800  1
  C  335  1  0.84455000  0.89390200  0.73132700  1
  C  336  1  0.88591000  0.90353700  0.73745800  1
  C  337  1  0.90580500  0.94217500  0.72802600  1
  C  342  1  0.89333800  0.83993700  0.76528200  1
  C  343  1  0.21395200  0.24926100  0.77067600  1
  C  344  1  0.19167900  0.21297000  0.75912600  1
  C  349  1  0.19907700  0.14948800  0.73137700  1
  C  350  1  0.15786600  0.13955900  0.73781900  1
  C  351  1  0.13819200  0.10065400  0.72877000  1
  C  356  1  0.15017000  0.20338000  0.76527100  1
  C  357  1  0.79465500  0.21435700  0.27129600  1
  C  358  1  0.83067200  0.19194100  0.25941900  1
  C  363  1  0.89389500  0.19911900  0.23129900  1
  C  364  1  0.90355800  0.15776100  0.23741600  1
  C  365  1  0.94218500  0.13788300  0.22795600  1
  C  370  1  0.84000000  0.15029200  0.26526400  1
  C  371  1  0.24945700  0.82955800  0.27062700  1
  C  372  1  0.21314200  0.85182900  0.25910200  1
  C  377  1  0.14963500  0.84446200  0.23136500  1
  C  378  1  0.13974700  0.88569000  0.23776600  1
  C  379  1  0.10084400  0.90537800  0.22871400  1
  C  384  1  0.20359000  0.89335400  0.26522400  1
  C  385  1  0.21463300  0.24865700  0.23059500  1
  C  386  1  0.19226200  0.21239400  0.24209200  1
  C  391  1  0.19939800  0.14897200  0.26999100  1
  C  392  1  0.15821900  0.13907500  0.26338000  1
  C  393  1  0.13842100  0.10022100  0.27240300  1
  C  398  1  0.15076300  0.20286600  0.23581800  1
  C  399  1  0.82951200  0.79463200  0.23096600  1
  C  400  1  0.85176000  0.83105100  0.24230300  1
  C  405  1  0.84442800  0.89460000  0.26994500  1
  C  406  1  0.88557400  0.90459300  0.26332600  1
  C  407  1  0.90524100  0.94352100  0.27231700  1
  C  412  1  0.89321800  0.84069400  0.23598700  1
  C  413  1  0.24910500  0.82937700  0.73130600  1
  C  414  1  0.21265900  0.85158900  0.74262200  1
  C  419  1  0.14910900  0.84421400  0.77025600  1
  C  420  1  0.13911600  0.88537200  0.76366600  1
  C  421  1  0.10017800  0.90502000  0.77265300  1
  C  426  1  0.20301600  0.89306000  0.73633400  1
  C  427  1  0.79490000  0.21443500  0.73044000  1
  C  428  1  0.83122500  0.19208300  0.74185000  1
  C  433  1  0.89467600  0.19920500  0.76970100  1
  C  434  1  0.90457800  0.15803500  0.76307900  1
  C  435  1  0.94345100  0.13824100  0.77207200  1
  C  440  1  0.84075600  0.15059200  0.73556000  1
  C  441  1  0.48733400  0.02824300  0.62627800  1
  C  442  1  0.50326600  0.02476800  0.65866400  1
  C  447  1  0.56412200  0.02277100  0.69007500  1
  C  448  1  0.54035400  0.02004000  0.71775700  1
  C  449  1  0.55783900  0.01877000  0.74972200  1
  C  454  1  0.47952800  0.02188100  0.68637100  1
  C  455  1  0.02829900  0.55612300  0.12625200  1
  C  456  1  0.02484700  0.54027900  0.15866400  1
  C  461  1  0.02288800  0.47950200  0.19016900  1
  C  462  1  0.02017900  0.50334100  0.21781100  1
  C  463  1  0.01893100  0.48593700  0.24980200  1
  C  468  1  0.02197700  0.56408700  0.18633300  1
  C  469  1  0.48749300  0.02885300  0.37734000  1
  C  470  1  0.50334100  0.02512000  0.34496200  1
  C  475  1  0.56412900  0.02277300  0.31349800  1
  C  476  1  0.54026300  0.01979600  0.28586900  1
  C  477  1  0.55763400  0.01821800  0.25388200  1
  C  482  1  0.47951100  0.02198400  0.31731300  1
  C  483  1  0.01467200  0.48720500  0.87732900  1
  C  484  1  0.01844400  0.50306400  0.84494700  1
  C  489  1  0.02083400  0.56385700  0.81346800  1
  C  490  1  0.02386600  0.54000000  0.78584900  1
  C  491  1  0.02548600  0.55738800  0.75386100  1
  C  496  1  0.02162600  0.47923800  0.81730800  1
  C  497  1  0.65956800  0.00919200  0.52612800  1
  C  498  1  0.70171200  0.01601600  0.51483300  1
  C  503  1  0.74314600  0.02437700  0.46859800  1
  C  504  1  0.77780500  0.03208100  0.48762100  1
  C  505  1  0.81962900  0.03842900  0.47546800  1
  C  510  1  0.73635200  0.02397300  0.53385900  1
  C  511  1  0.38384200  0.03385400  0.52644900  1
  C  512  1  0.34178500  0.02664800  0.51507200  1
  C  517  1  0.30048400  0.01803400  0.46879000  1
  C  518  1  0.26586300  0.00999800  0.48776000  1
  C  519  1  0.22412100  0.00330300  0.47553600  1
  C  524  1  0.30716800  0.01842300  0.53404200  1
  C  525  1  0.00933600  0.38388500  0.02618400  1
  C  526  1  0.01640100  0.34175200  0.01495500  1
  C  531  1  0.02492900  0.30024200  0.96879200  1
  C  532  1  0.03285800  0.26567900  0.98786100  1
  C  533  1  0.03950100  0.22388200  0.97575100  1
  C  538  1  0.02448900  0.30718900  0.03403700  1
  C  539  1  0.03393600  0.65949600  0.02639800  1
  C  540  1  0.02694500  0.70155400  0.01494600  1
  C  545  1  0.01857300  0.74279100  0.96859300  1
  C  546  1  0.01077500  0.77751200  0.98751400  1
  C  547  1  0.00442700  0.81929100  0.97524800  1
  C  552  1  0.01893300  0.73626600  0.03386400  1
  N  334  1  0.82944700  0.85840300  0.74298100  1
  N  341  1  0.90793300  0.87596600  0.75410700  1
  N  348  1  0.21398700  0.18523500  0.74271600  1
  N  355  1  0.13578200  0.16711100  0.75441500  1
  N  362  1  0.85840000  0.21420100  0.24295800  1
  N  369  1  0.87601900  0.13571800  0.25407000  1
  N  376  1  0.18538800  0.82953200  0.24269500  1
  N  383  1  0.16732400  0.90776500  0.25435600  1
  N  390  1  0.21442700  0.18467300  0.25864700  1
  N  397  1  0.13625800  0.16664300  0.24668100  1
  N  404  1  0.82950700  0.85878400  0.25875300  1
  N  411  1  0.90762500  0.87701600  0.24672600  1
  N  418  1  0.18493000  0.82931200  0.75906700  1
  N  425  1  0.16669200  0.90744800  0.74707500  1
  N  432  1  0.85894400  0.21423100  0.75841000  1
  N  439  1  0.87700000  0.13608700  0.74638800  1
  N  446  1  0.54441900  0.02518200  0.66211000  1
  N  453  1  0.49908800  0.01993200  0.71443200  1
  N  460  1  0.02527000  0.49913800  0.16217400  1
  N  467  1  0.02005900  0.54460100  0.21442500  1
  N  474  1  0.54449100  0.02546300  0.34146800  1
  N  481  1  0.49899900  0.01975200  0.28924300  1
  N  488  1  0.01810700  0.54421100  0.84144200  1
  N  495  1  0.02389800  0.49873700  0.78923600  1
  N  502  1  0.70710500  0.01666400  0.48322700  1
  N  509  1  0.77243200  0.03128600  0.51919200  1
  N  516  1  0.33644600  0.02602300  0.48345900  1
  N  523  1  0.27116900  0.01082500  0.51933600  1
  N  530  1  0.01703100  0.33628000  0.98335900  1
  N  537  1  0.03202600  0.27112000  0.01942300  1
  N  544  1  0.02633900  0.70681800  0.98332400  1
  N  551  1  0.01157700  0.77227800  0.01910100  1
