# generated using pymatgen
data_Cu2H4C9N4O5
_symmetry_space_group_name_H-M   'P 1'
_cell_length_a   6.76992000
_cell_length_b   10.10004000
_cell_length_c   12.16987000
_cell_angle_alpha   109.02929000
_cell_angle_beta   90.00000000
_cell_angle_gamma   90.00000000
_symmetry_Int_Tables_number   1
_chemical_formula_structural   Cu2H4C9N4O5
_chemical_formula_sum   'Cu4 H8 C18 N8 O10'
_cell_volume   786.65829362
_cell_formula_units_Z   2
loop_
 _symmetry_equiv_pos_site_id
 _symmetry_equiv_pos_as_xyz
  1  'x, y, z'
loop_
 _atom_site_type_symbol
 _atom_site_label
 _atom_site_symmetry_multiplicity
 _atom_site_fract_x
 _atom_site_fract_y
 _atom_site_fract_z
 _atom_site_occupancy
  Cu  Cu1  1  0.25000000  0.85604000  0.23907000  1.0
  Cu  Cu2  1  0.75000000  0.14398000  0.76093000  1.0
  Cu  Cu3  1  0.00000000  0.00001000  0.50000000  1.0
  Cu  Cu4  1  0.50000000  0.00001000  0.50000000  1.0
  H  H1  1  0.25000000  0.41775000  0.28181000  1.0
  H  H2  1  0.25000000  0.04330000  0.98405000  1.0
  H  H3  1  0.25000000  0.45059000  0.93796000  1.0
  H  H4  1  0.25000000  0.08400000  0.38402000  1.0
  H  H5  1  0.75000000  0.58225000  0.71820000  1.0
  H  H6  1  0.75000000  0.95671000  0.01595000  1.0
  H  H7  1  0.75000000  0.54942000  0.06205000  1.0
  H  H8  1  0.75000000  0.91603000  0.61597000  1.0
  C  C1  1  0.25000000  0.60444000  0.15916000  1.0
  C  C2  1  0.25000000  0.44913000  0.11380000  1.0
  C  C3  1  0.25000000  0.36809000  0.18790000  1.0
  C  C4  1  0.25000000  0.22173000  0.14043000  1.0
  C  C5  1  0.25000000  0.15706000  0.01937000  1.0
  C  C6  1  0.25000000  0.23844000  0.94599000  1.0
  C  C7  1  0.25000000  0.38448000  0.99297000  1.0
  C  C8  1  0.25000000  0.13264000  0.21764000  1.0
  C  C9  1  0.25000000  0.16977000  0.81904000  1.0
  C  C10  1  0.75000000  0.39558000  0.84085000  1.0
  C  C11  1  0.75000000  0.55088000  0.88621000  1.0
  C  C12  1  0.75000000  0.63192000  0.81210000  1.0
  C  C13  1  0.75000000  0.77828000  0.85957000  1.0
  C  C14  1  0.75000000  0.84295000  0.98063000  1.0
  C  C15  1  0.75000000  0.76157000  0.05401000  1.0
  C  C16  1  0.75000000  0.61553000  0.00704000  1.0
  C  C17  1  0.75000000  0.86737000  0.78236000  1.0
  C  C18  1  0.75000000  0.83024000  0.18096000  1.0
  N  N1  1  0.08637000  0.13317000  0.75242000  1.0
  N  N2  1  0.15174000  0.07474000  0.64469000  1.0
  N  N3  1  0.58637000  0.86684000  0.24758000  1.0
  N  N4  1  0.65174000  0.92528000  0.35531000  1.0
  N  N5  1  0.91363000  0.86684000  0.24758000  1.0
  N  N6  1  0.84826000  0.92528000  0.35531000  1.0
  N  N7  1  0.41363000  0.13317000  0.75242000  1.0
  N  N8  1  0.34826000  0.07474000  0.64469000  1.0
  O  O1  1  0.25000000  0.67434000  0.08891000  1.0
  O  O2  1  0.25000000  0.67098000  0.26978000  1.0
  O  O3  1  0.25000000  0.19093000  0.32730000  1.0
  O  O4  1  0.25000000  0.99989000  0.16418000  1.0
  O  O5  1  0.25000000  0.99385000  0.41134000  1.0
  O  O6  1  0.75000000  0.32567000  0.91110000  1.0
  O  O7  1  0.75000000  0.32903000  0.73023000  1.0
  O  O8  1  0.75000000  0.80909000  0.67270000  1.0
  O  O9  1  0.75000000  0.00012000  0.83582000  1.0
  O  O10  1  0.75000000  0.00617000  0.58866000  1.0
