# generated using pymatgen
data_ZnH12C9N4O3
_symmetry_space_group_name_H-M   'P 1'
_cell_length_a   9.11724160
_cell_length_b   9.22048000
_cell_length_c   9.67335000
_cell_angle_alpha   89.90341000
_cell_angle_beta   62.12792795
_cell_angle_gamma   89.65759804
_symmetry_Int_Tables_number   1
_chemical_formula_structural   ZnH12C9N4O3
_chemical_formula_sum   'Zn2 H24 C18 N8 O6'
_cell_volume   718.84445127
_cell_formula_units_Z   2
loop_
 _symmetry_equiv_pos_site_id
 _symmetry_equiv_pos_as_xyz
  1  'x, y, z'
loop_
 _atom_site_type_symbol
 _atom_site_label
 _atom_site_symmetry_multiplicity
 _atom_site_fract_x
 _atom_site_fract_y
 _atom_site_fract_z
 _atom_site_occupancy
  Zn  Zn0  1  0.59616000  0.42715000  0.13411000  1
  Zn  Zn1  1  0.40240000  0.92971000  0.86271000  1
  H  H2  1  0.46290000  0.74643000  0.11039000  1
  H  H3  1  0.69984000  0.56209000  0.52170000  1
  H  H4  1  0.65609000  0.75158000  0.54027000  1
  H  H5  1  0.42332000  0.39338000  0.64530000  1
  H  H6  1  0.69861000  0.42507000  0.76730000  1
  H  H7  1  0.91084000  0.39349000  0.82528000  1
  H  H8  1  0.89985000  0.22205000  0.91446000  1
  H  H9  1  0.36148000  0.71276000  0.63621000  1
  H  H10  1  0.15999000  0.30646000  0.94054000  1
  H  H11  1  0.19298000  0.25927000  0.75252000  1
  H  H12  1  0.86353000  0.33430000  0.14105000  1
  H  H13  1  0.89934000  0.49960000  0.05941000  1
  H  H14  1  0.53532000  0.24514000  0.88823000  1
  H  H15  1  0.30164000  0.06061000  0.47662000  1
  H  H16  1  0.34035000  0.25076000  0.45917000  1
  H  H17  1  0.57737000  0.89303000  0.35513000  1
  H  H18  1  0.29739000  0.92702000  0.23248000  1
  H  H19  1  0.09018000  0.89095000  0.17459000  1
  H  H20  1  0.10353000  0.71949000  0.08484000  1
  H  H21  1  0.63741000  0.21275000  0.35909000  1
  H  H22  1  0.84014000  0.80271000  0.06199000  1
  H  H23  1  0.80946000  0.75709000  0.24955000  1
  H  H24  1  0.13576000  0.83117000  0.85972000  1
  H  H25  1  0.09546000  0.99639000  0.94232000  1
  C  C26  1  0.51014000  0.68947000  0.00000000  1
  C  C27  1  0.60900000  0.64516000  0.59298000  1
  C  C28  1  0.63504000  0.52511000  0.82104000  1
  C  C29  1  0.58909000  0.63686000  0.75444000  1
  C  C30  1  0.94264000  0.33407000  0.90595000  1
  C  C31  1  0.48634000  0.60528000  0.41300000  1
  C  C32  1  0.44351000  0.61867000  0.58624000  1
  C  C33  1  0.13018000  0.33865000  0.84674000  1
  C  C34  1  0.19965000  0.48950000  0.78716000  1
  C  C35  1  0.48793000  0.18868000  0.99877000  1
  C  C36  1  0.38982000  0.14465000  0.40561000  1
  C  C37  1  0.36203000  0.02593000  0.17820000  1
  C  C38  1  0.40939000  0.13635000  0.24428000  1
  C  C39  1  0.05881000  0.83139000  0.09411000  1
  C  C40  1  0.51557000  0.10819000  0.58373000  1
  C  C41  1  0.55625000  0.11944000  0.41106000  1
  C  C42  1  0.87106000  0.83569000  0.15467000  1
  C  C43  1  0.80075000  0.98724000  0.21288000  1
  N  N44  1  0.84730000  0.40029000  0.06340000  1
  N  N45  1  0.35860000  0.49079000  0.67339000  1
  N  N46  1  0.58495000  0.55851000  0.97630000  1
  N  N47  1  0.50886000  0.74101000  0.86953000  1
  N  N48  1  0.15136000  0.89808000  0.93679000  1
  N  N49  1  0.64144000  0.99013000  0.32588000  1
  N  N50  1  0.41179000  0.05919000  0.02290000  1
  N  N51  1  0.49046000  0.23942000  0.12874000  1
  O  O52  1  0.50905000  0.47418000  0.35927000  1
  O  O53  1  0.50452000  0.71813000  0.33428000  1
  O  O54  1  0.11027000  0.60039000  0.84013000  1
  O  O55  1  0.48510000  0.97786000  0.63959000  1
  O  O56  1  0.50636000  0.22088000  0.65975000  1
  O  O57  1  0.88953000  0.09739000  0.15937000  1
