# generated using pymatgen
data_H10C11(NO)2
_symmetry_space_group_name_H-M   'P 1'
_cell_length_a   21.86445677
_cell_length_b   21.86445677
_cell_length_c   21.86445677
_cell_angle_alpha   109.47122063
_cell_angle_beta   109.47122063
_cell_angle_gamma   109.47122063
_symmetry_Int_Tables_number   1
_chemical_formula_structural   H10C11(NO)2
_chemical_formula_sum   'H120 C132 N24 O24'
_cell_volume   8046.26226084
_cell_formula_units_Z   12
loop_
 _symmetry_equiv_pos_site_id
 _symmetry_equiv_pos_as_xyz
  1  'x, y, z'
loop_
 _atom_site_type_symbol
 _atom_site_label
 _atom_site_symmetry_multiplicity
 _atom_site_fract_x
 _atom_site_fract_y
 _atom_site_fract_z
 _atom_site_occupancy
  C  1  1  0.17754550  0.72127400  0.43297850  1
  C  2  1  0.19434500  0.69114300  0.48873400  1
  C  3  1  0.22016200  0.70847000  0.38900500  1
  C  4  1  0.30772600  0.74779650  0.44280450  1
  C  7  1  0.31913100  0.71555850  0.49696050  1
  C  8  1  0.28021900  0.73006550  0.54454650  1
  C  13  1  0.31140100  0.81665550  0.58858250  1
  C  14  1  0.29701800  0.85049300  0.53484000  1
  C  17  1  0.33689200  0.83365650  0.48884650  1
  C  20  1  0.21063350  0.80776950  0.48062300  1
  C  23  1  0.82872250  0.26990500  0.53589350  1
  C  24  1  0.81187650  0.30882600  0.48893250  1
  C  25  1  0.78618550  0.18331500  0.48048350  1
  C  26  1  0.69861300  0.14947750  0.43219350  1
  C  29  1  0.68717300  0.19220400  0.38853400  1
  C  30  1  0.72599850  0.27869500  0.44193150  1
  C  35  1  0.69475900  0.29148700  0.49729500  1
  C  36  1  0.70918050  0.25215650  0.54554100  1
  C  39  1  0.66940300  0.16630250  0.48885150  1
  C  42  1  0.79557800  0.28441250  0.58925850  1
  C  45  1  0.73339900  0.55583500  0.26602200  1
  C  46  1  0.69444450  0.50005650  0.18013700  1
  C  47  1  0.81998800  0.59980900  0.29718200  1
  C  48  1  0.85375800  0.54601550  0.28272750  1
  C  51  1  0.81100600  0.49183850  0.19633750  1
  C  52  1  0.72451000  0.44424950  0.16326550  1
  C  57  1  0.71166600  0.40023500  0.20584100  1
  C  58  1  0.75102600  0.45399400  0.29341500  1
  C  61  1  0.83689600  0.49999100  0.32256600  1
  C  64  1  0.71885300  0.50820900  0.30488900  1
  C  67  1  0.28174150  0.45303250  0.71176700  1
  C  68  1  0.31187150  0.49999200  0.79765250  1
  C  69  1  0.29461100  0.50844300  0.68058600  1
  C  70  1  0.25533550  0.55673350  0.69504700  1
  C  73  1  0.28756850  0.60039800  0.78143550  1
  C  74  1  0.27299900  0.54699900  0.81452900  1
  C  79  1  0.18639850  0.49164500  0.77197050  1
  C  80  1  0.15256000  0.44339250  0.68439150  1
  C  83  1  0.16946700  0.50008250  0.65522250  1
  C  86  1  0.19523350  0.39967350  0.67292000  1
  C  89  1  0.45629400  0.72286300  0.26758000  1
  C  90  1  0.50321900  0.80875200  0.29770800  1
  C  91  1  0.51172500  0.69170850  0.28040050  1
  C  92  1  0.55997400  0.70618800  0.24108900  1
  C  95  1  0.60360850  0.79258150  0.27332300  1
  C  96  1  0.55017850  0.82564550  0.25879600  1
  C  101  1  0.49478450  0.78308400  0.17220250  1
  C  102  1  0.44657450  0.69550500  0.13836750  1
  C  105  1  0.50329400  0.66636250  0.15522450  1
  C  108  1  0.40289750  0.68400650  0.18108100  1
  C  111  1  0.55881450  0.27707800  0.71902250  1
  C  112  1  0.50304400  0.19119350  0.68008250  1
  C  113  1  0.60286550  0.30823800  0.80560950  1
  C  114  1  0.54912950  0.29377350  0.83944100  1
  C  117  1  0.49496300  0.20738650  0.79670150  1
  C  118  1  0.44729700  0.17431200  0.71021400  1
  C  123  1  0.40326900  0.21688900  0.69743900  1
  C  124  1  0.45702500  0.30446750  0.73678750  1
  C  127  1  0.50310000  0.33361600  0.82263500  1
  C  130  1  0.51116800  0.31594200  0.70453300  1
  C  265  1  0.32556450  0.93375600  0.57648050  1
  C  267  1  0.39335900  0.04323250  0.69899350  1
  C  268  1  0.39604300  0.09074350  0.66807150  1
  C  270  1  0.32235050  0.98074600  0.54462350  1
  C  272  1  0.29222250  0.95898750  0.46958800  1
  C  275  1  0.18326300  0.92368950  0.36435750  1
  C  279  1  0.68055600  0.26515300  0.60019800  1
  C  281  1  0.61263150  0.31975200  0.64178950  1
  C  282  1  0.61003300  0.28619450  0.68666350  1
  C  284  1  0.68366850  0.23641700  0.65032650  1
  C  286  1  0.71414200  0.19192050  0.65910850  1
  C  289  1  0.82258050  0.19421500  0.73164050  1
  C  293  1  0.65697150  0.06622600  0.37744550  1
  C  295  1  0.67000350  0.95673600  0.33576250  1
  C  296  1  0.59155800  0.90921000  0.29109900  1
  C  298  1  0.57811200  0.01920600  0.32730700  1
  C  300  1  0.52483050  0.04079450  0.31873300  1
  C  303  1  0.45506800  0.07625700  0.24485400  1
  C  307  1  0.34940950  0.73470100  0.40123950  1
  C  309  1  0.33640250  0.67985850  0.27873900  1
  C  310  1  0.41484800  0.71362600  0.30968100  1
  C  312  1  0.42825150  0.76328900  0.43312650  1
  C  314  1  0.48155250  0.80831500  0.50797050  1
  C  317  1  0.55143750  0.80471300  0.61350150  1
  C  321  1  0.73793300  0.41237750  0.33505350  1
  C  323  1  0.68323800  0.28987250  0.32205050  1
  C  324  1  0.71689650  0.32082700  0.40048350  1
  C  326  1  0.76660150  0.44425200  0.41390850  1
  C  328  1  0.81149650  0.51929550  0.46716500  1
  C  331  1  0.80774650  0.62452300  0.53707050  1
  C  335  1  0.06928150  0.38874200  0.64274650  1
  C  337  1  0.95978400  0.34714800  0.65578100  1
  C  338  1  0.91230050  0.30226400  0.57735550  1
  C  340  1  0.02225400  0.33860400  0.56388500  1
  C  342  1  0.04392650  0.32982200  0.51059350  1
  C  345  1  0.07981900  0.25729050  0.44033450  1
  C  349  1  0.26842600  0.61147450  0.66653250  1
  C  351  1  0.32311300  0.65313650  0.59869350  1
  C  352  1  0.28927650  0.69774700  0.59579450  1
  C  354  1  0.23970600  0.66161300  0.66965600  1
  C  356  1  0.19503050  0.67021200  0.69985750  1
  C  359  1  0.19921100  0.74413050  0.80922450  1
  C  363  1  0.93700150  0.58758300  0.31117550  1
  C  365  1  0.04648500  0.71009250  0.37880950  1
  C  366  1  0.09399550  0.67915700  0.38163550  1
  C  368  1  0.98396550  0.55570650  0.30789400  1
  C  370  1  0.96243450  0.48086450  0.27810100  1
  C  373  1  0.92679200  0.37531150  0.16898750  1
  C  377  1  0.39186800  0.65387100  0.05510200  1
  C  379  1  0.35018150  0.66687700  0.94561050  1
  C  380  1  0.30530850  0.58844800  0.89809350  1
  C  382  1  0.34167150  0.57502350  0.00812000  1
  C  384  1  0.33331650  0.52175250  0.02988600  1
  C  387  1  0.25967050  0.45181150  0.06518700  1
  C  391  1  0.41540250  0.34612700  0.72379650  1
  C  393  1  0.29288700  0.33311400  0.66913800  1
  C  394  1  0.32381250  0.41153350  0.70259100  1
  C  396  1  0.44724550  0.42498850  0.75252200  1
  C  398  1  0.52220650  0.47827600  0.79707150  1
  C  401  1  0.62841400  0.54855400  0.79489000  1
  C  405  1  0.59073050  0.32225950  0.92269000  1
  C  407  1  0.71325650  0.39009000  0.03218850  1
  C  408  1  0.68231900  0.39298900  0.07970000  1
  C  410  1  0.55888700  0.31913450  0.96970350  1
  C  412  1  0.48401250  0.28893850  0.94810500  1
  C  415  1  0.37882100  0.17957100  0.91264500  1
  C  419  1  0.61475950  0.67772800  0.25420050  1
  C  421  1  0.65657350  0.61005950  0.30905000  1
  C  422  1  0.70115850  0.60715050  0.27518600  1
  C  424  1  0.66501250  0.68101550  0.22561300  1
  C  426  1  0.67331900  0.71086500  0.18061300  1
  C  429  1  0.74685650  0.82002250  0.18428200  1
  H  5  1  0.20911800  0.72964000  0.35001400  1
  H  6  1  0.19757950  0.64822400  0.35506850  1
  H  9  1  0.29716150  0.65532450  0.46371100  1
  H  10  1  0.37851750  0.74089950  0.53561200  1
  H  11  1  0.17240150  0.63061100  0.45804150  1
  H  12  1  0.16446400  0.69985400  0.51938500  1
  H  15  1  0.37154850  0.84457200  0.62761350  1
  H  16  1  0.28504800  0.82798000  0.62247500  1
  H  18  1  0.39685100  0.86472150  0.52838250  1
  H  19  1  0.32852050  0.85415600  0.44936850  1
  H  21  1  0.18361700  0.81901300  0.51384500  1
  H  22  1  0.19733150  0.82852350  0.44198500  1
  H  27  1  0.79726000  0.15539000  0.51271600  1
  H  28  1  0.80880100  0.17199650  0.44284450  1
  H  31  1  0.70918250  0.18096000  0.35029850  1
  H  32  1  0.62778700  0.17142750  0.35446150  1
  H  33  1  0.83385850  0.30012250  0.45037300  1
  H  34  1  0.84170350  0.36935850  0.52752000  1
  H  37  1  0.63460250  0.27031250  0.46502700  1
  H  38  1  0.72104850  0.35173000  0.53495450  1
  H  40  1  0.60942800  0.14579550  0.45993450  1
  H  41  1  0.67785300  0.13524150  0.51775250  1
  H  43  1  0.82252950  0.34464550  0.62750200  1
  H  44  1  0.80889800  0.25910400  0.62333500  1
  H  49  1  0.84793400  0.63881300  0.35734100  1
  H  50  1  0.83133450  0.63373100  0.27085950  1
  H  53  1  0.82227750  0.52507350  0.16933800  1
  H  54  1  0.83174500  0.45318850  0.18303750  1
  H  55  1  0.70318150  0.53073650  0.15028400  1
  H  56  1  0.63390900  0.46940150  0.15819950  1
  H  59  1  0.73278500  0.36120250  0.19473650  1
  H  60  1  0.65141800  0.36633750  0.18327250  1
  H  62  1  0.85732100  0.46045800  0.31410400  1
  H  63  1  0.86800450  0.53947950  0.38253900  1
  H  65  1  0.65861350  0.47498300  0.28291750  1
  H  66  1  0.74419500  0.54686100  0.36428100  1
  H  71  1  0.27344550  0.47621150  0.62042800  1
  H  72  1  0.35486450  0.54607500  0.70689850  1
  H  75  1  0.34781250  0.63862850  0.80841900  1
  H  76  1  0.26226500  0.63447750  0.79474250  1
  H  77  1  0.37241250  0.53854750  0.82750100  1
  H  78  1  0.30311500  0.46140600  0.81960000  1
  H  81  1  0.15851150  0.52391200  0.78306450  1
  H  82  1  0.17502850  0.45398200  0.79455150  1
  H  84  1  0.13841300  0.52900200  0.66363900  1
  H  85  1  0.14900900  0.47117950  0.59526150  1
  H  87  1  0.18394250  0.36143050  0.69491200  1
  H  88  1  0.17446600  0.36559400  0.61353400  1
  H  93  1  0.47951650  0.63154450  0.25923400  1
  H  94  1  0.54938050  0.71802400  0.34064850  1
  H  97  1  0.64186250  0.81956900  0.33355850  1
  H  98  1  0.63766250  0.80589550  0.24799000  1
  H  99  1  0.54179350  0.83859450  0.35824300  1
  H  100  1  0.46461600  0.83068450  0.28898150  1
  H  103  1  0.52702200  0.79420400  0.14429200  1
  H  104  1  0.45709950  0.80564650  0.16086400  1
  H  106  1  0.53219650  0.67483850  0.12416900  1
  H  107  1  0.47443000  0.60638350  0.13472850  1
  H  109  1  0.36463150  0.70597750  0.16982000  1
  H  110  1  0.36884800  0.62461500  0.16032600  1
  H  115  1  0.64186750  0.36839650  0.83354500  1
  H  116  1  0.63679700  0.28191300  0.81691600  1
  H  119  1  0.52821000  0.18038950  0.80793450  1
  H  120  1  0.45635250  0.19408100  0.81747550  1
  H  121  1  0.53372950  0.16133500  0.68877450  1
  H  122  1  0.47233850  0.16926050  0.61955500  1
  H  125  1  0.36428900  0.20579100  0.71861300  1
  H  126  1  0.36931900  0.19431900  0.63719900  1
  H  128  1  0.46363400  0.32520350  0.84314450  1
  H  129  1  0.54261250  0.39357650  0.85370600  1
  H  131  1  0.47788550  0.29396400  0.64430350  1
  H  132  1  0.54979400  0.37532900  0.72985200  1
  H  271  1  0.42006200  0.06287100  0.75519100  1
  H  276  1  0.13864800  0.93730050  0.35057750  1
  H  277  1  0.15791700  0.86446350  0.34799750  1
  H  278  1  0.21029350  0.93340550  0.33190000  1
  H  285  1  0.58587350  0.34919350  0.63469500  1
  H  290  1  0.86628650  0.22319650  0.79002700  1
  H  291  1  0.84912150  0.20599000  0.69943850  1
  H  292  1  0.79551900  0.13412900  0.71174100  1
  H  299  1  0.70657650  0.93712650  0.34308700  1
  H  304  1  0.42568900  0.06089500  0.18624300  1
  H  305  1  0.49930100  0.13484100  0.27647400  1
  H  306  1  0.41496150  0.07005050  0.26485200  1
  H  313  1  0.29988100  0.65067500  0.22255300  1
  H  318  1  0.58108950  0.77578300  0.62779550  1
  H  319  1  0.50710550  0.79188500  0.62770250  1
  H  320  1  0.59128250  0.86488150  0.64730800  1
  H  327  1  0.65374150  0.23367100  0.28550450  1
  H  332  1  0.77690600  0.63830650  0.56445050  1
  H  333  1  0.79875950  0.64087150  0.49419200  1
  H  334  1  0.86723400  0.65699200  0.57924600  1
  H  341  1  0.94012950  0.35424700  0.69232750  1
  H  346  1  0.06513050  0.19890200  0.41091750  1
  H  347  1  0.13854833  0.28948550  0.48428983  1
  H  348  1  0.07265500  0.27719950  0.40015350  1
  H  355  1  0.35235300  0.64580800  0.57175200  1
  H  360  1  0.22846150  0.80274650  0.85246600  1
  H  361  1  0.21182900  0.71251350  0.83619050  1
  H  362  1  0.13910700  0.72414500  0.78304300  1
  H  369  1  0.06614100  0.76627700  0.40580100  1
  H  374  1  0.94215300  0.36100500  0.12576900  1
  H  375  1  0.86825950  0.36110900  0.14195550  1
  H  376  1  0.93283350  0.34152250  0.19537100  1
  H  383  1  0.35724500  0.70342900  0.92596200  1
  H  388  1  0.20145150  0.42441250  0.05158500  1
  H  389  1  0.29355100  0.49468350  0.12441450  1
  H  390  1  0.27699900  0.40964700  0.05547800  1
  H  397  1  0.23668700  0.29657000  0.63968600  1
  H  402  1  0.64318550  0.57799150  0.76595000  1
  H  403  1  0.64318100  0.50457550  0.78311650  1
  H  404  1  0.66140500  0.58871100  0.85498400  1
  H  411  1  0.76943950  0.41703300  0.05180350  1
  H  416  1  0.36482350  0.13632300  0.92801150  1
  H  417  1  0.36447250  0.15260950  0.85405900  1
  H  418  1  0.34490050  0.20575250  0.91884600  1
  H  425  1  0.64923750  0.58307000  0.33824450  1
  H  430  1  0.80544550  0.86323800  0.21323450  1
  H  431  1  0.71535950  0.84705750  0.19711200  1
  H  432  1  0.72654900  0.79368400  0.12411600  1
  N  266  1  0.36018650  0.96886250  0.65259100  1
  N  269  1  0.35885450  0.05570950  0.59211400  1
  N  280  1  0.64585650  0.30657400  0.60063450  1
  N  283  1  0.64730200  0.24751000  0.68890600  1
  N  294  1  0.69795850  0.03110300  0.37698950  1
  N  297  1  0.55064700  0.94425600  0.28890800  1
  N  308  1  0.30844250  0.69322300  0.32512950  1
  N  311  1  0.45573500  0.75240250  0.38564850  1
  N  322  1  0.69645200  0.33626350  0.29406950  1
  N  325  1  0.75564600  0.39678350  0.44141050  1
  N  336  1  0.03415950  0.38830750  0.68374500  1
  N  339  1  0.94731250  0.30001950  0.53641500  1
  N  350  1  0.30986450  0.61192700  0.63185650  1
  N  353  1  0.25060050  0.69998750  0.63307400  1
  N  364  1  0.97213650  0.66369200  0.34579550  1
  N  367  1  0.05892650  0.60319350  0.34446800  1
  N  378  1  0.39138350  0.69486100  0.01998150  1
  N  381  1  0.30320100  0.54754900  0.93315900  1
  N  392  1  0.33928500  0.30514000  0.68235400  1
  N  395  1  0.39977550  0.45245500  0.74135950  1
  N  406  1  0.66684650  0.35693600  0.95782050  1
  N  409  1  0.60636450  0.35571150  0.04466000  1
  N  420  1  0.61527400  0.64311000  0.29569500  1
  N  423  1  0.70334500  0.64438300  0.23646100  1
  O  273  1  0.33928950  0.97810200  0.45110650  1
  O  274  1  0.23520700  0.97116800  0.44362100  1
  O  287  1  0.66679800  0.12613200  0.62996700  1
  O  288  1  0.77027900  0.22098000  0.72815200  1
  O  301  1  0.48719400  0.02276600  0.34703900  1
  O  302  1  0.48485400  0.02724250  0.24924850  1
  O  315  1  0.51897650  0.87421350  0.52730500  1
  O  316  1  0.52178700  0.77914200  0.53468200  1
  O  329  1  0.87705300  0.53779700  0.50477300  1
  O  330  1  0.78043800  0.54526150  0.50530150  1
  O  343  1  0.02571700  0.35896900  0.47395500  1
  O  344  1  0.03101350  0.26077900  0.47059750  1
  O  357  1  0.12908100  0.64191300  0.65354900  1
  O  358  1  0.22456700  0.73970800  0.75578700  1
  O  371  1  0.98053500  0.46155450  0.32468450  1
  O  372  1  0.97595650  0.45413700  0.22222250  1
  O  385  1  0.36127850  0.48416450  0.01077000  1
  O  386  1  0.26412450  0.48359350  0.01770600  1
  O  399  1  0.54059100  0.51489250  0.86284650  1
  O  400  1  0.54934050  0.51830200  0.76806950  1
  O  413  1  0.46437500  0.33525050  0.96612550  1
  O  414  1  0.45761350  0.23300350  0.96166000  1
  O  427  1  0.64485700  0.66432550  0.11470950  1
  O  428  1  0.74273800  0.76674500  0.20981800  1
