# generated using pymatgen
data_H33(C9N)4
_symmetry_space_group_name_H-M   'P 1'
_cell_length_a   9.87966667
_cell_length_b   50.52120000
_cell_length_c   50.52080000
_cell_angle_alpha   119.99921428
_cell_angle_beta   90.00000000
_cell_angle_gamma   90.00000000
_symmetry_Int_Tables_number   1
_chemical_formula_structural   H33(C9N)4
_chemical_formula_sum   'H132 C144 N16'
_cell_volume   21838.37095379
_cell_formula_units_Z   4
loop_
 _symmetry_equiv_pos_site_id
 _symmetry_equiv_pos_as_xyz
  1  'x, y, z'
loop_
 _atom_site_type_symbol
 _atom_site_label
 _atom_site_symmetry_multiplicity
 _atom_site_fract_x
 _atom_site_fract_y
 _atom_site_fract_z
 _atom_site_occupancy
  C  2  1  0.99720600  0.01192200  0.03304500  1
  C  3  1  0.99721600  0.01599800  0.98602000  1
  C  4  1  0.99721600  0.96489500  0.98194100  1
  C  5  1  0.89120900  0.01641100  0.96740100  1
  C  6  1  0.89873900  0.03478800  0.95356000  1
  C  7  1  0.01241900  0.05370600  0.95799900  1
  C  8  1  0.11867200  0.05301200  0.97652200  1
  C  9  1  0.11175400  0.03438800  0.99000100  1
  C  10  1  0.89118400  0.03054000  0.05207400  1
  C  11  1  0.89866800  0.04436700  0.08429200  1
  C  12  1  0.01241800  0.03996100  0.09877600  1
  C  13  1  0.11865300  0.02143100  0.07956100  1
  C  14  1  0.11175900  0.00795400  0.04745700  1
  C  15  1  0.89119900  0.94586300  0.98152500  1
  C  16  1  0.89872300  0.91364600  0.96314500  1
  C  17  1  0.01244900  0.89916600  0.94424500  1
  C  18  1  0.11868700  0.91838300  0.94493300  1
  C  19  1  0.11176000  0.95048700  0.96355600  1
  C  32  1  0.01964500  0.86750200  0.92402100  1
  C  33  1  0.01953900  0.05139000  0.13043800  1
  C  34  1  0.01960500  0.07392100  0.94654700  1
  C  39  1  0.97996600  0.55322000  0.80156300  1
  C  40  1  0.95322500  0.55025900  0.75299400  1
  C  41  1  0.96658200  0.60202800  0.80005700  1
  C  42  1  0.06514800  0.53996200  0.73290200  1
  C  43  1  0.05400500  0.51424900  0.70330000  1
  C  44  1  0.93055700  0.49796600  0.69305100  1
  C  45  1  0.81691200  0.50934200  0.71268200  1
  C  46  1  0.82799900  0.53511500  0.74212900  1
  C  47  1  0.09177400  0.53407200  0.79749800  1
  C  48  1  0.08753300  0.51279800  0.80777900  1
  C  49  1  0.97156600  0.51024100  0.82276600  1
  C  50  1  0.86201900  0.53036600  0.82807100  1
  C  51  1  0.86564200  0.55132900  0.81732900  1
  C  52  1  0.07715800  0.62047000  0.81710400  1
  C  53  1  0.07231900  0.65269600  0.83100000  1
  C  54  1  0.95679400  0.66764100  0.82807500  1
  C  55  1  0.84590000  0.64911400  0.81114300  1
  C  56  1  0.85006500  0.61698600  0.79774900  1
  C  69  1  0.95526000  0.69902000  0.83849400  1
  C  70  1  0.96530600  0.48892900  0.83246300  1
  C  71  1  0.92297600  0.46942100  0.66667000  1
  C  76  1  0.98012000  0.24325100  0.44470800  1
  C  77  1  0.95314400  0.19767400  0.44769300  1
  C  78  1  0.96666200  0.19293400  0.39591400  1
  C  79  1  0.06513200  0.18794200  0.45804700  1
  C  80  1  0.05399400  0.18402700  0.48374400  1
  C  81  1  0.93053700  0.19003400  0.50001300  1
  C  82  1  0.81696100  0.19832400  0.48865400  1
  C  83  1  0.82791700  0.20191500  0.46282700  1
  C  84  1  0.09197100  0.25834400  0.46383300  1
  C  85  1  0.08764400  0.28989600  0.48512300  1
  C  86  1  0.97159200  0.30742700  0.48770100  1
  C  87  1  0.86200700  0.29259000  0.46759500  1
  C  88  1  0.86575300  0.26089400  0.44659500  1
  C  89  1  0.07719900  0.19151200  0.37744800  1
  C  90  1  0.07229500  0.17315300  0.34522700  1
  C  91  1  0.95667700  0.15531200  0.33030500  1
  C  92  1  0.84579200  0.15694500  0.34885000  1
  C  93  1  0.85005000  0.17569600  0.38097700  1
  C  106  1  0.95494100  0.13437100  0.29891900  1
  C  107  1  0.96532000  0.33843500  0.50901100  1
  C  108  1  0.92293200  0.19217200  0.52854700  1
  C  113  1  0.98017400  0.19637100  0.75471200  1
  C  114  1  0.95321600  0.24491200  0.80030400  1
  C  115  1  0.96661700  0.19786200  0.80501800  1
  C  116  1  0.06516700  0.26500800  0.81004700  1
  C  117  1  0.05409000  0.29459900  0.81390900  1
  C  118  1  0.93057800  0.30490500  0.80797300  1
  C  119  1  0.81699700  0.28525700  0.79969600  1
  C  120  1  0.82804400  0.25582200  0.79605400  1
  C  121  1  0.09199100  0.20039700  0.73960500  1
  C  122  1  0.08760400  0.19015500  0.70805900  1
  C  123  1  0.97159100  0.17517900  0.69052500  1
  C  124  1  0.86207300  0.16988500  0.70536100  1
  C  125  1  0.86574800  0.18064300  0.73706800  1
  C  126  1  0.07718900  0.18083000  0.80644500  1
  C  127  1  0.07229400  0.16695500  0.82479400  1
  C  128  1  0.95667700  0.16986600  0.84263500  1
  C  129  1  0.84576700  0.18676800  0.84099600  1
  C  130  1  0.85003400  0.20016400  0.82226400  1
  C  143  1  0.95504300  0.15942500  0.86357700  1
  C  144  1  0.96529100  0.16547900  0.65951900  1
  C  145  1  0.92302200  0.33127700  0.80579600  1
  C  149  1  0.97667300  0.81618300  0.91269300  1
  C  150  1  0.09822200  0.79951700  0.90949700  1
  C  151  1  0.09755800  0.76675300  0.89219800  1
  C  152  1  0.97375700  0.75060100  0.88014600  1
  C  153  1  0.85082800  0.76725300  0.88496500  1
  C  154  1  0.85330300  0.80000300  0.90018600  1
  C  155  1  0.22362100  0.74798900  0.88634000  1
  C  159  1  0.22548300  0.81612700  0.92512000  1
  C  163  1  0.71807500  0.75073500  0.87479400  1
  C  167  1  0.72485300  0.81723200  0.90329500  1
  C  173  1  0.97665700  0.09139400  0.18175700  1
  C  174  1  0.09822200  0.10484700  0.19842300  1
  C  175  1  0.09754300  0.12031700  0.23119000  1
  C  176  1  0.97371800  0.12443700  0.24734000  1
  C  177  1  0.85077700  0.11262700  0.23068600  1
  C  178  1  0.85326200  0.09508900  0.19793500  1
  C  179  1  0.22361600  0.13320200  0.24995400  1
  C  183  1  0.22551800  0.10383900  0.18181500  1
  C  187  1  0.71799900  0.11900700  0.24720000  1
  C  191  1  0.72480100  0.08098300  0.18070500  1
  C  197  1  0.97660700  0.08523500  0.90654700  1
  C  198  1  0.09815600  0.08843200  0.89307700  1
  C  199  1  0.09748700  0.10572800  0.87760900  1
  C  200  1  0.97367700  0.11777500  0.87350400  1
  C  201  1  0.85074700  0.11294800  0.88533000  1
  C  202  1  0.85323200  0.09773500  0.90286700  1
  C  203  1  0.22355400  0.11159300  0.86471000  1
  C  207  1  0.22541700  0.07281100  0.89406800  1
  C  211  1  0.71798100  0.12310400  0.87897000  1
  C  215  1  0.72478100  0.09462700  0.91698800  1
  C  221  1  0.98091300  0.43601900  0.61499100  1
  C  222  1  0.85899700  0.42349500  0.59817000  1
  C  223  1  0.85922900  0.39321200  0.57238500  1
  C  224  1  0.98423500  0.37726200  0.56143700  1
  C  225  1  0.10735100  0.39046400  0.57729100  1
  C  226  1  0.10545300  0.41983000  0.60442400  1
  C  227  1  0.73113700  0.37729600  0.55639100  1
  C  231  1  0.73245800  0.44235400  0.60689200  1
  C  235  1  0.23906600  0.37367100  0.56590300  1
  C  239  1  0.23468900  0.43325600  0.62165000  1
  C  245  1  0.98093300  0.17387900  0.56193200  1
  C  246  1  0.85902100  0.16957200  0.57444900  1
  C  247  1  0.85923900  0.17406600  0.60472900  1
  C  248  1  0.98423900  0.17907100  0.62068400  1
  C  249  1  0.10735700  0.18172500  0.60748500  1
  C  250  1  0.10546800  0.17950000  0.57812300  1
  C  251  1  0.73113800  0.17398300  0.62064300  1
  C  255  1  0.73249900  0.15943000  0.55558500  1
  C  259  1  0.23906600  0.18713100  0.62428300  1
  C  263  1  0.23470800  0.18330600  0.56470100  1
  C  269  1  0.98089800  0.38295600  0.82407600  1
  C  270  1  0.85897100  0.39977200  0.82836600  1
  C  271  1  0.85919400  0.42555700  0.82386700  1
  C  272  1  0.98420500  0.43650500  0.81886400  1
  C  273  1  0.10732100  0.42065600  0.81621900  1
  C  274  1  0.10543400  0.39352600  0.81845400  1
  C  275  1  0.73110200  0.44155000  0.82394300  1
  C  279  1  0.73242400  0.39104500  0.83849600  1
  C  283  1  0.23903000  0.43204800  0.81081200  1
  C  287  1  0.23467900  0.37630400  0.81466300  1
  H  20  1  0.80673200  0.00340800  0.96406600  1
  H  21  1  0.20289100  0.06631600  0.98054600  1
  H  22  1  0.19063300  0.03461100  0.00321800  1
  H  23  1  0.81842400  0.03483100  0.94079000  1
  H  24  1  0.19060400  0.99472000  0.03446400  1
  H  25  1  0.80668700  0.03386200  0.04240200  1
  H  26  1  0.81838300  0.05715200  0.09710300  1
  H  27  1  0.20286100  0.01740300  0.08884200  1
  H  28  1  0.80671200  0.95553200  0.99452400  1
  H  29  1  0.20292100  0.90910500  0.93163400  1
  H  30  1  0.19064300  0.96348100  0.96333400  1
  H  31  1  0.81841900  0.90083300  0.96310700  1
  H  35  1  0.06711600  0.86031200  0.90419000  1
  H  36  1  0.06699000  0.03874600  0.13762700  1
  H  37  1  0.06714300  0.09374500  0.95917600  1
  H  57  1  0.15845600  0.54944100  0.74073400  1
  H  58  1  0.72692200  0.49771700  0.70653600  1
  H  59  1  0.74712000  0.54107700  0.75664000  1
  H  60  1  0.13976500  0.50604300  0.69034000  1
  H  61  1  0.78166500  0.56416000  0.81967100  1
  H  62  1  0.17450400  0.53438500  0.78549400  1
  H  63  1  0.16906400  0.49876400  0.80364200  1
  H  64  1  0.77593600  0.52898200  0.83860400  1
  H  65  1  0.16341600  0.61035500  0.81901400  1
  H  66  1  0.76103300  0.65889200  0.80804700  1
  H  67  1  0.76845700  0.60439600  0.78546500  1
  H  68  1  0.15610200  0.66511600  0.84234500  1
  H  72  1  0.93246600  0.70562900  0.82348400  1
  H  73  1  0.94125100  0.49610200  0.85413300  1
  H  74  1  0.87036400  0.45312700  0.66770800  1
  H  94  1  0.15836600  0.18623400  0.44851300  1
  H  95  1  0.72685100  0.20372200  0.50023200  1
  H  96  1  0.74709500  0.21047600  0.45686300  1
  H  97  1  0.13975500  0.17922100  0.49190600  1
  H  98  1  0.78170100  0.25039900  0.43380200  1
  H  99  1  0.17467700  0.24603600  0.46354900  1
  H  100  1  0.16916000  0.29979900  0.49916100  1
  H  101  1  0.77592700  0.30450800  0.46897400  1
  H  102  1  0.16350700  0.20352300  0.38754700  1
  H  103  1  0.76084100  0.14409800  0.33908800  1
  H  104  1  0.76848700  0.17601600  0.39358600  1
  H  105  1  0.15598000  0.17209400  0.33278500  1
  H  109  1  0.93204100  0.11275700  0.29230500  1
  H  110  1  0.94110600  0.35292600  0.50184000  1
  H  111  1  0.87024200  0.20948600  0.54484200  1
  H  131  1  0.15849200  0.25717700  0.81168500  1
  H  132  1  0.72690200  0.29144400  0.79430200  1
  H  133  1  0.74709400  0.24132800  0.78753200  1
  H  134  1  0.13982700  0.30757200  0.81869900  1
  H  135  1  0.78180200  0.17828600  0.74755600  1
  H  136  1  0.17471200  0.21241400  0.75191000  1
  H  137  1  0.16914500  0.19427100  0.69814800  1
  H  138  1  0.77595300  0.15936000  0.69345300  1
  H  139  1  0.16351200  0.17893500  0.79444500  1
  H  140  1  0.76080600  0.18984100  0.85383800  1
  H  141  1  0.76838600  0.21241700  0.82191400  1
  H  142  1  0.15605700  0.15560800  0.82587700  1
  H  146  1  0.93224800  0.17442800  0.88519700  1
  H  147  1  0.94114500  0.14381200  0.64502700  1
  H  148  1  0.87045000  0.33023200  0.78845700  1
  H  156  1  0.31695400  0.76100200  0.89450300  1
  H  157  1  0.23632800  0.73282100  0.86177100  1
  H  158  1  0.21464700  0.73408800  0.89725200  1
  H  160  1  0.21345900  0.84063000  0.94016500  1
  H  161  1  0.30137600  0.81287700  0.90805000  1
  H  162  1  0.26440100  0.80729700  0.93942600  1
  H  164  1  0.72424400  0.72623000  0.86592600  1
  H  165  1  0.67442500  0.75408400  0.85684500  1
  H  166  1  0.64788000  0.75946700  0.89400800  1
  H  168  1  0.73770700  0.84184400  0.91359000  1
  H  169  1  0.65255300  0.81356200  0.91746400  1
  H  170  1  0.68047400  0.80931700  0.88078800  1
  H  180  1  0.31695800  0.12833700  0.23694200  1
  H  181  1  0.23624700  0.12380100  0.26512400  1
  H  182  1  0.21471200  0.15801600  0.26385300  1
  H  184  1  0.21350900  0.09437800  0.15731000  1
  H  185  1  0.30134500  0.09000800  0.18506700  1
  H  186  1  0.26450800  0.12696700  0.19064100  1
  H  188  1  0.72415800  0.13466300  0.27170100  1
  H  189  1  0.67426400  0.09772200  0.24386800  1
  H  190  1  0.64787600  0.12948400  0.23844800  1
  H  192  1  0.73766600  0.06665100  0.15609500  1
  H  193  1  0.65257600  0.09882900  0.18435800  1
  H  194  1  0.68032100  0.06641000  0.18863200  1
  H  204  1  0.31688800  0.10343700  0.86956600  1
  H  205  1  0.23623700  0.13616300  0.87411000  1
  H  206  1  0.21460100  0.10067700  0.83989500  1
  H  208  1  0.21338800  0.05776300  0.90352200  1
  H  209  1  0.30130100  0.08988000  0.90788900  1
  H  210  1  0.26435000  0.05850700  0.87093000  1
  H  212  1  0.72413900  0.13195500  0.86331700  1
  H  213  1  0.67431000  0.14106000  0.90026100  1
  H  214  1  0.64780500  0.10388700  0.86849800  1
  H  216  1  0.73764600  0.08434500  0.93131700  1
  H  217  1  0.65249600  0.08045000  0.89915200  1
  H  218  1  0.68037300  0.11713400  0.93157100  1
  H  228  1  0.63879700  0.38870100  0.56840900  1
  H  229  1  0.72758600  0.35446100  0.55366800  1
  H  230  1  0.72734700  0.37524200  0.53386100  1
  H  232  1  0.74870400  0.46648500  0.62321300  1
  H  233  1  0.65981000  0.43358300  0.61689800  1
  H  234  1  0.68770500  0.44151800  0.58673000  1
  H  236  1  0.23109000  0.35175500  0.54488100  1
  H  237  1  0.28274200  0.36913100  0.58307000  1
  H  238  1  0.30993400  0.38739700  0.56123900  1
  H  240  1  0.22362500  0.45567100  0.64195700  1
  H  241  1  0.30770700  0.43592500  0.60695500  1
  H  242  1  0.27741200  0.41822500  0.62920300  1
  H  252  1  0.63880600  0.17459200  0.60923400  1
  H  253  1  0.72756500  0.19409400  0.64347600  1
  H  254  1  0.72736200  0.15350700  0.62269800  1
  H  256  1  0.74876500  0.15162200  0.53145300  1
  H  257  1  0.65983400  0.17820400  0.56435300  1
  H  258  1  0.68775100  0.14010200  0.55641800  1
  H  260  1  0.23108000  0.18801900  0.64619400  1
  H  261  1  0.28273200  0.20884100  0.62882800  1
  H  262  1  0.30994400  0.16874300  0.61055500  1
  H  264  1  0.22365100  0.18120200  0.54228900  1
  H  265  1  0.30773300  0.16594400  0.56203300  1
  H  266  1  0.27741800  0.20588900  0.57973700  1
  H  276  1  0.63876100  0.42953700  0.82334000  1
  H  277  1  0.72753500  0.44426300  0.80382600  1
  H  278  1  0.72733100  0.46408400  0.84441100  1
  H  280  1  0.74865800  0.37471800  0.84630000  1
  H  281  1  0.65978900  0.38104100  0.81971500  1
  H  282  1  0.68765900  0.41120300  0.85782200  1
  H  284  1  0.23104000  0.45306400  0.80991400  1
  H  285  1  0.28271600  0.41487800  0.78910700  1
  H  286  1  0.30989800  0.43671600  0.82920500  1
  H  288  1  0.22362100  0.35600000  0.81677300  1
  H  289  1  0.30768700  0.39100200  0.83202600  1
  H  290  1  0.27741200  0.36875000  0.79207800  1
  N  1  1  0.98961500  0.99760500  0.00033600  1
  N  38  1  0.97432000  0.56938500  0.78510900  1
  N  75  1  0.97456700  0.21063200  0.42855500  1
  N  112  1  0.97447600  0.21281300  0.78732700  1
  N  171  1  0.97326700  0.84707000  0.92989800  1
  N  172  1  0.97532100  0.71968600  0.86664800  1
  N  195  1  0.97326200  0.07771100  0.15087000  1
  N  196  1  0.97529000  0.14184900  0.27825500  1
  N  219  1  0.97320100  0.06804000  0.92023900  1
  N  220  1  0.97524100  0.13127700  0.85609100  1
  N  243  1  0.98091800  0.46298400  0.64127600  1
  N  244  1  0.98673800  0.34852700  0.53765200  1
  N  267  1  0.98094500  0.17321500  0.53497400  1
  N  268  1  0.98671900  0.18402400  0.64942100  1
  N  291  1  0.98090900  0.35667400  0.82476100  1
  N  292  1  0.98667400  0.46028900  0.81391100  1
