# generated using pymatgen
data_H24C41(N2O3)4
_symmetry_space_group_name_H-M   'P 1'
_cell_length_a   28.17280000
_cell_length_b   56.46940000
_cell_length_c   56.46940000
_cell_angle_alpha   60.00000000
_cell_angle_beta   89.97880000
_cell_angle_gamma   90.00000000
_symmetry_Int_Tables_number   1
_chemical_formula_structural   H24C41(N2O3)4
_chemical_formula_sum   'H144 C246 N48 O72'
_cell_volume   77801.31738620
_cell_formula_units_Z   6
loop_
 _symmetry_equiv_pos_site_id
 _symmetry_equiv_pos_as_xyz
  1  'x, y, z'
loop_
 _atom_site_type_symbol
 _atom_site_label
 _atom_site_symmetry_multiplicity
 _atom_site_fract_x
 _atom_site_fract_y
 _atom_site_fract_z
 _atom_site_occupancy
  H  26  1  0.68311700  0.18114100  0.35750000  1
  H  27  1  0.67826500  0.15255200  0.40546500  1
  H  28  1  0.83252100  0.17614000  0.36206800  1
  H  29  1  0.82780600  0.14804100  0.41029900  1
  H  30  1  0.83431300  0.13468900  0.46405600  1
  H  31  1  0.84789500  0.16271700  0.48363500  1
  H  32  1  0.69298000  0.16298800  0.44642600  1
  H  33  1  0.69078300  0.11160600  0.48901700  1
  H  34  1  0.61772300  0.08736000  0.50148900  1
  H  35  1  0.63083100  0.07288400  0.43546800  1
  H  36  1  0.70280100  0.09790300  0.42226600  1
  H  37  1  0.79777000  0.10092000  0.41705300  1
  H  38  1  0.77580300  0.08871200  0.49637300  1
  H  39  1  0.82743900  0.05059100  0.51442900  1
  H  40  1  0.85184700  0.06373400  0.43509200  1
  H  41  1  0.70726600  0.19154000  0.46540100  1
  H  43  1  0.81790500  0.20575100  0.48141600  1
  H  45  1  0.73153600  0.19532000  0.31715200  1
  H  47  1  0.88024500  0.02276300  0.47678700  1
  H  49  1  0.57079500  0.05187400  0.49625700  1
  H  75  1  0.68300100  0.35764400  0.46560700  1
  H  76  1  0.67804400  0.40556200  0.44667000  1
  H  77  1  0.83245700  0.36257200  0.46425600  1
  H  78  1  0.82761800  0.41075600  0.44463500  1
  H  79  1  0.83314900  0.46523300  0.40451100  1
  H  80  1  0.84451000  0.48619600  0.35658200  1
  H  81  1  0.69156600  0.44673400  0.39535200  1
  H  82  1  0.69089900  0.48942400  0.40464900  1
  H  83  1  0.61947600  0.50231400  0.41749900  1
  H  84  1  0.63324500  0.43532100  0.49739500  1
  H  85  1  0.70374700  0.42178500  0.48452600  1
  H  86  1  0.79886900  0.41672800  0.48586800  1
  H  87  1  0.77584400  0.49642200  0.41965600  1
  H  88  1  0.82741200  0.51417900  0.43999600  1
  H  89  1  0.85293500  0.43450200  0.50527500  1
  H  90  1  0.70375800  0.46685100  0.34754300  1
  H  92  1  0.81316600  0.48582400  0.31527100  1
  H  94  1  0.73224600  0.31738600  0.49128800  1
  H  96  1  0.88068200  0.47594400  0.50525600  1
  H  98  1  0.57538400  0.49721300  0.45879500  1
  H  124  1  0.67754400  0.46597500  0.18151200  1
  H  125  1  0.67512000  0.44721500  0.15225900  1
  H  126  1  0.82718400  0.46613800  0.17906200  1
  H  127  1  0.82492200  0.44689800  0.15011900  1
  H  128  1  0.83315700  0.40683900  0.13774800  1
  H  129  1  0.84591700  0.35922700  0.16615200  1
  H  130  1  0.68882900  0.39631100  0.16085400  1
  H  131  1  0.69282800  0.40667900  0.10894200  1
  H  132  1  0.62240500  0.41958100  0.08224800  1
  H  133  1  0.63296100  0.49886800  0.07133100  1
  H  134  1  0.70230400  0.48592100  0.09867700  1
  H  135  1  0.79565100  0.48796300  0.10243400  1
  H  136  1  0.77982500  0.42050600  0.09013200  1
  H  137  1  0.83402900  0.44077900  0.05319400  1
  H  138  1  0.85162400  0.50759600  0.06610500  1
  H  139  1  0.70215800  0.34872100  0.18977500  1
  H  141  1  0.81332300  0.31870000  0.20786100  1
  H  143  1  0.72546500  0.49251200  0.19616300  1
  H  145  1  0.88153600  0.50669600  0.02472500  1
  H  147  1  0.57777300  0.46094600  0.04636500  1
  H  173  1  0.18236600  0.82416100  0.64498800  1
  H  174  1  0.17805000  0.85284600  0.59700700  1
  H  175  1  0.33188000  0.82716300  0.64065600  1
  H  176  1  0.32769500  0.85536200  0.59242000  1
  H  177  1  0.33362200  0.86815600  0.53867800  1
  H  178  1  0.34492800  0.83973200  0.51931600  1
  H  179  1  0.19112300  0.84205500  0.55636100  1
  H  180  1  0.19145700  0.89349900  0.51331900  1
  H  181  1  0.11930900  0.91862500  0.50062400  1
  H  182  1  0.13377700  0.93300000  0.56664500  1
  H  183  1  0.20484500  0.90711600  0.58006300  1
  H  184  1  0.29932000  0.90302000  0.58541800  1
  H  185  1  0.27765300  0.91485600  0.50623200  1
  H  186  1  0.32976400  0.95275900  0.48810900  1
  H  187  1  0.35376600  0.94002200  0.56731700  1
  H  188  1  0.20311700  0.81308500  0.53765400  1
  H  190  1  0.31242100  0.79727600  0.52139600  1
  H  192  1  0.23107600  0.80927000  0.68546300  1
  H  194  1  0.38167600  0.98098100  0.52563700  1
  H  196  1  0.07315400  0.95425400  0.50587900  1
  H  222  1  0.17857200  0.64543000  0.53678900  1
  H  223  1  0.17567900  0.59743400  0.55564800  1
  H  224  1  0.32817000  0.64274600  0.53647700  1
  H  225  1  0.32544100  0.59454700  0.55590500  1
  H  226  1  0.33365800  0.54150300  0.59613400  1
  H  227  1  0.34664600  0.52181900  0.64380900  1
  H  228  1  0.19036000  0.55589500  0.60681700  1
  H  229  1  0.19241100  0.51364700  0.59737900  1
  H  230  1  0.12039500  0.50031400  0.58545400  1
  H  231  1  0.13097600  0.56759200  0.50550100  1
  H  232  1  0.20184300  0.58162200  0.51749800  1
  H  233  1  0.29564200  0.58782400  0.51502200  1
  H  234  1  0.27901300  0.50816100  0.58253600  1
  H  235  1  0.33305400  0.49127200  0.56237900  1
  H  236  1  0.35134200  0.57088900  0.49547800  1
  H  237  1  0.20397200  0.53682100  0.65441100  1
  H  239  1  0.31456500  0.52301100  0.68471700  1
  H  241  1  0.22640200  0.68652700  0.51061900  1
  H  243  1  0.38090200  0.52833400  0.49661200  1
  H  245  1  0.07316500  0.50580700  0.54477200  1
  H  271  1  0.17917500  0.53901600  0.82065600  1
  H  272  1  0.17597000  0.55784200  0.84983700  1
  H  273  1  0.32870600  0.53761500  0.82490800  1
  H  274  1  0.32567500  0.55714300  0.85356600  1
  H  275  1  0.33333333  0.59775400  0.86530600  1
  H  276  1  0.34620900  0.64540600  0.83705600  1
  H  277  1  0.18931300  0.60838800  0.84160400  1
  H  278  1  0.19281600  0.59812700  0.89361600  1
  H  279  1  0.12204600  0.58542600  0.92003000  1
  H  280  1  0.13188100  0.50621300  0.93069600  1
  H  281  1  0.20158300  0.51896100  0.90363600  1
  H  282  1  0.29481900  0.51646100  0.90098600  1
  H  283  1  0.27944600  0.58438400  0.91257700  1
  H  284  1  0.33322800  0.56414700  0.94971500  1
  H  285  1  0.35038000  0.49686600  0.93749900  1
  H  286  1  0.20279700  0.65597000  0.81284000  1
  H  288  1  0.31375200  0.68610600  0.79524100  1
  H  290  1  0.22686700  0.51253900  0.80611900  1
  H  292  1  0.38050100  0.49808100  0.97860000  1
  H  294  1  0.07711600  0.54415200  0.95577300  1
  H  300  1  0.00237300  0.02933500  0.50214600  1
  H  301  1  0.05764300  0.99289000  0.51738000  1
  H  318  1  0.00224900  0.50273300  0.47322200  1
  H  319  1  0.05693000  0.51786900  0.49477700  1
  H  336  1  0.01031400  0.47097800  0.03130000  1
  H  337  1  0.06261900  0.49174100  0.99331500  1
  H  354  1  0.50370100  0.97624100  0.49934600  1
  H  355  1  0.55737700  0.01342300  0.48423300  1
  H  372  1  0.50988800  0.50004500  0.53219000  1
  H  373  1  0.56240000  0.48265600  0.51165600  1
  H  390  1  0.50955100  0.53388100  0.97112800  1
  H  391  1  0.56252400  0.51321400  0.00877300  1
  H  408  1  0.75168900  0.26451900  0.29477500  1
  H  409  1  0.73494700  0.29941000  0.24922200  1
  H  426  1  0.75088200  0.29338600  0.44507100  1
  H  427  1  0.73569500  0.24719800  0.45735700  1
  H  444  1  0.73822900  0.44802600  0.26610500  1
  H  445  1  0.72336800  0.46143900  0.29923800  1
  H  462  1  0.24880600  0.73909400  0.70860900  1
  H  463  1  0.23301800  0.70464900  0.75449400  1
  H  480  1  0.24171100  0.71037600  0.55652300  1
  H  481  1  0.22649800  0.75647600  0.54462000  1
  H  498  1  0.24678300  0.55818000  0.73597900  1
  H  499  1  0.23261300  0.54600500  0.70191500  1
  C  1  1  0.84734800  0.05463200  0.47628400  1
  C  2  1  0.82307300  0.06177900  0.49368600  1
  C  3  1  0.79214300  0.08420300  0.48292300  1
  C  4  1  0.78424700  0.10073900  0.45433200  1
  C  5  1  0.80520200  0.09154800  0.43746600  1
  C  6  1  0.83644300  0.06915500  0.44813100  1
  C  7  1  0.75015100  0.12496200  0.44378600  1
  C  8  1  0.70286100  0.10972800  0.45267400  1
  C  9  1  0.68483000  0.09666800  0.43859800  1
  C  10  1  0.64200500  0.08210100  0.44614200  1
  C  11  1  0.61556800  0.07947200  0.46856200  1
  C  12  1  0.63494500  0.09014500  0.48430300  1
  C  13  1  0.67775000  0.10490700  0.47652100  1
  C  14  1  0.76057900  0.14358300  0.45553100  1
  C  15  1  0.75251800  0.14509500  0.41306000  1
  C  16  1  0.71130400  0.15678300  0.39683200  1
  C  17  1  0.71399200  0.17394300  0.36838000  1
  C  18  1  0.75822800  0.18135500  0.35484800  1
  C  19  1  0.79970500  0.17168400  0.37100000  1
  C  20  1  0.79678300  0.15468300  0.39953300  1
  C  21  1  0.80618400  0.14548600  0.46522600  1
  C  22  1  0.81456800  0.16220200  0.47665200  1
  C  23  1  0.77777100  0.17808800  0.47856400  1
  C  24  1  0.73354300  0.17848700  0.46659200  1
  C  25  1  0.72553100  0.16195600  0.45491600  1
  C  50  1  0.84791400  0.47586800  0.47364200  1
  C  51  1  0.82340000  0.49342800  0.44925500  1
  C  52  1  0.79248700  0.48283000  0.43743300  1
  C  53  1  0.78477500  0.45425200  0.44915000  1
  C  54  1  0.80613900  0.43717300  0.47502600  1
  C  55  1  0.83738500  0.44767500  0.48691400  1
  C  56  1  0.75008100  0.44393800  0.43552900  1
  C  57  1  0.70315600  0.45264700  0.44245900  1
  C  58  1  0.68576200  0.43833200  0.46973900  1
  C  59  1  0.64380100  0.44607000  0.47738900  1
  C  60  1  0.61777600  0.46900800  0.45812700  1
  C  61  1  0.63639700  0.48480800  0.43152600  1
  C  62  1  0.67822900  0.47678400  0.42390500  1
  C  63  1  0.75950400  0.45608800  0.40501000  1
  C  64  1  0.75239200  0.41329300  0.44574600  1
  C  65  1  0.71113200  0.39701300  0.45059800  1
  C  66  1  0.71386600  0.36859800  0.46161800  1
  C  67  1  0.75815400  0.35520000  0.46709800  1
  C  68  1  0.79959900  0.37143100  0.46026400  1
  C  69  1  0.79661700  0.39992300  0.44902000  1
  C  70  1  0.80455700  0.46638700  0.39284800  1
  C  71  1  0.81161900  0.47864000  0.36450200  1
  C  72  1  0.77405400  0.48072600  0.34705900  1
  C  73  1  0.73054100  0.46796200  0.35917000  1
  C  74  1  0.72378500  0.45556400  0.38754700  1
  C  99  1  0.85049300  0.47524000  0.05732100  1
  C  100  1  0.82766200  0.45038300  0.06417700  1
  C  101  1  0.79530400  0.43859500  0.08590000  1
  C  102  1  0.78489000  0.45070900  0.10212700  1
  C  103  1  0.80478600  0.47696300  0.09324600  1
  C  104  1  0.83717900  0.48894100  0.07141500  1
  C  105  1  0.74907000  0.43704700  0.12545700  1
  C  106  1  0.70307100  0.44408800  0.10901200  1
  C  107  1  0.68527100  0.47126800  0.09625500  1
  C  108  1  0.64402900  0.47897100  0.08026500  1
  C  109  1  0.61915300  0.45986800  0.07580600  1
  C  110  1  0.63846300  0.43346500  0.08627000  1
  C  111  1  0.67963900  0.42580200  0.10247000  1
  C  112  1  0.75837100  0.40655200  0.14397500  1
  C  113  1  0.74982400  0.44714400  0.14599100  1
  C  114  1  0.70771700  0.45142100  0.15721000  1
  C  115  1  0.70894500  0.46233200  0.17473600  1
  C  116  1  0.75252600  0.46814300  0.18305300  1
  C  117  1  0.79482300  0.46185200  0.17389400  1
  C  118  1  0.79334900  0.45084700  0.15641300  1
  C  119  1  0.80434300  0.39488500  0.14745400  1
  C  120  1  0.81219900  0.36673300  0.16437600  1
  C  121  1  0.77446900  0.34898400  0.17899100  1
  C  122  1  0.72941400  0.36056000  0.17767100  1
  C  123  1  0.72189100  0.38879400  0.16090700  1
  C  148  1  0.34953500  0.94890500  0.52619000  1
  C  149  1  0.32542600  0.94160800  0.50886000  1
  C  150  1  0.29416900  0.91932300  0.51966100  1
  C  151  1  0.28583500  0.90301600  0.54823600  1
  C  152  1  0.30701900  0.91220300  0.56504300  1
  C  153  1  0.33853500  0.93447500  0.55433700  1
  C  154  1  0.25061000  0.87931400  0.55877600  1
  C  155  1  0.20399700  0.89523000  0.54970000  1
  C  156  1  0.18678200  0.90859400  0.56365900  1
  C  157  1  0.14451100  0.92368500  0.55598300  1
  C  158  1  0.11792500  0.92659400  0.53351000  1
  C  159  1  0.13666300  0.91569900  0.51782000  1
  C  160  1  0.17890600  0.90041700  0.52573800  1
  C  161  1  0.25963600  0.86040600  0.54720800  1
  C  162  1  0.25251200  0.85927300  0.58952900  1
  C  163  1  0.21102500  0.84817000  0.60569600  1
  C  164  1  0.21337900  0.83095900  0.63415300  1
  C  165  1  0.25748900  0.82291900  0.64773600  1
  C  166  1  0.29913900  0.83208200  0.63166200  1
  C  167  1  0.29654000  0.84911500  0.60312700  1
  C  168  1  0.30483200  0.85773600  0.53758300  1
  C  169  1  0.31186000  0.84078300  0.52629000  1
  C  170  1  0.27405400  0.82540000  0.52448500  1
  C  171  1  0.23014600  0.82576600  0.53638400  1
  C  172  1  0.22349500  0.84252700  0.54792100  1
  C  197  1  0.34982200  0.52978400  0.52789200  1
  C  198  1  0.32680400  0.51187200  0.55271800  1
  C  199  1  0.29456300  0.52193900  0.56443400  1
  C  200  1  0.28458200  0.55033000  0.55231100  1
  C  201  1  0.30453400  0.56760400  0.52604400  1
  C  202  1  0.33676000  0.55761400  0.51411800  1
  C  203  1  0.24929600  0.56016000  0.56607700  1
  C  204  1  0.20287200  0.55066600  0.55953500  1
  C  205  1  0.18465200  0.56480600  0.53244500  1
  C  206  1  0.14247000  0.55677100  0.52531900  1
  C  207  1  0.11704100  0.53373000  0.54493000  1
  C  208  1  0.13687600  0.51788700  0.57120100  1
  C  209  1  0.17903300  0.52616200  0.57827400  1
  C  210  1  0.25921000  0.54836400  0.59649700  1
  C  211  1  0.25030100  0.59084600  0.55574800  1
  C  212  1  0.20836300  0.60649400  0.55136500  1
  C  213  1  0.20987500  0.63493800  0.54039200  1
  C  214  1  0.25358000  0.64896700  0.53453500  1
  C  215  1  0.29571700  0.63338700  0.54079200  1
  C  216  1  0.29397100  0.60487900  0.55195500  1
  C  217  1  0.30508100  0.53960600  0.60811500  1
  C  218  1  0.31308800  0.52810700  0.63629300  1
  C  219  1  0.27562300  0.52526000  0.65409000  1
  C  220  1  0.23091300  0.53631500  0.64252300  1
  C  221  1  0.22326400  0.54806100  0.61428000  1
  C  246  1  0.34945700  0.52945100  0.94595100  1
  C  247  1  0.32681100  0.55441500  0.93886200  1
  C  248  1  0.29473400  0.56619300  0.91700900  1
  C  249  1  0.28443700  0.55394400  0.90089500  1
  C  250  1  0.30396200  0.52755100  0.91007500  1
  C  251  1  0.33610000  0.51559900  0.93201500  1
  C  252  1  0.24911900  0.56762900  0.87731700  1
  C  253  1  0.20276500  0.56075100  0.89344300  1
  C  254  1  0.18460300  0.53365300  0.90601500  1
  C  255  1  0.14311600  0.52607800  0.92181500  1
  C  256  1  0.11839000  0.54521200  0.92630000  1
  C  257  1  0.13798300  0.57153600  0.91597200  1
  C  258  1  0.17940600  0.57907000  0.89996600  1
  C  259  1  0.25863900  0.59809800  0.85877000  1
  C  260  1  0.25046800  0.55744600  0.85686000  1
  C  261  1  0.20868600  0.55341700  0.84522700  1
  C  262  1  0.21039300  0.54242600  0.82777600  1
  C  263  1  0.25418000  0.53623400  0.81998100  1
  C  264  1  0.29621400  0.54220000  0.82964100  1
  C  265  1  0.29427900  0.55338000  0.84695800  1
  C  266  1  0.30459800  0.60973300  0.85547800  1
  C  267  1  0.31253100  0.63790200  0.83865500  1
  C  268  1  0.27489900  0.65568300  0.82396500  1
  C  269  1  0.22993400  0.64411600  0.82503800  1
  C  270  1  0.22233800  0.61587800  0.84169200  1
  C  295  1  0.00666500  0.96072300  0.53400300  1
  C  296  1  0.02220800  0.98817100  0.52060500  1
  C  297  1  0.98975400  0.00965700  0.51183900  1
  C  298  1  0.94074200  0.00427700  0.51602600  1
  C  299  1  0.92418400  0.97675200  0.52982500  1
  C  302  1  0.95724300  0.95492200  0.53892000  1
  C  309  1  0.90978700  0.02679700  0.50699000  1
  C  310  1  0.04184100  0.94014100  0.54262400  1
  C  313  1  0.00540500  0.53355500  0.51097700  1
  C  314  1  0.02140600  0.52072200  0.49646200  1
  C  315  1  0.98929000  0.51201700  0.48353400  1
  C  316  1  0.94016500  0.51572700  0.48494800  1
  C  317  1  0.92312800  0.52898700  0.49911100  1
  C  320  1  0.95584300  0.53801500  0.51206800  1
  C  327  1  0.90957600  0.50679900  0.47122000  1
  C  328  1  0.04028600  0.54219700  0.52307600  1
  C  331  1  0.00901100  0.51058000  0.96293300  1
  C  332  1  0.02681200  0.49463700  0.98973900  1
  C  333  1  0.99601800  0.48216600  0.01210200  1
  C  334  1  0.94654100  0.48563600  0.00831500  1
  C  335  1  0.92778600  0.50122500  0.98144000  1
  C  338  1  0.95906800  0.51369500  0.95858100  1
  C  345  1  0.91692900  0.47279500  0.03167600  1
  C  346  1  0.04249000  0.52264800  0.94146200  1
  C  349  1  0.50507200  0.04486900  0.46810000  1
  C  350  1  0.52177200  0.01765400  0.48116200  1
  C  351  1  0.49027400  0.99573500  0.48983000  1
  C  352  1  0.44107700  0.00044500  0.48588000  1
  C  353  1  0.42336900  0.02772900  0.47236300  1
  C  356  1  0.45547100  0.04999900  0.46334600  1
  C  363  1  0.41102700  0.97752900  0.49505500  1
  C  364  1  0.53933900  0.06591800  0.45957700  1
  C  367  1  0.50887300  0.47040700  0.49338300  1
  C  368  1  0.52658500  0.48170300  0.50895900  1
  C  369  1  0.49568700  0.49172500  0.52126200  1
  C  370  1  0.44621000  0.49107900  0.51799300  1
  C  371  1  0.42756400  0.47934600  0.50278300  1
  C  374  1  0.45895600  0.46885100  0.49046700  1
  C  381  1  0.41648300  0.50176600  0.53062100  1
  C  382  1  0.54240900  0.46101800  0.48134300  1
  C  385  1  0.50943400  0.49435400  0.03950600  1
  C  386  1  0.52677000  0.51027800  0.01258000  1
  C  387  1  0.49558700  0.52267800  0.99041400  1
  C  388  1  0.44616000  0.51919700  0.99452100  1
  C  389  1  0.42787600  0.50360100  0.02152000  1
  C  392  1  0.45956000  0.49118500  0.04417500  1
  C  399  1  0.41615200  0.53200500  0.97134100  1
  C  400  1  0.54327200  0.48241100  0.06077500  1
  C  403  1  0.75931200  0.27733500  0.23014900  1
  C  404  1  0.74863800  0.28122700  0.25235800  1
  C  405  1  0.75886900  0.26083100  0.27910000  1
  C  406  1  0.78000600  0.23610400  0.28420500  1
  C  407  1  0.78938000  0.23136300  0.26212100  1
  C  410  1  0.77911600  0.25227200  0.23482600  1
  C  417  1  0.79109000  0.21691000  0.31165500  1
  C  418  1  0.75531400  0.30041500  0.20376700  1
  C  421  1  0.76198600  0.22957700  0.49801600  1
  C  422  1  0.74985000  0.25110300  0.47179800  1
  C  423  1  0.75919500  0.27821400  0.46448900  1
  C  424  1  0.78074700  0.28438400  0.48327200  1
  C  425  1  0.79165900  0.26298200  0.51020700  1
  C  428  1  0.78244000  0.23531300  0.51753900  1
  C  435  1  0.79060000  0.31214600  0.47414100  1
  C  436  1  0.75838200  0.20279300  0.50233300  1
  C  439  1  0.75443200  0.50095100  0.27655100  1
  C  440  1  0.73928900  0.47518400  0.28116700  1
  C  441  1  0.74847700  0.46718600  0.26185600  1
  C  442  1  0.77270700  0.48487400  0.23746800  1
  C  443  1  0.78658800  0.51142200  0.23193200  1
  C  446  1  0.77772600  0.51938700  0.25182800  1
  C  453  1  0.78284200  0.47499100  0.21949600  1
  C  454  1  0.75191000  0.50545900  0.29893700  1
  C  457  1  0.25894000  0.72707000  0.77286800  1
  C  458  1  0.24717000  0.72286800  0.75098300  1
  C  459  1  0.25682100  0.74300500  0.72404400  1
  C  460  1  0.27843100  0.76778900  0.71840500  1
  C  461  1  0.28899100  0.77283100  0.74017100  1
  C  464  1  0.27934600  0.75217500  0.76766800  1
  C  471  1  0.28915000  0.78661500  0.69080000  1
  C  472  1  0.25549000  0.70420000  0.79941700  1
  C  475  1  0.25512100  0.77446200  0.50442600  1
  C  476  1  0.24149100  0.75275900  0.53023300  1
  C  477  1  0.25085100  0.72570100  0.53732900  1
  C  478  1  0.27391900  0.71980600  0.51873300  1
  C  479  1  0.28630000  0.74140500  0.49216700  1
  C  482  1  0.27710700  0.76900700  0.48506900  1
  C  489  1  0.28447600  0.69214300  0.52775500  1
  C  490  1  0.25226700  0.80103600  0.50069300  1
  C  493  1  0.25841500  0.50524500  0.72513200  1
  C  494  1  0.24621200  0.53147700  0.72039100  1
  C  495  1  0.25492200  0.53871600  0.74029800  1
  C  496  1  0.27586400  0.51983500  0.76540600  1
  C  497  1  0.28671200  0.49286900  0.77101600  1
  C  500  1  0.27810400  0.48559900  0.75057900  1
  C  507  1  0.28578900  0.52900100  0.78398300  1
  C  508  1  0.25585900  0.50109000  0.70254000  1
  N  42  1  0.78792200  0.19576900  0.48775900  1
  N  44  1  0.75886700  0.19709800  0.32684700  1
  N  46  1  0.87848700  0.03318900  0.48630700  1
  N  48  1  0.57473500  0.06447100  0.47667000  1
  N  91  1  0.78286900  0.49106500  0.31982400  1
  N  93  1  0.75895900  0.32721900  0.47928200  1
  N  95  1  0.87875600  0.48577700  0.48531000  1
  N  97  1  0.57828100  0.47758700  0.46566100  1
  N  140  1  0.78409000  0.32219600  0.19725900  1
  N  142  1  0.75206100  0.48025900  0.19888800  1
  N  144  1  0.88230200  0.48681800  0.03629100  1
  N  146  1  0.57994900  0.46740800  0.05947600  1
  N  189  1  0.28270100  0.80756800  0.51527800  1
  N  191  1  0.25794600  0.80710300  0.67572600  1
  N  193  1  0.38022800  0.97057400  0.51608800  1
  N  195  1  0.07732200  0.94179700  0.52547300  1
  N  238  1  0.28526400  0.51613900  0.68099900  1
  N  240  1  0.25332100  0.67692600  0.52253400  1
  N  242  1  0.38167900  0.52020800  0.51646900  1
  N  244  1  0.07651900  0.52538300  0.53801600  1
  N  287  1  0.28454700  0.68253000  0.80589200  1
  N  289  1  0.25409900  0.52416300  0.80408600  1
  N  291  1  0.38123200  0.51795200  0.96698800  1
  N  293  1  0.07914600  0.53774200  0.94261500  1
  N  303  1  0.87574800  0.96948800  0.53655700  1
  N  304  1  0.93804900  0.92809500  0.55164800  1
  N  321  1  0.87450400  0.53523200  0.49990200  1
  N  322  1  0.93618000  0.55017300  0.52660000  1
  N  339  1  0.87766000  0.50280800  0.97829100  1
  N  340  1  0.93807100  0.52961300  0.93243500  1
  N  357  1  0.37468300  0.03433400  0.46587300  1
  N  358  1  0.43517100  0.07654400  0.45088800  1
  N  375  1  0.37745900  0.47751100  0.50138000  1
  N  376  1  0.43810600  0.45815200  0.47492400  1
  N  393  1  0.37781000  0.50197200  0.02499500  1
  N  394  1  0.43899700  0.47525500  0.07045200  1
  N  411  1  0.81060300  0.20698900  0.26578100  1
  N  412  1  0.78907500  0.24957400  0.21165300  1
  N  429  1  0.81344700  0.26768800  0.53011300  1
  N  430  1  0.79378500  0.21278400  0.54358700  1
  N  447  1  0.81087700  0.53027000  0.20776400  1
  N  448  1  0.79196600  0.54504000  0.24834900  1
  N  465  1  0.31089800  0.79722700  0.73601000  1
  N  466  1  0.29042100  0.75517800  0.79053700  1
  N  483  1  0.30945700  0.73693200  0.47244600  1
  N  484  1  0.28994500  0.79172300  0.45944700  1
  N  501  1  0.30791300  0.47287900  0.79580100  1
  N  502  1  0.28956200  0.45954700  0.75414100  1
  O  305  1  0.85808900  0.97890300  0.55059100  1
  O  306  1  0.94721600  0.91446400  0.57672200  1
  O  307  1  0.85024300  0.97572700  0.51606100  1
  O  308  1  0.94970200  0.91501300  0.53994400  1
  O  311  1  0.04298300  0.92095200  0.56949200  1
  O  312  1  0.91882100  0.04458400  0.51593400  1
  O  323  1  0.85663100  0.54945200  0.47654400  1
  O  324  1  0.94457000  0.57531600  0.51547000  1
  O  325  1  0.84946700  0.51444600  0.51394200  1
  O  326  1  0.94805200  0.53824700  0.55135700  1
  O  329  1  0.04041700  0.56890400  0.51604500  1
  O  330  1  0.91855100  0.51628400  0.44437900  1
  O  341  1  0.86310400  0.49193600  0.96492300  1
  O  342  1  0.94319400  0.51927300  0.91742700  1
  O  343  1  0.86255600  0.52693500  0.96754700  1
  O  344  1  0.95204000  0.55401100  0.92022000  1
  O  347  1  0.04037500  0.51576300  0.92170800  1
  O  348  1  0.92728100  0.44664300  0.05080500  1
  O  359  1  0.35769500  0.02486200  0.45173900  1
  O  360  1  0.44427500  0.09052200  0.42582700  1
  O  361  1  0.34921500  0.02752600  0.48651700  1
  O  362  1  0.44588000  0.08955100  0.46281200  1
  O  365  1  0.54034300  0.08509700  0.43270400  1
  O  366  1  0.42074900  0.95991200  0.48598900  1
  O  377  1  0.36323200  0.45318800  0.51257400  1
  O  378  1  0.44401300  0.43283600  0.48547900  1
  O  379  1  0.36215300  0.49055700  0.47727700  1
  O  380  1  0.45168300  0.47023100  0.45045100  1
  O  383  1  0.54150800  0.43412200  0.48913200  1
  O  384  1  0.42673700  0.49501300  0.55670900  1
  O  395  1  0.36365500  0.51284800  0.03843700  1
  O  396  1  0.44439600  0.48564400  0.08539600  1
  O  397  1  0.36273200  0.47782900  0.03585400  1
  O  398  1  0.45309600  0.45088300  0.08261900  1
  O  401  1  0.54139000  0.48929100  0.08054000  1
  O  402  1  0.42643500  0.55812600  0.95209200  1
  O  413  1  0.85110400  0.20306200  0.27641000  1
  O  414  1  0.83263400  0.24642400  0.20931000  1
  O  415  1  0.78509200  0.18635400  0.27972300  1
  O  416  1  0.76642200  0.23015000  0.21217600  1
  O  419  1  0.71509300  0.30271800  0.18967600  1
  O  420  1  0.82276300  0.22549600  0.32379100  1
  O  431  1  0.85332100  0.27897800  0.52249900  1
  O  432  1  0.83754900  0.21121100  0.54842000  1
  O  433  1  0.78768100  0.28154500  0.53679100  1
  O  434  1  0.77166000  0.21363000  0.56247700  1
  O  437  1  0.71644200  0.18992000  0.51231200  1
  O  438  1  0.82097700  0.32453300  0.45275500  1
  O  449  1  0.85007500  0.52115100  0.20523300  1
  O  450  1  0.83621900  0.54812900  0.24615700  1
  O  451  1  0.78632100  0.53745700  0.18669200  1
  O  452  1  0.77237100  0.56462700  0.22798100  1
  O  455  1  0.70918600  0.51369600  0.30314200  1
  O  456  1  0.81286000  0.45341100  0.22913000  1
  O  467  1  0.35098000  0.80094600  0.72493000  1
  O  468  1  0.33416900  0.75826900  0.79238000  1
  O  469  1  0.28540900  0.81790800  0.72224700  1
  O  470  1  0.26833600  0.77478300  0.78998300  1
  O  473  1  0.21511800  0.70163900  0.81349900  1
  O  474  1  0.31972900  0.77766400  0.67847000  1
  O  485  1  0.34912000  0.72554300  0.48061700  1
  O  486  1  0.33400200  0.79308200  0.45551600  1
  O  487  1  0.28445100  0.72324900  0.46520300  1
  O  488  1  0.26922000  0.79135400  0.43993300  1
  O  491  1  0.21074100  0.81447700  0.49087100  1
  O  492  1  0.31488100  0.68005800  0.54913600  1
  O  503  1  0.34771800  0.48031900  0.79977200  1
  O  504  1  0.33326400  0.45460600  0.75777300  1
  O  505  1  0.28166800  0.46636100  0.81612700  1
  O  506  1  0.26700100  0.44069300  0.77367000  1
  O  509  1  0.21520700  0.49000600  0.69965800  1
  O  510  1  0.31690800  0.55003200  0.77511400  1
