# generated using pymatgen
data_H12C20N5O2
_symmetry_space_group_name_H-M   'P 1'
_cell_length_a   36.40125000
_cell_length_b   36.40120000
_cell_length_c   52.97380000
_cell_angle_alpha   90.19980000
_cell_angle_beta   90.00000055
_cell_angle_gamma   119.99986369
_symmetry_Int_Tables_number   1
_chemical_formula_structural   H12C20N5O2
_chemical_formula_sum   'H144 C240 N60 O24'
_cell_volume   60788.41688073
_cell_formula_units_Z   12
loop_
 _symmetry_equiv_pos_site_id
 _symmetry_equiv_pos_as_xyz
  1  'x, y, z'
loop_
 _atom_site_type_symbol
 _atom_site_label
 _atom_site_symmetry_multiplicity
 _atom_site_fract_x
 _atom_site_fract_y
 _atom_site_fract_z
 _atom_site_occupancy
  H  7  1  0.64082200  0.19360400  0.75423700  1
  H  16  1  0.76416700  0.31588700  0.73778700  1
  H  17  1  0.73454500  0.25560800  0.64260700  1
  H  18  1  0.77206200  0.30363300  0.64954300  1
  H  19  1  0.69903100  0.21497800  0.84917900  1
  H  20  1  0.65029300  0.18001000  0.84140400  1
  H  21  1  0.76481800  0.28635600  0.77440000  1
  H  22  1  0.67137700  0.19155300  0.71877000  1
  H  27  1  0.79045300  0.35655700  0.67797000  1
  H  28  1  0.78676300  0.29130900  0.81982300  1
  H  29  1  0.59532200  0.16952900  0.80873000  1
  H  30  1  0.67604000  0.16779000  0.67577500  1
  H  37  1  0.50759700  0.31481900  0.42114300  1
  H  46  1  0.50662400  0.19171200  0.40421200  1
  H  47  1  0.47616800  0.22127200  0.30918500  1
  H  48  1  0.48675300  0.18382500  0.31594900  1
  H  49  1  0.47109400  0.25696200  0.51600400  1
  H  50  1  0.48480200  0.30563300  0.50832500  1
  H  51  1  0.47632000  0.19085500  0.44088700  1
  H  52  1  0.47485600  0.28430200  0.38562900  1
  H  57  1  0.52071900  0.16501900  0.34422600  1
  H  58  1  0.45964200  0.16902400  0.48624400  1
  H  59  1  0.52891800  0.36032300  0.47591600  1
  H  60  1  0.44685700  0.27995500  0.34261200  1
  H  67  1  0.76188100  0.44810300  0.08769700  1
  H  76  1  0.63973100  0.44925500  0.07099000  1
  H  77  1  0.70006700  0.47977000  0.97601700  1
  H  78  1  0.65203200  0.46923700  0.98278600  1
  H  79  1  0.74053600  0.48455600  0.18278800  1
  H  80  1  0.77560500  0.47099800  0.17495900  1
  H  81  1  0.66908200  0.47919000  0.10784500  1
  H  82  1  0.76411900  0.48094000  0.05239400  1
  H  87  1  0.59910400  0.43503900  0.01104100  1
  H  88  1  0.66391500  0.49581400  0.15330700  1
  H  89  1  0.78603100  0.42680300  0.14243200  1
  H  90  1  0.78781600  0.50960900  0.00958800  1
  H  97  1  0.29967700  0.77784700  0.25355400  1
  H  106  1  0.17654000  0.65546700  0.23648700  1
  H  107  1  0.20586900  0.71553300  0.14155800  1
  H  108  1  0.16842300  0.66751200  0.14832200  1
  H  109  1  0.24146700  0.75589500  0.34841300  1
  H  110  1  0.29019400  0.79092400  0.34082800  1
  H  111  1  0.17574900  0.68482800  0.27321600  1
  H  112  1  0.26921900  0.77978900  0.21798900  1
  H  117  1  0.14999200  0.61472700  0.17651900  1
  H  118  1  0.15377800  0.67958500  0.31860900  1
  H  119  1  0.34540200  0.80143900  0.30790400  1
  H  120  1  0.26455800  0.80345900  0.17506500  1
  H  127  1  0.43297100  0.65597400  0.91997100  1
  H  136  1  0.43380500  0.77933100  0.90340000  1
  H  137  1  0.46468000  0.74991300  0.80830800  1
  H  138  1  0.45413800  0.78740400  0.81523100  1
  H  139  1  0.46947000  0.71444000  0.01496600  1
  H  140  1  0.45571400  0.66567600  0.00724300  1
  H  141  1  0.46387000  0.77993400  0.94006600  1
  H  142  1  0.46525000  0.68647100  0.88446000  1
  H  147  1  0.41935200  0.80557800  0.84359300  1
  H  148  1  0.48083600  0.80203700  0.98548900  1
  H  149  1  0.41079200  0.61022500  0.97399500  1
  H  150  1  0.49404300  0.69151000  0.84155500  1
  H  157  1  0.17771300  0.52280900  0.58674900  1
  H  166  1  0.30015100  0.52199800  0.56996100  1
  H  167  1  0.24022800  0.49143700  0.47478500  1
  H  168  1  0.28822200  0.50194500  0.48169800  1
  H  169  1  0.19965600  0.48636800  0.68157000  1
  H  170  1  0.16474800  0.50022600  0.67395700  1
  H  171  1  0.27056600  0.49161000  0.60645500  1
  H  172  1  0.17591900  0.49061600  0.55102700  1
  H  177  1  0.34106200  0.53631300  0.51013500  1
  H  178  1  0.27574300  0.47464500  0.65174600  1
  H  179  1  0.15404200  0.54489200  0.64099100  1
  H  180  1  0.15228000  0.46231400  0.50795700  1
  H  187  1  0.69212000  0.40507600  0.96527700  1
  H  192  1  0.82469500  0.46980700  0.95921400  1
  H  197  1  0.68287300  0.28648500  0.86576900  1
  H  198  1  0.81587400  0.35249600  0.86385600  1
  H  200  1  0.61367500  0.30145300  0.89839900  1
  H  202  1  0.63479500  0.36867600  0.93103300  1
  H  211  1  0.66770400  0.26375500  0.63184200  1
  H  216  1  0.59956700  0.13115200  0.62562000  1
  H  221  1  0.55858400  0.27288700  0.53252600  1
  H  222  1  0.49127200  0.13989100  0.53030000  1
  H  224  1  0.64280900  0.34201500  0.56520800  1
  H  226  1  0.68873100  0.32091800  0.59772300  1
  H  235  1  0.55107900  0.28820600  0.29838900  1
  H  240  1  0.48627300  0.35598300  0.29257500  1
  H  245  1  0.66903800  0.39707800  0.19919400  1
  H  246  1  0.60308300  0.46409900  0.19725200  1
  H  248  1  0.65425800  0.31313800  0.23168800  1
  H  250  1  0.58728900  0.26719500  0.26414800  1
  H  259  1  0.24840900  0.56641100  0.46391400  1
  H  264  1  0.11581600  0.50183400  0.45786000  1
  H  269  1  0.25751400  0.68437300  0.36471900  1
  H  270  1  0.12453100  0.61861600  0.36258900  1
  H  272  1  0.32665400  0.66945600  0.39730900  1
  H  274  1  0.30557700  0.60248800  0.42974800  1
  H  283  1  0.27274500  0.70740200  0.13063000  1
  H  288  1  0.34044300  0.83997900  0.12482900  1
  H  293  1  0.38184900  0.69825800  0.03128000  1
  H  294  1  0.44875400  0.83125100  0.02946400  1
  H  296  1  0.29784300  0.62906100  0.06377000  1
  H  298  1  0.25178200  0.65009700  0.09634600  1
  H  307  1  0.38969000  0.68316000  0.79742100  1
  H  312  1  0.45420600  0.61508100  0.79120500  1
  H  317  1  0.27114600  0.57381700  0.69793300  1
  H  318  1  0.33693600  0.50660000  0.69584400  1
  H  320  1  0.28621800  0.65808500  0.73067400  1
  H  322  1  0.35342200  0.70414300  0.76325700  1
  H  331  1  0.55368300  0.10720700  0.83500200  1
  H  336  1  0.58647700  0.05309500  0.77523600  1
  H  341  1  0.45714500  0.91087400  0.88757200  1
  H  342  1  0.49270700  0.87170600  0.82187100  1
  H  344  1  0.46108700  0.00771400  0.90032500  1
  H  346  1  0.53060800  0.08368600  0.87943100  1
  H  355  1  0.50847300  0.40236400  0.50168200  1
  H  360  1  0.42172000  0.36906600  0.44182700  1
  H  365  1  0.40837000  0.49896800  0.55432500  1
  H  366  1  0.33388100  0.46299700  0.48851900  1
  H  368  1  0.50077000  0.49428000  0.56741500  1
  H  370  1  0.50752400  0.42549700  0.54632700  1
  H  379  1  0.84850600  0.44735100  0.16829200  1
  H  384  1  0.90205700  0.53390900  0.10863400  1
  H  389  1  0.04535300  0.54740000  0.22085600  1
  H  390  1  0.08379600  0.62168200  0.15522500  1
  H  392  1  0.94831600  0.45498400  0.23377200  1
  H  394  1  0.87250500  0.44823600  0.21279700  1
  H  403  1  0.38596900  0.86350300  0.33563300  1
  H  408  1  0.35397200  0.91799200  0.27594600  1
  H  413  1  0.48347300  0.06054100  0.38872700  1
  H  414  1  0.44776600  0.09905300  0.32297000  1
  H  416  1  0.48171300  0.96492900  0.40054400  1
  H  418  1  0.40903000  0.88589900  0.37923000  1
  H  427  1  0.43245100  0.57010500  0.00224600  1
  H  432  1  0.51913900  0.60155100  0.94268900  1
  H  437  1  0.53167800  0.47264700  0.05531100  1
  H  438  1  0.60610200  0.50792800  0.98964900  1
  H  440  1  0.43721500  0.47286400  0.06653000  1
  H  442  1  0.43054200  0.54705400  0.04511300  1
  H  451  1  0.09225500  0.52336300  0.66902600  1
  H  456  1  0.03722200  0.43648200  0.60925300  1
  H  461  1  0.89568200  0.42406300  0.72209400  1
  H  462  1  0.85648000  0.34942400  0.65626100  1
  H  464  1  0.99070200  0.51846200  0.73362100  1
  H  466  1  0.07065200  0.52481900  0.71227800  1
  C  1  1  0.70516200  0.24118100  0.75944300  1
  C  2  1  0.66451500  0.20852800  0.76727000  1
  C  3  1  0.65457000  0.19585600  0.79268600  1
  C  4  1  0.68562600  0.21751400  0.81184400  1
  C  5  1  0.72593500  0.25249200  0.80484700  1
  C  6  1  0.73511200  0.26251800  0.77898000  1
  C  9  1  0.71542500  0.25205800  0.73298900  1
  C  10  1  0.69367900  0.22170100  0.71373600  1
  C  11  1  0.70229900  0.23002400  0.68771300  1
  C  12  1  0.73643600  0.27040700  0.68019800  1
  C  13  1  0.75954900  0.30205700  0.69909600  1
  C  14  1  0.74810600  0.29238800  0.72478400  1
  C  23  1  0.79390300  0.34187400  0.69281000  1
  C  24  1  0.75591200  0.27977500  0.82243000  1
  C  25  1  0.61416100  0.16294000  0.79847100  1
  C  26  1  0.67893900  0.19563000  0.67144300  1
  C  31  1  0.49076000  0.25048700  0.42614000  1
  C  32  1  0.49885600  0.29115900  0.43410600  1
  C  33  1  0.49627000  0.30116400  0.45957200  1
  C  34  1  0.48689600  0.27017300  0.47864000  1
  C  35  1  0.48155600  0.22984800  0.47150500  1
  C  36  1  0.48223800  0.22058300  0.44558200  1
  C  39  1  0.49136200  0.24030200  0.39963100  1
  C  40  1  0.48279200  0.26206000  0.38048000  1
  C  41  1  0.48266100  0.25353600  0.35441000  1
  C  42  1  0.48900300  0.21943900  0.34675100  1
  C  43  1  0.49753800  0.19637000  0.36555300  1
  C  44  1  0.49919100  0.20775000  0.39128500  1
  C  53  1  0.50289700  0.16195100  0.35918400  1
  C  54  1  0.47882600  0.19988700  0.48899300  1
  C  55  1  0.50372300  0.34155400  0.46543900  1
  C  56  1  0.47174700  0.27695300  0.33822600  1
  C  61  1  0.71435900  0.46490700  0.09289600  1
  C  62  1  0.74698500  0.45686700  0.10073900  1
  C  63  1  0.75963200  0.45948100  0.12618200  1
  C  64  1  0.73798300  0.46881000  0.14535000  1
  C  65  1  0.70292700  0.47404800  0.13834100  1
  C  66  1  0.69294800  0.47335200  0.11244300  1
  C  69  1  0.70355700  0.46433800  0.06640500  1
  C  70  1  0.73393900  0.47296100  0.04725200  1
  C  71  1  0.72562400  0.47316400  0.02119700  1
  C  72  1  0.68526200  0.46693700  0.01356000  1
  C  73  1  0.65360100  0.45837800  0.03235400  1
  C  74  1  0.66323100  0.45664100  0.05807100  1
  C  83  1  0.61393600  0.45318900  0.02593900  1
  C  84  1  0.67565400  0.47667800  0.15592200  1
  C  85  1  0.79248200  0.45185800  0.13192500  1
  C  86  1  0.76012100  0.48451600  0.00507200  1
  C  91  1  0.23538100  0.73014200  0.25849400  1
  C  92  1  0.27599600  0.76280300  0.26650900  1
  C  93  1  0.28593300  0.77527800  0.29201800  1
  C  94  1  0.25488900  0.75348800  0.31105800  1
  C  95  1  0.21462400  0.71848000  0.30386600  1
  C  96  1  0.20544900  0.70865600  0.27792600  1
  C  99  1  0.22518300  0.71931800  0.23196700  1
  C  100  1  0.24693300  0.74962500  0.21282600  1
  C  101  1  0.23830000  0.74124600  0.18675800  1
  C  102  1  0.20416300  0.70083400  0.17908400  1
  C  103  1  0.18113500  0.66922600  0.19786300  1
  C  104  1  0.19257300  0.67895500  0.22358800  1
  C  113  1  0.14669900  0.62945200  0.19146600  1
  C  114  1  0.18462400  0.69113100  0.32130800  1
  C  115  1  0.32632300  0.80814800  0.29801600  1
  C  116  1  0.26159100  0.77559200  0.17059900  1
  C  121  1  0.44949100  0.72027400  0.92513000  1
  C  122  1  0.44163100  0.67968200  0.93300100  1
  C  123  1  0.44435300  0.66981200  0.95845500  1
  C  124  1  0.45363300  0.70091200  0.97758900  1
  C  125  1  0.45889100  0.74116900  0.97054500  1
  C  126  1  0.45803900  0.75025200  0.94466100  1
  C  129  1  0.44887000  0.73055900  0.89865900  1
  C  130  1  0.45747700  0.70883000  0.87941400  1
  C  131  1  0.45790400  0.71756600  0.85339800  1
  C  132  1  0.45169600  0.75172400  0.84586500  1
  C  133  1  0.44311200  0.77479100  0.86474500  1
  C  134  1  0.44127400  0.76328600  0.89042600  1
  C  143  1  0.43760900  0.80911900  0.85842800  1
  C  144  1  0.46152800  0.77119300  0.98808400  1
  C  145  1  0.43682100  0.62940600  0.96435600  1
  C  146  1  0.46905100  0.69431500  0.83714900  1
  C  151  1  0.22539900  0.50617200  0.59171400  1
  C  152  1  0.19272300  0.51410000  0.59970100  1
  C  153  1  0.18016200  0.51140500  0.62517400  1
  C  154  1  0.20192800  0.50205600  0.64421000  1
  C  155  1  0.23685600  0.49669100  0.63705000  1
  C  156  1  0.24677200  0.49752300  0.61114300  1
  C  159  1  0.23631900  0.50687800  0.56522300  1
  C  160  1  0.20606200  0.49839800  0.54597400  1
  C  161  1  0.21447100  0.49811400  0.51993400  1
  C  162  1  0.25486700  0.50432800  0.51238900  1
  C  163  1  0.28644300  0.51285200  0.53127600  1
  C  164  1  0.27668400  0.51457700  0.55697800  1
  C  173  1  0.32624400  0.51826100  0.52497100  1
  C  174  1  0.26415500  0.49389800  0.65450600  1
  C  175  1  0.14732200  0.51897600  0.63116800  1
  C  176  1  0.18018100  0.48719100  0.50364500  1
  C  181  1  0.75851600  0.44111300  0.96561900  1
  C  182  1  0.79530700  0.44728800  0.95308800  1
  C  184  1  0.75436300  0.39116500  0.92378500  1
  C  185  1  0.71626000  0.38467900  0.93523400  1
  C  186  1  0.71902200  0.40973700  0.95634100  1
  C  188  1  0.75251100  0.36537900  0.90324800  1
  C  189  1  0.78790000  0.34659600  0.87179900  1
  C  190  1  0.74886200  0.31563100  0.86149600  1
  C  191  1  0.71142200  0.30894600  0.87317400  1
  C  194  1  0.71236800  0.33354800  0.89402300  1
  C  195  1  0.67442200  0.32741500  0.90515200  1
  C  196  1  0.67659100  0.35318400  0.92572700  1
  C  205  1  0.63720400  0.19736000  0.63209500  1
  C  206  1  0.60650100  0.16052100  0.61953900  1
  C  208  1  0.59142300  0.20139000  0.59032800  1
  C  209  1  0.62311600  0.23952000  0.60182500  1
  C  210  1  0.64539900  0.23681700  0.62288600  1
  C  212  1  0.56754600  0.20323600  0.56981200  1
  C  213  1  0.51339600  0.16786900  0.53829700  1
  C  214  1  0.52159100  0.20690400  0.52808200  1
  C  215  1  0.55239900  0.24433400  0.53985200  1
  C  218  1  0.57598100  0.24338100  0.56068100  1
  C  219  1  0.60785400  0.28133100  0.57187800  1
  C  220  1  0.63140500  0.27918100  0.59241600  1
  C  229  1  0.51501400  0.31851700  0.29885200  1
  C  230  1  0.50873900  0.34909800  0.28640600  1
  C  232  1  0.56466200  0.36422300  0.25708200  1
  C  233  1  0.57123000  0.33265300  0.26846900  1
  C  234  1  0.54632800  0.31041100  0.28951700  1
  C  236  1  0.59033100  0.38805300  0.23657900  1
  C  237  1  0.60900100  0.44205000  0.20517300  1
  C  238  1  0.63991400  0.43392000  0.19488800  1
  C  239  1  0.64661500  0.40321600  0.20656600  1
  C  242  1  0.62211400  0.37969000  0.22736700  1
  C  243  1  0.62832700  0.34795100  0.23846500  1
  C  244  1  0.60267600  0.32444400  0.25897900  1
  C  253  1  0.18202900  0.53046300  0.46425200  1
  C  254  1  0.14517900  0.52424900  0.45174200  1
  C  256  1  0.18600500  0.58011600  0.42249900  1
  C  257  1  0.22414100  0.58661700  0.43394600  1
  C  258  1  0.22146500  0.56171200  0.45499100  1
  C  260  1  0.18784700  0.60578500  0.40200400  1
  C  261  1  0.15250400  0.62449700  0.37055000  1
  C  262  1  0.19153900  0.65533800  0.36031900  1
  C  263  1  0.22895800  0.66199900  0.37205100  1
  C  266  1  0.22799000  0.63750300  0.39285200  1
  C  267  1  0.26594400  0.64365000  0.40400500  1
  C  268  1  0.26379600  0.61799600  0.42451500  1
  C  277  1  0.30301700  0.77378400  0.13109600  1
  C  278  1  0.33356900  0.81061600  0.11863500  1
  C  280  1  0.34873400  0.76975700  0.08926700  1
  C  281  1  0.31717700  0.73163000  0.10065200  1
  C  282  1  0.29491900  0.73433300  0.12174000  1
  C  284  1  0.37262100  0.76791500  0.06875000  1
  C  285  1  0.42670100  0.80328100  0.03736800  1
  C  286  1  0.41863300  0.76424000  0.02704900  1
  C  287  1  0.38792500  0.72681100  0.03868700  1
  C  290  1  0.36432500  0.72777100  0.05950500  1
  C  291  1  0.33258600  0.68981700  0.07058600  1
  C  292  1  0.30902400  0.69196800  0.09112900  1
  C  301  1  0.42562000  0.65268800  0.79767600  1
  C  302  1  0.43175300  0.62201200  0.78510300  1
  C  304  1  0.37571000  0.60690300  0.75584500  1
  C  305  1  0.36928000  0.63858700  0.76734400  1
  C  306  1  0.39431800  0.66087600  0.78844700  1
  C  308  1  0.34993400  0.58297800  0.73530900  1
  C  309  1  0.33109600  0.52874000  0.70381400  1
  C  310  1  0.30019900  0.53687500  0.69356700  1
  C  311  1  0.29357100  0.56769700  0.70529400  1
  C  314  1  0.31816800  0.59135600  0.72614000  1
  C  315  1  0.31208700  0.62322500  0.73732500  1
  C  316  1  0.33784800  0.64682400  0.75789700  1
  C  325  1  0.57323000  0.08708600  0.80294300  1
  C  326  1  0.56925100  0.05067900  0.79101000  1
  C  328  1  0.52425900  0.00548700  0.82366700  1
  C  329  1  0.52537000  0.04032900  0.83633500  1
  C  330  1  0.54978500  0.08111000  0.82540000  1
  C  332  1  0.50388200  0.96490500  0.83466100  1
  C  333  1  0.48871900  0.89339000  0.83200100  1
  C  334  1  0.47028900  0.88361600  0.85621000  1
  C  335  1  0.46886400  0.91669800  0.86959200  1
  C  338  1  0.48487100  0.95784300  0.85888800  1
  C  339  1  0.48430600  0.99227400  0.87122700  1
  C  340  1  0.50440100  0.03320000  0.85987300  1
  C  349  1  0.46890400  0.38258900  0.46957300  1
  C  350  1  0.43648600  0.38642600  0.45761500  1
  C  352  1  0.43612700  0.43156200  0.49033300  1
  C  353  1  0.46983600  0.43057500  0.50301800  1
  C  354  1  0.48629700  0.40617400  0.49206000  1
  C  356  1  0.41586300  0.45194500  0.50136100  1
  C  357  1  0.35951300  0.46704400  0.49867300  1
  C  358  1  0.36810500  0.48563700  0.52290400  1
  C  359  1  0.40254500  0.48713900  0.53633000  1
  C  362  1  0.42772300  0.47107700  0.52562600  1
  C  363  1  0.46266200  0.47170300  0.53799800  1
  C  364  1  0.48356900  0.45160800  0.52660400  1
  C  373  1  0.86833900  0.48685400  0.13629500  1
  C  374  1  0.90461900  0.51920100  0.12438300  1
  C  376  1  0.95008200  0.51957100  0.15701500  1
  C  377  1  0.91537200  0.48593500  0.16965300  1
  C  378  1  0.87450600  0.46950200  0.15871400  1
  C  380  1  0.99074900  0.53981500  0.16801300  1
  C  381  1  0.06221700  0.59608900  0.16534100  1
  C  382  1  0.07225000  0.58753900  0.18950800  1
  C  383  1  0.03931700  0.55317600  0.20289800  1
  C  386  1  0.99804500  0.52801100  0.19221100  1
  C  387  1  0.96372700  0.49313500  0.20453700  1
  C  388  1  0.92269900  0.47224400  0.19316900  1
  C  397  1  0.36683000  0.88385300  0.30359400  1
  C  398  1  0.37099600  0.92029700  0.29180500  1
  C  400  1  0.41585400  0.96530500  0.32474800  1
  C  401  1  0.41452000  0.93044200  0.33736000  1
  C  402  1  0.39002700  0.88968300  0.32618400  1
  C  404  1  0.43636500  0.00595200  0.33579900  1
  C  405  1  0.45172400  0.07745800  0.33311600  1
  C  406  1  0.47031300  0.08748200  0.35732600  1
  C  407  1  0.47163900  0.05450800  0.37074500  1
  C  410  1  0.45540800  0.01320000  0.36004500  1
  C  411  1  0.45582600  0.97879200  0.37234300  1
  C  412  1  0.43548700  0.93771000  0.36097400  1
  C  421  1  0.47208500  0.58901000  0.97029000  1
  C  422  1  0.50435900  0.58467600  0.95853400  1
  C  424  1  0.50428800  0.53995500  0.99143000  1
  C  425  1  0.47076400  0.54145200  0.00404300  1
  C  426  1  0.45461500  0.56595600  0.99285200  1
  C  428  1  0.52435800  0.51943600  0.00243100  1
  C  429  1  0.58050500  0.50401400  0.99976800  1
  C  430  1  0.57188600  0.48559500  0.02396100  1
  C  431  1  0.53752900  0.48435000  0.03734100  1
  C  434  1  0.51249800  0.50053000  0.02664300  1
  C  435  1  0.47765100  0.50020200  0.03892100  1
  C  436  1  0.45698600  0.52057100  0.02763100  1
  C  445  1  0.07163000  0.48364400  0.63695900  1
  C  446  1  0.03506400  0.45128900  0.62514400  1
  C  448  1  0.99031700  0.45135500  0.65809100  1
  C  449  1  0.02530700  0.48496400  0.67074800  1
  C  450  1  0.06598100  0.50115200  0.65957400  1
  C  452  1  0.94973600  0.43127200  0.66911300  1
  C  453  1  0.87817200  0.37505500  0.66642300  1
  C  454  1  0.86839600  0.38371500  0.69067500  1
  C  455  1  0.90151200  0.41815500  0.70409300  1
  C  458  1  0.94270200  0.44320400  0.69338400  1
  C  459  1  0.97720800  0.47813200  0.70570900  1
  C  460  1  0.01821400  0.49881400  0.69438200  1
  N  8  1  0.67703100  0.20431000  0.83637700  1
  N  15  1  0.74782800  0.27757800  0.65533800  1
  N  38  1  0.48226900  0.27883400  0.50320500  1
  N  45  1  0.48483200  0.20800500  0.32186000  1
  N  68  1  0.75133100  0.47349800  0.16989300  1
  N  75  1  0.67814600  0.47124000  0.98869600  1
  N  98  1  0.26347600  0.76661200  0.33566700  1
  N  105  1  0.19266900  0.69358900  0.15420600  1
  N  128  1  0.45818600  0.69240300  0.00216100  1
  N  135  1  0.45597300  0.76317300  0.82102300  1
  N  158  1  0.18887200  0.49752800  0.66879000  1
  N  165  1  0.26213500  0.50008100  0.48752400  1
  N  183  1  0.79207000  0.42225800  0.93312100  1
  N  193  1  0.78830100  0.37019900  0.89191200  1
  N  203  1  0.76014800  0.46365700  0.98554700  1
  N  204  1  0.74299900  0.29290800  0.84097300  1
  N  207  1  0.58472500  0.16370600  0.59960300  1
  N  217  1  0.53652300  0.16745700  0.55839700  1
  N  227  1  0.65819900  0.19600500  0.65200100  1
  N  228  1  0.50478400  0.21277600  0.50758700  1
  N  231  1  0.53361800  0.37083300  0.26646800  1
  N  241  1  0.58549200  0.41897300  0.22524700  1
  N  251  1  0.49285100  0.29755400  0.31878800  1
  N  252  1  0.66263000  0.45070500  0.17442000  1
  N  255  1  0.14833800  0.54913300  0.43181500  1
  N  265  1  0.15207900  0.60099600  0.39062400  1
  N  275  1  0.18073400  0.50828700  0.48419600  1
  N  276  1  0.19743900  0.67802300  0.33985700  1
  N  279  1  0.35532100  0.80743400  0.09866800  1
  N  289  1  0.40354500  0.80369200  0.05745300  1
  N  299  1  0.28215100  0.77510200  0.15109100  1
  N  300  1  0.43550600  0.75834700  0.00657700  1
  N  303  1  0.40673600  0.60022300  0.76513500  1
  N  313  1  0.35469700  0.55194700  0.72392600  1
  N  323  1  0.44802900  0.67358600  0.81763300  1
  N  324  1  0.27741900  0.51993100  0.67308700  1
  N  327  1  0.54574900  0.01205300  0.80165900  1
  N  337  1  0.50495300  0.93274800  0.82244400  1
  N  347  1  0.60527500  0.12431400  0.79546100  1
  N  348  1  0.46371000  0.84707800  0.86630200  1
  N  351  1  0.42128000  0.40994400  0.46828800  1
  N  361  1  0.38267600  0.45077200  0.48911300  1
  N  371  1  0.47411800  0.35050200  0.46212200  1
  N  372  1  0.33814400  0.49232700  0.53295200  1
  N  375  1  0.94333500  0.53437800  0.13503400  1
  N  385  1  0.02275700  0.57294000  0.15580300  1
  N  395  1  0.83104600  0.48155200  0.12879500  1
  N  396  1  0.10891700  0.61749900  0.19957700  1
  N  399  1  0.39455100  0.95886100  0.30265600  1
  N  409  1  0.43535100  0.03799100  0.32356200  1
  N  419  1  0.33488100  0.84674800  0.29574500  1
  N  420  1  0.47713300  0.12422100  0.36735800  1
  N  423  1  0.51923700  0.56111000  0.96936900  1
  N  433  1  0.55744700  0.52034500  0.99021800  1
  N  443  1  0.46698800  0.62093300  0.96240800  1
  N  444  1  0.60184200  0.47896600  0.03404900  1
  N  447  1  0.99659000  0.43637000  0.63597800  1
  N  457  1  0.91754900  0.39812000  0.65686000  1
  N  467  1  0.10869700  0.48880700  0.62906500  1
  N  468  1  0.83181200  0.35378200  0.70074000  1
  O  199  1  0.63653400  0.29475400  0.89655600  1
  O  201  1  0.63988800  0.34595700  0.93684200  1
  O  223  1  0.61320400  0.31923400  0.56338500  1
  O  225  1  0.66095300  0.31590100  0.60358800  1
  O  247  1  0.66095500  0.34269300  0.22991200  1
  O  249  1  0.60998400  0.29503400  0.27006000  1
  O  271  1  0.30383600  0.67621200  0.39550000  1
  O  273  1  0.30052000  0.62524100  0.43564700  1
  O  295  1  0.32739200  0.65193600  0.06199100  1
  O  297  1  0.27962800  0.65526000  0.10220400  1
  O  319  1  0.27948500  0.62851600  0.72877900  1
  O  321  1  0.33067200  0.67635900  0.76906700  1
  O  343  1  0.46519600  0.98443400  0.89443900  1
  O  345  1  0.50271700  0.06572000  0.87154900  1
  O  367  1  0.47388200  0.49099800  0.56122700  1
  O  369  1  0.51767400  0.45324100  0.53830200  1
  O  391  1  0.97181600  0.48199100  0.22771000  1
  O  393  1  0.89025200  0.43815500  0.20481000  1
  O  415  1  0.47459100  0.98662200  0.39568900  1
  O  417  1  0.43751000  0.90547200  0.37266100  1
  O  439  1  0.46674500  0.48175700  0.06228200  1
  O  441  1  0.42258900  0.51830300  0.03938600  1
  O  463  1  0.96965000  0.48915600  0.72910200  1
  O  465  1  0.05043600  0.53322000  0.70614900  1
