# generated using pymatgen
data_CuH18C26(N2O3)2
_symmetry_space_group_name_H-M   'P 1'
_cell_length_a   7.85085000
_cell_length_b   20.33763000
_cell_length_c   22.82367000
_cell_angle_alpha   89.96903000
_cell_angle_beta   89.77310000
_cell_angle_gamma   85.09849000
_symmetry_Int_Tables_number   1
_chemical_formula_structural   CuH18C26(N2O3)2
_chemical_formula_sum   'Cu4 H72 C104 N16 O24'
_cell_volume   3630.84726332
_cell_formula_units_Z   4
loop_
 _symmetry_equiv_pos_site_id
 _symmetry_equiv_pos_as_xyz
  1  'x, y, z'
loop_
 _atom_site_type_symbol
 _atom_site_label
 _atom_site_symmetry_multiplicity
 _atom_site_fract_x
 _atom_site_fract_y
 _atom_site_fract_z
 _atom_site_occupancy
  Cu  Cu0  1  0.72358000  0.50565000  0.55334000  1
  Cu  Cu1  1  0.77622000  0.99531000  0.05342000  1
  Cu  Cu2  1  0.27643000  0.49434000  0.44666000  1
  Cu  Cu3  1  0.22378000  0.00468000  0.94657000  1
  H  H4  1  0.54544000  0.39579000  0.35322000  1
  H  H5  1  0.62979000  0.30683000  0.28261000  1
  H  H6  1  0.09184000  0.25707000  0.38024000  1
  H  H7  1  0.00350000  0.34765000  0.45159000  1
  H  H8  1  0.99307000  0.01464000  0.15557000  1
  H  H9  1  0.02352000  0.10002000  0.23322000  1
  H  H10  1  0.67658000  0.23139000  0.13202000  1
  H  H11  1  0.66040000  0.14020000  0.05978000  1
  H  H12  1  0.66371000  0.65957000  0.68516000  1
  H  H13  1  0.66832000  0.72816000  0.77386000  1
  H  H14  1  0.09369000  0.60144000  0.83950000  1
  H  H15  1  0.08649000  0.53263000  0.74749000  1
  H  H16  1  0.63028000  0.88613000  0.86231000  1
  H  H17  1  0.60501000  0.97028000  0.93797000  1
  H  H18  1  0.91082000  0.85503000  0.05283000  1
  H  H19  1  0.94894000  0.76241000  0.98031000  1
  H  H20  1  0.76795000  0.26347000  0.22260000  1
  H  H21  1  0.75037000  0.78485000  0.83161000  1
  H  H22  1  0.95593000  0.10437000  0.85305000  1
  H  H23  1  0.87200000  0.19340000  0.78238000  1
  H  H24  1  0.40672000  0.24169000  0.87997000  1
  H  H25  1  0.49563000  0.15132000  0.95138000  1
  H  H26  1  0.50784000  0.48609000  0.65664000  1
  H  H27  1  0.47676000  0.40016000  0.73386000  1
  H  H28  1  0.82345000  0.26943000  0.63104000  1
  H  H29  1  0.84000000  0.36116000  0.55940000  1
  H  H30  1  0.83579000  0.84172000  0.18514000  1
  H  H31  1  0.83018000  0.77262000  0.27341000  1
  H  H32  1  0.40311000  0.89857000  0.33998000  1
  H  H33  1  0.41161000  0.96792000  0.24834000  1
  H  H34  1  0.87103000  0.61435000  0.36165000  1
  H  H35  1  0.89617000  0.53026000  0.43751000  1
  H  H36  1  0.58798000  0.64539000  0.55252000  1
  H  H37  1  0.54890000  0.73760000  0.47971000  1
  H  H38  1  0.73236000  0.23650000  0.72166000  1
  H  H39  1  0.75045000  0.71564000  0.33088000  1
  H  H40  1  0.45457000  0.60421000  0.64677000  1
  H  H41  1  0.37022000  0.69317000  0.71739000  1
  H  H42  1  0.90818000  0.74292000  0.61975000  1
  H  H43  1  0.99651000  0.65235000  0.54841000  1
  H  H44  1  0.00693000  0.98536000  0.84442000  1
  H  H45  1  0.97648000  0.89998000  0.76678000  1
  H  H46  1  0.32343000  0.76861000  0.86798000  1
  H  H47  1  0.33960000  0.85980000  0.94021000  1
  H  H48  1  0.33630000  0.34043000  0.31483000  1
  H  H49  1  0.33168000  0.27184000  0.22613000  1
  H  H50  1  0.90631000  0.39856000  0.16050000  1
  H  H51  1  0.91351000  0.46737000  0.25250000  1
  H  H52  1  0.36972000  0.11386000  0.13768000  1
  H  H53  1  0.39500000  0.02972000  0.06202000  1
  H  H54  1  0.08919000  0.14497000  0.94717000  1
  H  H55  1  0.05107000  0.23759000  0.01969000  1
  H  H56  1  0.23206000  0.73653000  0.77740000  1
  H  H57  1  0.24963000  0.21514000  0.16838000  1
  H  H58  1  0.04407000  0.89562000  0.14695000  1
  H  H59  1  0.12801000  0.80660000  0.21761000  1
  H  H60  1  0.59329000  0.75831000  0.12002000  1
  H  H61  1  0.50438000  0.84868000  0.04861000  1
  H  H62  1  0.49217000  0.51391000  0.34335000  1
  H  H63  1  0.52325000  0.59984000  0.26613000  1
  H  H64  1  0.17656000  0.73056000  0.36896000  1
  H  H65  1  0.16001000  0.63883000  0.44059000  1
  H  H66  1  0.16421000  0.15828000  0.81486000  1
  H  H67  1  0.16983000  0.22738000  0.72658000  1
  H  H68  1  0.59690000  0.10144000  0.66002000  1
  H  H69  1  0.58839000  0.03208000  0.75166000  1
  H  H70  1  0.12898000  0.38565000  0.63835000  1
  H  H71  1  0.10384000  0.46974000  0.56248000  1
  H  H72  1  0.41203000  0.35461000  0.44747000  1
  H  H73  1  0.45111000  0.26240000  0.52029000  1
  H  H74  1  0.26764000  0.76350000  0.27834000  1
  H  H75  1  0.24955000  0.28436000  0.66912000  1
  C  C76  1  0.71072000  0.43225000  0.44775000  1
  C  C77  1  0.76977000  0.37746000  0.40616000  1
  C  C78  1  0.66621000  0.36571000  0.35804000  1
  C  C79  1  0.71605000  0.31569000  0.31843000  1
  C  C80  1  0.87120000  0.27668000  0.32583000  1
  C  C81  1  0.97314000  0.28803000  0.37465000  1
  C  C82  1  0.92320000  0.33793000  0.41443000  1
  C  C83  1  0.93274000  0.22242000  0.28506000  1
  C  C84  1  0.92367000  0.06312000  0.15293000  1
  C  C85  1  0.94091000  0.11047000  0.19582000  1
  C  C86  1  0.84714000  0.17221000  0.19018000  1
  C  C87  1  0.74704000  0.18369000  0.13961000  1
  C  C88  1  0.73756000  0.13350000  0.09907000  1
  C  C89  1  0.86940000  0.54963000  0.65688000  1
  C  C90  1  0.87358000  0.59167000  0.71129000  1
  C  C91  1  0.75676000  0.64702000  0.71932000  1
  C  C92  1  0.76190000  0.68570000  0.76950000  1
  C  C93  1  0.88461000  0.66958000  0.81306000  1
  C  C94  1  0.00093000  0.61374000  0.80506000  1
  C  C95  1  0.99614000  0.57551000  0.75461000  1
  C  C96  1  0.90118000  0.70814000  0.86821000  1
  C  C97  1  0.79446000  0.81629000  0.91448000  1
  C  C98  1  0.69572000  0.87590000  0.90368000  1
  C  C99  1  0.68132000  0.92429000  0.94644000  1
  C  C100  1  0.85184000  0.85929000  0.00984000  1
  C  C101  1  0.87265000  0.80778000  0.96971000  1
  C  C102  1  0.78961000  0.06781000  0.94771000  1
  C  C103  1  0.73033000  0.12212000  0.90588000  1
  C  C104  1  0.83470000  0.13419000  0.85780000  1
  C  C105  1  0.78511000  0.18417000  0.81819000  1
  C  C106  1  0.62918000  0.22276000  0.82556000  1
  C  C107  1  0.52610000  0.21104000  0.87435000  1
  C  C108  1  0.57615000  0.16125000  0.91414000  1
  C  C109  1  0.56709000  0.27680000  0.78477000  1
  C  C110  1  0.57691000  0.43757000  0.65356000  1
  C  C111  1  0.55944000  0.38986000  0.69624000  1
  C  C112  1  0.65295000  0.32810000  0.69003000  1
  C  C113  1  0.75309000  0.31705000  0.63916000  1
  C  C114  1  0.76278000  0.36756000  0.59889000  1
  C  C115  1  0.62960000  0.95167000  0.15729000  1
  C  C116  1  0.62537000  0.90944000  0.21168000  1
  C  C117  1  0.74234000  0.85413000  0.21943000  1
  C  C118  1  0.73657000  0.81511000  0.26946000  1
  C  C119  1  0.61283000  0.83062000  0.31318000  1
  C  C120  1  0.49674000  0.88655000  0.30552000  1
  C  C121  1  0.50228000  0.92515000  0.25522000  1
  C  C122  1  0.59433000  0.79092000  0.36774000  1
  C  C123  1  0.70505000  0.68377000  0.41386000  1
  C  C124  1  0.80490000  0.62441000  0.40308000  1
  C  C125  1  0.81928000  0.57615000  0.44594000  1
  C  C126  1  0.64729000  0.64107000  0.50944000  1
  C  C127  1  0.62612000  0.69238000  0.46917000  1
  C  C128  1  0.28928000  0.56775000  0.55224000  1
  C  C129  1  0.23024000  0.62254000  0.59384000  1
  C  C130  1  0.33381000  0.63429000  0.64195000  1
  C  C131  1  0.28396000  0.68430000  0.68157000  1
  C  C132  1  0.12881000  0.72331000  0.67417000  1
  C  C133  1  0.02687000  0.71196000  0.62534000  1
  C  C134  1  0.07681000  0.66207000  0.58556000  1
  C  C135  1  0.06727000  0.77757000  0.71494000  1
  C  C136  1  0.07633000  0.93687000  0.84706000  1
  C  C137  1  0.05910000  0.88953000  0.80417000  1
  C  C138  1  0.15286000  0.82779000  0.80982000  1
  C  C139  1  0.25297000  0.81631000  0.86038000  1
  C  C140  1  0.26244000  0.86650000  0.90093000  1
  C  C141  1  0.13060000  0.45037000  0.34311000  1
  C  C142  1  0.12643000  0.40833000  0.28871000  1
  C  C143  1  0.24325000  0.35298000  0.28067000  1
  C  C144  1  0.23810000  0.31430000  0.23049000  1
  C  C145  1  0.11540000  0.33042000  0.18694000  1
  C  C146  1  0.99908000  0.38626000  0.19493000  1
  C  C147  1  0.00387000  0.42449000  0.24539000  1
  C  C148  1  0.09883000  0.29186000  0.13179000  1
  C  C149  1  0.20554000  0.18371000  0.08551000  1
  C  C150  1  0.30428000  0.12410000  0.09631000  1
  C  C151  1  0.31868000  0.07571000  0.05356000  1
  C  C152  1  0.14817000  0.14071000  0.99016000  1
  C  C153  1  0.12735000  0.19222000  0.03029000  1
  C  C154  1  0.21039000  0.93219000  0.05229000  1
  C  C155  1  0.26968000  0.87788000  0.09412000  1
  C  C156  1  0.16530000  0.86581000  0.14220000  1
  C  C157  1  0.21490000  0.81583000  0.18181000  1
  C  C158  1  0.37083000  0.77724000  0.17443000  1
  C  C159  1  0.47390000  0.78896000  0.12564000  1
  C  C160  1  0.42386000  0.83875000  0.08586000  1
  C  C161  1  0.43292000  0.72320000  0.21523000  1
  C  C162  1  0.42310000  0.56243000  0.34643000  1
  C  C163  1  0.44057000  0.61014000  0.30376000  1
  C  C164  1  0.34706000  0.67190000  0.30996000  1
  C  C165  1  0.24691000  0.68295000  0.36084000  1
  C  C166  1  0.23723000  0.63243000  0.40111000  1
  C  C167  1  0.37040000  0.04833000  0.84270000  1
  C  C168  1  0.37463000  0.09056000  0.78832000  1
  C  C169  1  0.25766000  0.14587000  0.78057000  1
  C  C170  1  0.26343000  0.18489000  0.73054000  1
  C  C171  1  0.38717000  0.16938000  0.68682000  1
  C  C172  1  0.50326000  0.11345000  0.69447000  1
  C  C173  1  0.49773000  0.07485000  0.74477000  1
  C  C174  1  0.40568000  0.20908000  0.63225000  1
  C  C175  1  0.29496000  0.31623000  0.58614000  1
  C  C176  1  0.19511000  0.37559000  0.59692000  1
  C  C177  1  0.18073000  0.42385000  0.55405000  1
  C  C178  1  0.35272000  0.35893000  0.49056000  1
  C  C179  1  0.37388000  0.30761000  0.53083000  1
  N  N180  1  0.82179000  0.07330000  0.10577000  1
  N  N181  1  0.84447000  0.22203000  0.23202000  1
  N  N182  1  0.76000000  0.91713000  0.99877000  1
  N  N183  1  0.80739000  0.76943000  0.86969000  1
  N  N184  1  0.67876000  0.42773000  0.60608000  1
  N  N185  1  0.65591000  0.27785000  0.73159000  1
  N  N186  1  0.73987000  0.58335000  0.49833000  1
  N  N187  1  0.69217000  0.73056000  0.36904000  1
  N  N188  1  0.17822000  0.92669000  0.89423000  1
  N  N189  1  0.15554000  0.77797000  0.76798000  1
  N  N190  1  0.24001000  0.08287000  0.00123000  1
  N  N191  1  0.19261000  0.23057000  0.13031000  1
  N  N192  1  0.32125000  0.57227000  0.39391000  1
  N  N193  1  0.34410000  0.72215000  0.26840000  1
  N  N194  1  0.26014000  0.41665000  0.50166000  1
  N  N195  1  0.30784000  0.26944000  0.63096000  1
  O  O196  1  0.80859000  0.43998000  0.49229000  1
  O  O197  1  0.57469000  0.46674000  0.43719000  1
  O  O198  1  0.74112000  0.56589000  0.62242000  1
  O  O199  1  0.98290000  0.50368000  0.64870000  1
  O  O200  1  0.99277000  0.68708000  0.90903000  1
  O  O201  1  0.05101000  0.18073000  0.29695000  1
  O  O202  1  0.69137000  0.06039000  0.99248000  1
  O  O203  1  0.92598000  0.03337000  0.93716000  1
  O  O204  1  0.75924000  0.93634000  0.12288000  1
  O  O205  1  0.51491000  0.99696000  0.14891000  1
  O  O206  1  0.49840000  0.80998000  0.40838000  1
  O  O207  1  0.44696000  0.31766000  0.79679000  1
  O  O208  1  0.19143000  0.56002000  0.50770000  1
  O  O209  1  0.42531000  0.53326000  0.56281000  1
  O  O210  1  0.25889000  0.43410000  0.37757000  1
  O  O211  1  0.01710000  0.49632000  0.35130000  1
  O  O212  1  0.00724000  0.31292000  0.09096000  1
  O  O213  1  0.94898000  0.81926000  0.70305000  1
  O  O214  1  0.30863000  0.93960000  0.00751000  1
  O  O215  1  0.07403000  0.96663000  0.06283000  1
  O  O216  1  0.24076000  0.06366000  0.87711000  1
  O  O217  1  0.48509000  0.00304000  0.85109000  1
  O  O218  1  0.50161000  0.19002000  0.59162000  1
  O  O219  1  0.55306000  0.68234000  0.20320000  1
