# generated using pymatgen
data_ZnH4(C2O)4
_symmetry_space_group_name_H-M   'P 1'
_cell_length_a   7.98900000
_cell_length_b   8.95320000
_cell_length_c   8.95320000
_cell_angle_alpha   103.08200000
_cell_angle_beta   100.06300000
_cell_angle_gamma   100.06300000
_symmetry_Int_Tables_number   1
_chemical_formula_structural   ZnH4(C2O)4
_chemical_formula_sum   'Zn2 H8 C16 O8'
_cell_volume   598.65432560
_cell_formula_units_Z   2
loop_
 _symmetry_equiv_pos_site_id
 _symmetry_equiv_pos_as_xyz
  1  'x, y, z'
loop_
 _atom_site_type_symbol
 _atom_site_label
 _atom_site_symmetry_multiplicity
 _atom_site_fract_x
 _atom_site_fract_y
 _atom_site_fract_z
 _atom_site_occupancy
  Zn  Zn1  1  0.57861000  0.39521000  0.39521000  1.0
  Zn  Zn2  1  0.42139000  0.60479000  0.60479000  1.0
  H  H1  1  0.73080000  0.04560000  0.52820000  1.0
  H  H2  1  0.04810000  0.74730000  0.46390000  1.0
  H  H3  1  0.26920000  0.47180000  0.95440000  1.0
  H  H4  1  0.95190000  0.53610000  0.25270000  1.0
  H  H5  1  0.26920000  0.95440000  0.47180000  1.0
  H  H6  1  0.95190000  0.25270000  0.53610000  1.0
  H  H7  1  0.73080000  0.52820000  0.04560000  1.0
  H  H8  1  0.04810000  0.46390000  0.74730000  1.0
  C  C1  1  0.86700000  0.87550000  0.49630000  1.0
  C  C2  1  0.84180000  0.02650000  0.51670000  1.0
  C  C3  1  0.02740000  0.85050000  0.47890000  1.0
  C  C4  1  0.72390000  0.73960000  0.49240000  1.0
  C  C5  1  0.13300000  0.50370000  0.12450000  1.0
  C  C6  1  0.15820000  0.48330000  0.97350000  1.0
  C  C7  1  0.97260000  0.52110000  0.14950000  1.0
  C  C8  1  0.27610000  0.50760000  0.26040000  1.0
  C  C9  1  0.13300000  0.12450000  0.50370000  1.0
  C  C10  1  0.15820000  0.97350000  0.48330000  1.0
  C  C11  1  0.97260000  0.14950000  0.52110000  1.0
  C  C12  1  0.27610000  0.26040000  0.50760000  1.0
  C  C13  1  0.86700000  0.49630000  0.87550000  1.0
  C  C14  1  0.84180000  0.51670000  0.02650000  1.0
  C  C15  1  0.02740000  0.47890000  0.85050000  1.0
  C  C16  1  0.72390000  0.49240000  0.73960000  1.0
  O  O1  1  0.72900000  0.60640000  0.41220000  1.0
  O  O2  1  0.39060000  0.43380000  0.23140000  1.0
  O  O3  1  0.27100000  0.58780000  0.39360000  1.0
  O  O4  1  0.60940000  0.76860000  0.56620000  1.0
  O  O5  1  0.27100000  0.39360000  0.58780000  1.0
  O  O6  1  0.60940000  0.56620000  0.76860000  1.0
  O  O7  1  0.72900000  0.41220000  0.60640000  1.0
  O  O8  1  0.39060000  0.23140000  0.43380000  1.0
