# generated using pymatgen
data_Zn3H36C58(NO)16
_symmetry_space_group_name_H-M   'P 1'
_cell_length_a   12.13414000
_cell_length_b   25.91749000
_cell_length_c   35.69948000
_cell_angle_alpha   90.09365000
_cell_angle_beta   90.25022000
_cell_angle_gamma   89.91375000
_symmetry_Int_Tables_number   1
_chemical_formula_structural   Zn3H36C58(NO)16
_chemical_formula_sum   'Zn12 H144 C232 N64 O64'
_cell_volume   11226.86814896
_cell_formula_units_Z   4
loop_
 _symmetry_equiv_pos_site_id
 _symmetry_equiv_pos_as_xyz
  1  'x, y, z'
loop_
 _atom_site_type_symbol
 _atom_site_label
 _atom_site_symmetry_multiplicity
 _atom_site_fract_x
 _atom_site_fract_y
 _atom_site_fract_z
 _atom_site_occupancy
  Zn  Zn0  1  0.21810000  0.79051000  0.66610000  1
  Zn  Zn1  1  0.22604000  0.82671000  0.80605000  1
  Zn  Zn2  1  0.95213000  0.72585000  0.50643000  1
  Zn  Zn3  1  0.78241000  0.29063000  0.83395000  1
  Zn  Zn4  1  0.77373000  0.32660000  0.69404000  1
  Zn  Zn5  1  0.04770000  0.22393000  0.99355000  1
  Zn  Zn6  1  0.78189000  0.20950000  0.33390000  1
  Zn  Zn7  1  0.77396000  0.17329000  0.19395000  1
  Zn  Zn8  1  0.04788000  0.27416000  0.49357000  1
  Zn  Zn9  1  0.21758000  0.70937000  0.16606000  1
  Zn  Zn10  1  0.22628000  0.67339000  0.30596000  1
  Zn  Zn11  1  0.95237000  0.77709000  0.00450000  1
  H  H12  1  0.45380000  0.72486000  0.55043000  1
  H  H13  1  0.15671000  0.74705000  0.48539000  1
  H  H14  1  0.44779000  0.67900000  0.43478000  1
  H  H15  1  0.32639000  0.72488000  0.59881000  1
  H  H16  1  0.08285000  0.84048000  0.59793000  1
  H  H17  1  0.13288000  0.81486000  0.52364000  1
  H  H18  1  0.36383000  0.67691000  0.38359000  1
  H  H19  1  0.03887000  0.72323000  0.35967000  1
  H  H20  1  0.07734000  0.74121000  0.43510000  1
  H  H21  1  0.64866000  0.74724000  0.52171000  1
  H  H22  1  0.78824000  0.61182000  0.47744000  1
  H  H23  1  0.56072000  0.60753000  0.46772000  1
  H  H24  1  0.69432000  0.82396000  0.75366000  1
  H  H25  1  0.65403000  0.76064000  0.64274000  1
  H  H26  1  0.97528000  0.76378000  0.69355000  1
  H  H27  1  0.47807000  0.74635000  0.66459000  1
  H  H28  1  0.32443000  0.86834000  0.72253000  1
  H  H29  1  0.54896000  0.87264000  0.73679000  1
  H  H30  1  0.77459000  0.77044000  0.58863000  1
  H  H31  1  0.03871000  0.66510000  0.58545000  1
  H  H32  1  0.98851000  0.68610000  0.65972000  1
  H  H33  1  0.06520000  0.77101000  0.74425000  1
  H  H34  1  0.00228000  0.88611000  0.82492000  1
  H  H35  1  0.81095000  0.87053000  0.78399000  1
  H  H36  1  0.28342000  0.59477000  0.67360000  1
  H  H37  1  0.98708000  0.59528000  0.76892000  1
  H  H38  1  0.03750000  0.67599000  0.73686000  1
  H  H39  1  0.90906000  0.50695000  0.73782000  1
  H  H40  1  0.83552000  0.43096000  0.77168000  1
  H  H41  1  0.14994000  0.40818000  0.82428000  1
  H  H42  1  0.30735000  0.67915000  0.75572000  1
  H  H43  1  0.40571000  0.60107000  0.73238000  1
  H  H44  1  0.61302000  0.74040000  0.79618000  1
  H  H45  1  0.51472000  0.53150000  0.77278000  1
  H  H46  1  0.58498000  0.44736000  0.74926000  1
  H  H47  1  0.79188000  0.52590000  0.67086000  1
  H  H48  1  0.54628000  0.22490000  0.94949000  1
  H  H49  1  0.84327000  0.24688000  0.01463000  1
  H  H50  1  0.55244000  0.17907000  0.06505000  1
  H  H51  1  0.67340000  0.22520000  0.90109000  1
  H  H52  1  0.91697000  0.34042000  0.90233000  1
  H  H53  1  0.86719000  0.31462000  0.97657000  1
  H  H54  1  0.63638000  0.17664000  0.11615000  1
  H  H55  1  0.96107000  0.22295000  0.14034000  1
  H  H56  1  0.92239000  0.24112000  0.06498000  1
  H  H57  1  0.35107000  0.24717000  0.97821000  1
  H  H58  1  0.21247000  0.11201000  0.02259000  1
  H  H59  1  0.44008000  0.10763000  0.03213000  1
  H  H60  1  0.30548000  0.32384000  0.74642000  1
  H  H61  1  0.34618000  0.26075000  0.85728000  1
  H  H62  1  0.02480000  0.26400000  0.80649000  1
  H  H63  1  0.52257000  0.24658000  0.83543000  1
  H  H64  1  0.67507000  0.36842000  0.77752000  1
  H  H65  1  0.45055000  0.37259000  0.76330000  1
  H  H66  1  0.22568000  0.27043000  0.91145000  1
  H  H67  1  0.96194000  0.16525000  0.91433000  1
  H  H68  1  0.01193000  0.18635000  0.84013000  1
  H  H69  1  0.93477000  0.27113000  0.75580000  1
  H  H70  1  0.99746000  0.38582000  0.67511000  1
  H  H71  1  0.18876000  0.37019000  0.71609000  1
  H  H72  1  0.71620000  0.09553000  0.82662000  1
  H  H73  1  0.01218000  0.09495000  0.73107000  1
  H  H74  1  0.96188000  0.17597000  0.76312000  1
  H  H75  1  0.09074000  0.00689000  0.76241000  1
  H  H76  1  0.16470000  0.93093000  0.72826000  1
  H  H77  1  0.84979000  0.90772000  0.67612000  1
  H  H78  1  0.69254000  0.17932000  0.74413000  1
  H  H79  1  0.59474000  0.10133000  0.76748000  1
  H  H80  1  0.38654000  0.24035000  0.70371000  1
  H  H81  1  0.48636000  0.03132000  0.72724000  1
  H  H82  1  0.41560000  0.94740000  0.75051000  1
  H  H83  1  0.20866000  0.02655000  0.82892000  1
  H  H84  1  0.54619000  0.27514000  0.44957000  1
  H  H85  1  0.84329000  0.25295000  0.51461000  1
  H  H86  1  0.55220000  0.32100000  0.56523000  1
  H  H87  1  0.67360000  0.27512000  0.40119000  1
  H  H88  1  0.91714000  0.15952000  0.40207000  1
  H  H89  1  0.86711000  0.18515000  0.47636000  1
  H  H90  1  0.63617000  0.32309000  0.61641000  1
  H  H91  1  0.96113000  0.27676000  0.64032000  1
  H  H92  1  0.92266000  0.25879000  0.56490000  1
  H  H93  1  0.35132000  0.25276000  0.47830000  1
  H  H94  1  0.21176000  0.38818000  0.52257000  1
  H  H95  1  0.43928000  0.39248000  0.53228000  1
  H  H96  1  0.30567000  0.17603000  0.24634000  1
  H  H97  1  0.34595000  0.23936000  0.35727000  1
  H  H98  1  0.02470000  0.23622000  0.30645000  1
  H  H99  1  0.52191000  0.25365000  0.33541000  1
  H  H100  1  0.67555000  0.13167000  0.27747000  1
  H  H101  1  0.45103000  0.12736000  0.26321000  1
  H  H102  1  0.22542000  0.22957000  0.41137000  1
  H  H103  1  0.96126000  0.33489000  0.41456000  1
  H  H104  1  0.01144000  0.31388000  0.34029000  1
  H  H105  1  0.93479000  0.22898000  0.25575000  1
  H  H106  1  0.99773000  0.11389000  0.17508000  1
  H  H107  1  0.18905000  0.12947000  0.21601000  1
  H  H108  1  0.71658000  0.40523000  0.32640000  1
  H  H109  1  0.01291000  0.40471000  0.23108000  1
  H  H110  1  0.96249000  0.32401000  0.26313000  1
  H  H111  1  0.09093000  0.49305000  0.26216000  1
  H  H112  1  0.16445000  0.56905000  0.22832000  1
  H  H113  1  0.85002000  0.59183000  0.17572000  1
  H  H114  1  0.69247000  0.32083000  0.24438000  1
  H  H115  1  0.59397000  0.39888000  0.26771000  1
  H  H116  1  0.38702000  0.25959000  0.20371000  1
  H  H117  1  0.48518000  0.46854000  0.22716000  1
  H  H118  1  0.41501000  0.55267000  0.25076000  1
  H  H119  1  0.20799000  0.47401000  0.32908000  1
  H  H120  1  0.45371000  0.77510000  0.05051000  1
  H  H121  1  0.15679000  0.75312000  0.98534000  1
  H  H122  1  0.44755000  0.82093000  0.93495000  1
  H  H123  1  0.32659000  0.77479000  0.09890000  1
  H  H124  1  0.08301000  0.65959000  0.09767000  1
  H  H125  1  0.13277000  0.68538000  0.02343000  1
  H  H126  1  0.36364000  0.82337000  0.88385000  1
  H  H127  1  0.03895000  0.77705000  0.85966000  1
  H  H128  1  0.07762000  0.75888000  0.93500000  1
  H  H129  1  0.64897000  0.75284000  0.02178000  1
  H  H130  1  0.78750000  0.88801000  0.97739000  1
  H  H131  1  0.55986000  0.89239000  0.96788000  1
  H  H132  1  0.69452000  0.67616000  0.25358000  1
  H  H133  1  0.65383000  0.73925000  0.14272000  1
  H  H134  1  0.97520000  0.73601000  0.19351000  1
  H  H135  1  0.47744000  0.75342000  0.16458000  1
  H  H136  1  0.32493000  0.63158000  0.22248000  1
  H  H137  1  0.54945000  0.62741000  0.23670000  1
  H  H138  1  0.77434000  0.72957000  0.08854000  1
  H  H139  1  0.03809000  0.83472000  0.08566000  1
  H  H140  1  0.98808000  0.81364000  0.15983000  1
  H  H141  1  0.06523000  0.72887000  0.24420000  1
  H  H142  1  0.00253000  0.61418000  0.32489000  1
  H  H143  1  0.81124000  0.62982000  0.28391000  1
  H  H144  1  0.28378000  0.90448000  0.17339000  1
  H  H145  1  0.98781000  0.90505000  0.26894000  1
  H  H146  1  0.03812000  0.82403000  0.23689000  1
  H  H147  1  0.90924000  0.99311000  0.23760000  1
  H  H148  1  0.83527000  0.06907000  0.27175000  1
  H  H149  1  0.15020000  0.09228000  0.32388000  1
  H  H150  1  0.30744000  0.82070000  0.25587000  1
  H  H151  1  0.40527000  0.89867000  0.23251000  1
  H  H152  1  0.61345000  0.75966000  0.29629000  1
  H  H153  1  0.51367000  0.96867000  0.27278000  1
  H  H154  1  0.58445000  0.05259000  0.24950000  1
  H  H155  1  0.79130000  0.97343000  0.17107000  1
  C  C156  1  0.69379000  0.48104000  0.70885000  1
  C  C157  1  0.40916000  0.72149000  0.52410000  1
  C  C158  1  0.30125000  0.73989000  0.52033000  1
  C  C159  1  0.24357000  0.73576000  0.48646000  1
  C  C160  1  0.29609000  0.71344000  0.45554000  1
  C  C161  1  0.40424000  0.69500000  0.45863000  1
  C  C162  1  0.45941000  0.69886000  0.49297000  1
  C  C163  1  0.27110000  0.75444000  0.58850000  1
  C  C164  1  0.14284000  0.81400000  0.58624000  1
  C  C165  1  0.16602000  0.80109000  0.54992000  1
  C  C166  1  0.28103000  0.69129000  0.38764000  1
  C  C167  1  0.11228000  0.71632000  0.37631000  1
  C  C168  1  0.13123000  0.72630000  0.41343000  1
  C  C169  1  0.65875000  0.70950000  0.50914000  1
  C  C170  1  0.72557000  0.63962000  0.48517000  1
  C  C171  1  0.61353000  0.63670000  0.47985000  1
  C  C172  1  0.73021000  0.80709000  0.72870000  1
  C  C173  1  0.66341000  0.79459000  0.69807000  1
  C  C174  1  0.70668000  0.77068000  0.66628000  1
  C  C175  1  0.81874000  0.75847000  0.66576000  1
  C  C176  1  0.88755000  0.77128000  0.69575000  1
  C  C177  1  0.84286000  0.79631000  0.72681000  1
  C  C178  1  0.46654000  0.78132000  0.68066000  1
  C  C179  1  0.39065000  0.84460000  0.71196000  1
  C  C180  1  0.50090000  0.84641000  0.71980000  1
  C  C181  1  0.83868000  0.74364000  0.59686000  1
  C  C182  1  0.97642000  0.69044000  0.59702000  1
  C  C183  1  0.95423000  0.70064000  0.63390000  1
  C  C184  1  0.02178000  0.79923000  0.76112000  1
  C  C185  1  0.98440000  0.85893000  0.80267000  1
  C  C186  1  0.88970000  0.85122000  0.78258000  1
  C  C187  1  0.20367000  0.68966000  0.68452000  1
  C  C188  1  0.16529000  0.64110000  0.70331000  1
  C  C189  1  0.21874000  0.59486000  0.69453000  1
  C  C190  1  0.18924000  0.54958000  0.71268000  1
  C  C191  1  0.10675000  0.54816000  0.74031000  1
  C  C192  1  0.05205000  0.59475000  0.74800000  1
  C  C193  1  0.08060000  0.64046000  0.72986000  1
  C  C194  1  0.07205000  0.50149000  0.76127000  1
  C  C195  1  0.96208000  0.48569000  0.75700000  1
  C  C196  1  0.92037000  0.44307000  0.77600000  1
  C  C197  1  0.98725000  0.41547000  0.80095000  1
  C  C198  1  0.09737000  0.42979000  0.80523000  1
  C  C199  1  0.13892000  0.47176000  0.78552000  1
  C  C200  1  0.94424000  0.37100000  0.82364000  1
  C  C201  1  0.39498000  0.76142000  0.79279000  1
  C  C202  1  0.45393000  0.71510000  0.77711000  1
  C  C203  1  0.39602000  0.67542000  0.75915000  1
  C  C204  1  0.45117000  0.63175000  0.74632000  1
  C  C205  1  0.56564000  0.62603000  0.75025000  1
  C  C206  1  0.62245000  0.66666667  0.76837000  1
  C  C207  1  0.56765000  0.71037000  0.78158000  1
  C  C208  1  0.61337000  0.57729000  0.73548000  1
  C  C209  1  0.57572000  0.53051000  0.75051000  1
  C  C210  1  0.61502000  0.48324000  0.73737000  1
  C  C211  1  0.73156000  0.52708000  0.69325000  1
  C  C212  1  0.69078000  0.57393000  0.70632000  1
  C  C213  1  0.74000000  0.43065000  0.69483000  1
  C  C214  1  0.30617000  0.98141000  0.79087000  1
  C  C215  1  0.59093000  0.22151000  0.97581000  1
  C  C216  1  0.69875000  0.23988000  0.97965000  1
  C  C217  1  0.75643000  0.23571000  0.01353000  1
  C  C218  1  0.70398000  0.21340000  0.04439000  1
  C  C219  1  0.59592000  0.19503000  0.04124000  1
  C  C220  1  0.54078000  0.19889000  0.00689000  1
  C  C221  1  0.72875000  0.25462000  0.91152000  1
  C  C222  1  0.85705000  0.31398000  0.91399000  1
  C  C223  1  0.83397000  0.30097000  0.95026000  1
  C  C224  1  0.71911000  0.19102000  0.11222000  1
  C  C225  1  0.88768000  0.21605000  0.12368000  1
  C  C226  1  0.86864000  0.22617000  0.08661000  1
  C  C227  1  0.34134000  0.20948000  0.99078000  1
  C  C228  1  0.27501000  0.13972000  0.01481000  1
  C  C229  1  0.38710000  0.13678000  0.02003000  1
  C  C230  1  0.26970000  0.30707000  0.77139000  1
  C  C231  1  0.33662000  0.29467000  0.80201000  1
  C  C232  1  0.29346000  0.27082000  0.83377000  1
  C  C233  1  0.18141000  0.25869000  0.83429000  1
  C  C234  1  0.11248000  0.27152000  0.80433000  1
  C  C235  1  0.15706000  0.29638000  0.77326000  1
  C  C236  1  0.53378000  0.28149000  0.81937000  1
  C  C237  1  0.60910000  0.34469000  0.78811000  1
  C  C238  1  0.49880000  0.34647000  0.78030000  1
  C  C239  1  0.16168000  0.24369000  0.90315000  1
  C  C240  1  0.02414000  0.19056000  0.90282000  1
  C  C241  1  0.04623000  0.20083000  0.86598000  1
  C  C242  1  0.97803000  0.29929000  0.73896000  1
  C  C243  1  0.01531000  0.35874000  0.69739000  1
  C  C244  1  0.11005000  0.35097000  0.71745000  1
  C  C245  1  0.79710000  0.19052000  0.81536000  1
  C  C246  1  0.83446000  0.14147000  0.79680000  1
  C  C247  1  0.78105000  0.09537000  0.80573000  1
  C  C248  1  0.81086000  0.04980000  0.78778000  1
  C  C249  1  0.89301000  0.04812000  0.76002000  1
  C  C250  1  0.94743000  0.09463000  0.75209000  1
  C  C251  1  0.91906000  0.14049000  0.77020000  1
  C  C252  1  0.92774000  0.00127000  0.73911000  1
  C  C253  1  0.03786000  0.98553000  0.74324000  1
  C  C254  1  0.07970000  0.94295000  0.72409000  1
  C  C255  1  0.01286000  0.91507000  0.69927000  1
  C  C256  1  0.90256000  0.92936000  0.69510000  1
  C  C257  1  0.86097000  0.97149000  0.71486000  1
  C  C258  1  0.05660000  0.87014000  0.67703000  1
  C  C259  1  0.60467000  0.26148000  0.70718000  1
  C  C260  1  0.54587000  0.21522000  0.72279000  1
  C  C261  1  0.60393000  0.17554000  0.74069000  1
  C  C262  1  0.54910000  0.13190000  0.75349000  1
  C  C263  1  0.43471000  0.12610000  0.74949000  1
  C  C264  1  0.37772000  0.16668000  0.73135000  1
  C  C265  1  0.43223000  0.21038000  0.71825000  1
  C  C266  1  0.38721000  0.07744000  0.76428000  1
  C  C267  1  0.42495000  0.03047000  0.74938000  1
  C  C268  1  0.38531000  0.98330000  0.76246000  1
  C  C269  1  0.26870000  0.02761000  0.80643000  1
  C  C270  1  0.30969000  0.07428000  0.79340000  1
  C  C271  1  0.25868000  0.93157000  0.80516000  1
  C  C272  1  0.30610000  0.51894000  0.29112000  1
  C  C273  1  0.59083000  0.27851000  0.47590000  1
  C  C274  1  0.69874000  0.26011000  0.47967000  1
  C  C275  1  0.75642000  0.26424000  0.51354000  1
  C  C276  1  0.70390000  0.28656000  0.54446000  1
  C  C277  1  0.59575000  0.30500000  0.54138000  1
  C  C278  1  0.54058000  0.30114000  0.50703000  1
  C  C279  1  0.72889000  0.24556000  0.41150000  1
  C  C280  1  0.85715000  0.18600000  0.41376000  1
  C  C281  1  0.83397000  0.19891000  0.45009000  1
  C  C282  1  0.71897000  0.30871000  0.61236000  1
  C  C283  1  0.88772000  0.28368000  0.62369000  1
  C  C284  1  0.86876000  0.27370000  0.58657000  1
  C  C285  1  0.34124000  0.29050000  0.49086000  1
  C  C286  1  0.27442000  0.36038000  0.51484000  1
  C  C287  1  0.38647000  0.36331000  0.52015000  1
  C  C288  1  0.26978000  0.19291000  0.27131000  1
  C  C289  1  0.33657000  0.20541000  0.30193000  1
  C  C290  1  0.29330000  0.22932000  0.33373000  1
  C  C291  1  0.18124000  0.24152000  0.33425000  1
  C  C292  1  0.11243000  0.22872000  0.30425000  1
  C  C293  1  0.15712000  0.20369000  0.27320000  1
  C  C294  1  0.53344000  0.21868000  0.31935000  1
  C  C295  1  0.60933000  0.15540000  0.28804000  1
  C  C296  1  0.49909000  0.15359000  0.28021000  1
  C  C297  1  0.16132000  0.25636000  0.40315000  1
  C  C298  1  0.02355000  0.30955000  0.40299000  1
  C  C299  1  0.04573000  0.29934000  0.36611000  1
  C  C300  1  0.97821000  0.20077000  0.23888000  1
  C  C301  1  0.01560000  0.14107000  0.19733000  1
  C  C302  1  0.11030000  0.14878000  0.21742000  1
  C  C303  1  0.79634000  0.31035000  0.31549000  1
  C  C304  1  0.83471000  0.35890000  0.29669000  1
  C  C305  1  0.78126000  0.40514000  0.30547000  1
  C  C306  1  0.81075000  0.45042000  0.28731000  1
  C  C307  1  0.89323000  0.45184000  0.25968000  1
  C  C308  1  0.94793000  0.40525000  0.25199000  1
  C  C309  1  0.91939000  0.35954000  0.27014000  1
  C  C310  1  0.92794000  0.49852000  0.23872000  1
  C  C311  1  0.03790000  0.51431000  0.24299000  1
  C  C312  1  0.07961000  0.55693000  0.22399000  1
  C  C313  1  0.01273000  0.58454000  0.19905000  1
  C  C314  1  0.90261000  0.57023000  0.19477000  1
  C  C315  1  0.86108000  0.52826000  0.21448000  1
  C  C316  1  0.05575000  0.62901000  0.17636000  1
  C  C317  1  0.60499000  0.23858000  0.20722000  1
  C  C318  1  0.54602000  0.28492000  0.22285000  1
  C  C319  1  0.60383000  0.32458000  0.24087000  1
  C  C320  1  0.54863000  0.36826000  0.25367000  1
  C  C321  1  0.43420000  0.37399000  0.24964000  1
  C  C322  1  0.37750000  0.33333333  0.23149000  1
  C  C323  1  0.43233000  0.28965000  0.21830000  1
  C  C324  1  0.38638000  0.42272000  0.26439000  1
  C  C325  1  0.42411000  0.46951000  0.24941000  1
  C  C326  1  0.38487000  0.51678000  0.26259000  1
  C  C327  1  0.26824000  0.47289000  0.30666000  1
  C  C328  1  0.30891000  0.42606000  0.29354000  1
  C  C329  1  0.25999000  0.56933000  0.30517000  1
  C  C330  1  0.69382000  0.01858000  0.20913000  1
  C  C331  1  0.40907000  0.77849000  0.02418000  1
  C  C332  1  0.30124000  0.76013000  0.02035000  1
  C  C333  1  0.24360000  0.76430000  0.98647000  1
  C  C334  1  0.29603000  0.78659000  0.95560000  1
  C  C335  1  0.40409000  0.80496000  0.95876000  1
  C  C336  1  0.45921000  0.80111000  0.99311000  1
  C  C337  1  0.27124000  0.74537000  0.08848000  1
  C  C338  1  0.14293000  0.68603000  0.08601000  1
  C  C339  1  0.16602000  0.69903000  0.04974000  1
  C  C340  1  0.28091000  0.80899000  0.88778000  1
  C  C341  1  0.11235000  0.78395000  0.87631000  1
  C  C342  1  0.13142000  0.77380000  0.91338000  1
  C  C343  1  0.65866000  0.79053000  0.00921000  1
  C  C344  1  0.72492000  0.86031000  0.98517000  1
  C  C345  1  0.61284000  0.86324000  0.97997000  1
  C  C346  1  0.73030000  0.69293000  0.22861000  1
  C  C347  1  0.66339000  0.70533000  0.19799000  1
  C  C348  1  0.70656000  0.72918000  0.16623000  1
  C  C349  1  0.81861000  0.74132000  0.16569000  1
  C  C350  1  0.88751000  0.72848000  0.19566000  1
  C  C351  1  0.84294000  0.70363000  0.22673000  1
  C  C352  1  0.46622000  0.71851000  0.18063000  1
  C  C353  1  0.39089000  0.65531000  0.21189000  1
  C  C354  1  0.50119000  0.65354000  0.21970000  1
  C  C355  1  0.83840000  0.75631000  0.09679000  1
  C  C356  1  0.97588000  0.80938000  0.09712000  1
  C  C357  1  0.95380000  0.79916000  0.13398000  1
  C  C358  1  0.02197000  0.70071000  0.26104000  1
  C  C359  1  0.98469000  0.64126000  0.30261000  1
  C  C360  1  0.88995000  0.64904000  0.28255000  1
  C  C361  1  0.20289000  0.80949000  0.18464000  1
  C  C362  1  0.16553000  0.85853000  0.20321000  1
  C  C363  1  0.21893000  0.90463000  0.19427000  1
  C  C364  1  0.18910000  0.95020000  0.21223000  1
  C  C365  1  0.10695000  0.95188000  0.23999000  1
  C  C366  1  0.05256000  0.90536000  0.24792000  1
  C  C367  1  0.08094000  0.85951000  0.22981000  1
  C  C368  1  0.07224000  0.99874000  0.26089000  1
  C  C369  1  0.96212000  0.01447000  0.25677000  1
  C  C370  1  0.92027000  0.05705000  0.27592000  1
  C  C371  1  0.98712000  0.08493000  0.30073000  1
  C  C372  1  0.09743000  0.07064000  0.30490000  1
  C  C373  1  0.13901000  0.02851000  0.28514000  1
  C  C374  1  0.94338000  0.12986000  0.32297000  1
  C  C375  1  0.39533000  0.73851000  0.29282000  1
  C  C376  1  0.45412000  0.78478000  0.27721000  1
  C  C377  1  0.39605000  0.82445000  0.25931000  1
  C  C378  1  0.45088000  0.86809000  0.24650000  1
  C  C379  1  0.56528000  0.87389000  0.25050000  1
  C  C380  1  0.62228000  0.83331000  0.26863000  1
  C  C381  1  0.56777000  0.78961000  0.28174000  1
  C  C382  1  0.61275000  0.92256000  0.23569000  1
  C  C383  1  0.57502000  0.96952000  0.25062000  1
  C  C384  1  0.61471000  0.01669000  0.23755000  1
  C  C385  1  0.73123000  0.97238000  0.19354000  1
  C  C386  1  0.69027000  0.92571000  0.20657000  1
  C  C387  1  0.74136000  0.06842000  0.19486000  1
  N  N388  1  0.20895000  0.78473000  0.60986000  1
  N  N389  1  0.24856000  0.76353000  0.55146000  1
  N  N390  1  0.20599000  0.69454000  0.36074000  1
  N  N391  1  0.23928000  0.71016000  0.42069000  1
  N  N392  1  0.75265000  0.68515000  0.50314000  1
  N  N393  1  0.57035000  0.68150000  0.49552000  1
  N  N394  1  0.37047000  0.80419000  0.68741000  1
  N  N395  1  0.54905000  0.80638000  0.69952000  1
  N  N396  1  0.90418000  0.71748000  0.57418000  1
  N  N397  1  0.86569000  0.73463000  0.63385000  1
  N  N398  1  0.06558000  0.82620000  0.78913000  1
  N  N399  1  0.91385000  0.81328000  0.75609000  1
  N  N400  1  0.25015000  0.50269000  0.70235000  1
  N  N401  1  0.25653000  0.48337000  0.79123000  1
  N  N402  1  0.74182000  0.66466000  0.77539000  1
  N  N403  1  0.73159000  0.62067000  0.68808000  1
  N  N404  1  0.79086000  0.28489000  0.89026000  1
  N  N405  1  0.75137000  0.26355000  0.94860000  1
  N  N406  1  0.79413000  0.19416000  0.13915000  1
  N  N407  1  0.76074000  0.21003000  0.07926000  1
  N  N408  1  0.24764000  0.18517000  0.99685000  1
  N  N409  1  0.42995000  0.18150000  0.00432000  1
  N  N410  1  0.62972000  0.30434000  0.81259000  1
  N  N411  1  0.45098000  0.30648000  0.80057000  1
  N  N412  1  0.09633000  0.21750000  0.92575000  1
  N  N413  1  0.13463000  0.23479000  0.86613000  1
  N  N414  1  0.93412000  0.32621000  0.71097000  1
  N  N415  1  0.08598000  0.31320000  0.74396000  1
  N  N416  1  0.75048000  0.00295000  0.79868000  1
  N  N417  1  0.74351000  0.98346000  0.70890000  1
  N  N418  1  0.25830000  0.16471000  0.72442000  1
  N  N419  1  0.26874000  0.12097000  0.81179000  1
  N  N420  1  0.79104000  0.21527000  0.39014000  1
  N  N421  1  0.75142000  0.23647000  0.44854000  1
  N  N422  1  0.79401000  0.30545000  0.63926000  1
  N  N423  1  0.76071000  0.28984000  0.57931000  1
  N  N424  1  0.24734000  0.31485000  0.49687000  1
  N  N425  1  0.42964000  0.31851000  0.50448000  1
  N  N426  1  0.62951000  0.19582000  0.31259000  1
  N  N427  1  0.45093000  0.19362000  0.30048000  1
  N  N428  1  0.09582000  0.28252000  0.42583000  1
  N  N429  1  0.13429000  0.26536000  0.36616000  1
  N  N430  1  0.93442000  0.17380000  0.21087000  1
  N  N431  1  0.08615000  0.18672000  0.24391000  1
  N  N432  1  0.74985000  0.49730000  0.29764000  1
  N  N433  1  0.74349000  0.51663000  0.20877000  1
  N  N434  1  0.25813000  0.33532000  0.22457000  1
  N  N435  1  0.26815000  0.37933000  0.31183000  1
  N  N436  1  0.20915000  0.71510000  0.10974000  1
  N  N437  1  0.24858000  0.73647000  0.05141000  1
  N  N438  1  0.20590000  0.80585000  0.86085000  1
  N  N439  1  0.23929000  0.78996000  0.92074000  1
  N  N440  1  0.75234000  0.81486000  0.00310000  1
  N  N441  1  0.57003000  0.81851000  0.99568000  1
  N  N442  1  0.37027000  0.69566000  0.18740000  1
  N  N443  1  0.54903000  0.69352000  0.19943000  1
  N  N444  1  0.90380000  0.78241000  0.07415000  1
  N  N445  1  0.86537000  0.76522000  0.13384000  1
  N  N446  1  0.06588000  0.67378000  0.28902000  1
  N  N447  1  0.91402000  0.68681000  0.25604000  1
  N  N448  1  0.24944000  0.99705000  0.20132000  1
  N  N449  1  0.25646000  0.01652000  0.29111000  1
  N  N450  1  0.74170000  0.83529000  0.27557000  1
  N  N451  1  0.73120000  0.87902000  0.18818000  1
  O  O452  1  0.34635000  0.50776000  0.69132000  1
  O  O453  1  0.20123000  0.46064000  0.70520000  1
  O  O454  1  0.28867000  0.52843000  0.78610000  1
  O  O455  1  0.31779000  0.44714000  0.80092000  1
  O  O456  1  0.29301000  0.76574000  0.78187000  1
  O  O457  1  0.44410000  0.79138000  0.81463000  1
  O  O458  1  0.70530000  0.39022000  0.71287000  1
  O  O459  1  0.80645000  0.42986000  0.66836000  1
  O  O460  1  0.78936000  0.70554000  0.78409000  1
  O  O461  1  0.78926000  0.62215000  0.77268000  1
  O  O462  1  0.66763000  0.65821000  0.68549000  1
  O  O463  1  0.82756000  0.61986000  0.67611000  1
  O  O464  1  0.14949000  0.73149000  0.69314000  1
  O  O465  1  0.28357000  0.68790000  0.66256000  1
  O  O466  1  0.84923000  0.35358000  0.81244000  1
  O  O467  1  0.00035000  0.35427000  0.85033000  1
  O  O468  1  0.65332000  0.00809000  0.80875000  1
  O  O469  1  0.80024000  0.96091000  0.79732000  1
  O  O470  1  0.71149000  0.02862000  0.71387000  1
  O  O471  1  0.68220000  0.94736000  0.69909000  1
  O  O472  1  0.70668000  0.26568000  0.71805000  1
  O  O473  1  0.55551000  0.29155000  0.68548000  1
  O  O474  1  0.29175000  0.89060000  0.78722000  1
  O  O475  1  0.19267000  0.93212000  0.83177000  1
  O  O476  1  0.21052000  0.20558000  0.71583000  1
  O  O477  1  0.21098000  0.12224000  0.72723000  1
  O  O478  1  0.33242000  0.15853000  0.81449000  1
  O  O479  1  0.17299000  0.11999000  0.82398000  1
  O  O480  1  0.85324000  0.23169000  0.80685000  1
  O  O481  1  0.71670000  0.19009000  0.83717000  1
  O  O482  1  0.15341000  0.85402000  0.68759000  1
  O  O483  1  0.99939000  0.85154000  0.65128000  1
  O  O484  1  0.65365000  0.49224000  0.30868000  1
  O  O485  1  0.79877000  0.53935000  0.29479000  1
  O  O486  1  0.71135000  0.47157000  0.21389000  1
  O  O487  1  0.68221000  0.55286000  0.19908000  1
  O  O488  1  0.70694000  0.23425000  0.21816000  1
  O  O489  1  0.55589000  0.20859000  0.18540000  1
  O  O490  1  0.29471000  0.60978000  0.28714000  1
  O  O491  1  0.19356000  0.57013000  0.33165000  1
  O  O492  1  0.21059000  0.29447000  0.21583000  1
  O  O493  1  0.21061000  0.37779000  0.22747000  1
  O  O494  1  0.33216000  0.34182000  0.31446000  1
  O  O495  1  0.17227000  0.38016000  0.32388000  1
  O  O496  1  0.85051000  0.26851000  0.30687000  1
  O  O497  1  0.71645000  0.31210000  0.33745000  1
  O  O498  1  0.15078000  0.64641000  0.18756000  1
  O  O499  1  0.99965000  0.64573000  0.14967000  1
  O  O500  1  0.34661000  0.99192000  0.19125000  1
  O  O501  1  0.19967000  0.03908000  0.20266000  1
  O  O502  1  0.28849000  0.97137000  0.28613000  1
  O  O503  1  0.31776000  0.05263000  0.30092000  1
  O  O504  1  0.29332000  0.73432000  0.28195000  1
  O  O505  1  0.44447000  0.70846000  0.31453000  1
  O  O506  1  0.70839000  0.10939000  0.21283000  1
  O  O507  1  0.80734000  0.06788000  0.16824000  1
  O  O508  1  0.78948000  0.79442000  0.28418000  1
  O  O509  1  0.78901000  0.87776000  0.27277000  1
  O  O510  1  0.66752000  0.84146000  0.18551000  1
  O  O511  1  0.82701000  0.87999000  0.17605000  1
  O  O512  1  0.14677000  0.76831000  0.19316000  1
  O  O513  1  0.28329000  0.80991000  0.16283000  1
  O  O514  1  0.84658000  0.14598000  0.31241000  1
  O  O515  1  0.00058000  0.14847000  0.34873000  1
