# generated using pymatgen
data_MnH22C24(NO2)2
_symmetry_space_group_name_H-M   'P 1'
_cell_length_a   13.46428000
_cell_length_b   13.84273000
_cell_length_c   16.26482000
_cell_angle_alpha   108.45114000
_cell_angle_beta   90.05190000
_cell_angle_gamma   119.06099000
_symmetry_Int_Tables_number   1
_chemical_formula_structural   MnH22C24(NO2)2
_chemical_formula_sum   'Mn4 H88 C96 N8 O16'
_cell_volume   2469.50402836
_cell_formula_units_Z   4
loop_
 _symmetry_equiv_pos_site_id
 _symmetry_equiv_pos_as_xyz
  1  'x, y, z'
loop_
 _atom_site_type_symbol
 _atom_site_label
 _atom_site_symmetry_multiplicity
 _atom_site_fract_x
 _atom_site_fract_y
 _atom_site_fract_z
 _atom_site_occupancy
  Mn  Mn1  1  0.97029000  0.41365000  0.86781000  1.0
  Mn  Mn2  1  0.55634000  0.58633000  0.63207000  1.0
  Mn  Mn3  1  0.02971000  0.58634000  0.13219000  1.0
  Mn  Mn4  1  0.44366000  0.41367000  0.36793000  1.0
  H  H1  1  0.02685000  0.38298000  0.31260000  1.0
  H  H2  1  0.00507000  0.23732000  0.27836000  1.0
  H  H3  1  0.89893000  0.26147000  0.23982000  1.0
  H  H4  1  0.79282000  0.33355000  0.44935000  1.0
  H  H5  1  0.90216000  0.43799000  0.41117000  1.0
  H  H6  1  0.77695000  0.31383000  0.33577000  1.0
  H  H7  1  0.74476000  0.10821000  0.29166000  1.0
  H  H8  1  0.84835000  0.08219000  0.33281000  1.0
  H  H9  1  0.76251000  0.12024000  0.40362000  1.0
  H  H10  1  0.19810000  0.40816000  0.67207000  1.0
  H  H11  1  0.13668000  0.34870000  0.39724000  1.0
  H  H12  1  0.85713000  0.28094000  0.54298000  1.0
  H  H13  1  0.22188000  0.49751000  0.84437000  1.0
  H  H14  1  0.40353000  0.67199000  0.84213000  1.0
  H  H15  1  0.23668000  0.87762000  0.93092000  1.0
  H  H16  1  0.06146000  0.69215000  0.92689000  1.0
  H  H17  1  0.42716000  0.97835000  0.90883000  1.0
  H  H18  1  0.55088000  0.83794000  0.84326000  1.0
  H  H19  1  0.70787000  0.30070000  0.86691000  1.0
  H  H20  1  0.53689000  0.11459000  0.86588000  1.0
  H  H21  1  0.76036000  0.96998000  0.85609000  1.0
  H  H22  1  0.92340000  0.16563000  0.85915000  1.0
  H  H23  1  0.64409000  0.61694000  0.18742000  1.0
  H  H24  1  0.76789000  0.76249000  0.22163000  1.0
  H  H25  1  0.63778000  0.73854000  0.26015000  1.0
  H  H26  1  0.45929000  0.66653000  0.05056000  1.0
  H  H27  1  0.46429000  0.56206000  0.08881000  1.0
  H  H28  1  0.46329000  0.68625000  0.16411000  1.0
  H  H29  1  0.63665000  0.89186000  0.20822000  1.0
  H  H30  1  0.76615000  0.91773000  0.16708000  1.0
  H  H31  1  0.64225000  0.87974000  0.09621000  1.0
  H  H32  1  0.78971000  0.59210000  0.82786000  1.0
  H  H33  1  0.78799000  0.65111000  0.10272000  1.0
  H  H34  1  0.57597000  0.71914000  0.95694000  1.0
  H  H35  1  0.72426000  0.50253000  0.65561000  1.0
  H  H36  1  0.73145000  0.32799000  0.65803000  1.0
  H  H37  1  0.35894000  0.12266000  0.56901000  1.0
  H  H38  1  0.36926000  0.30820000  0.57282000  1.0
  H  H39  1  0.44890000  0.02184000  0.59127000  1.0
  H  H40  1  0.71275000  0.16209000  0.65676000  1.0
  H  H41  1  0.40749000  0.69951000  0.63312000  1.0
  H  H42  1  0.42236000  0.88557000  0.63411000  1.0
  H  H43  1  0.79036000  0.03004000  0.64393000  1.0
  H  H44  1  0.75796000  0.83436000  0.64096000  1.0
  H  H45  1  0.97315000  0.61702000  0.68740000  1.0
  H  H46  1  0.99493000  0.76267000  0.72164000  1.0
  H  H47  1  0.10107000  0.73853000  0.76018000  1.0
  H  H48  1  0.20718000  0.66645000  0.55065000  1.0
  H  H49  1  0.09784000  0.56201000  0.58882000  1.0
  H  H50  1  0.22305000  0.68617000  0.66422000  1.0
  H  H51  1  0.25524000  0.89179000  0.70833000  1.0
  H  H52  1  0.15165000  0.91781000  0.66718000  1.0
  H  H53  1  0.23749000  0.87976000  0.59638000  1.0
  H  H54  1  0.80190000  0.59184000  0.32793000  1.0
  H  H55  1  0.86332000  0.65130000  0.60275000  1.0
  H  H56  1  0.14288000  0.71906000  0.45701000  1.0
  H  H57  1  0.77812000  0.50249000  0.15563000  1.0
  H  H58  1  0.59647000  0.32801000  0.15787000  1.0
  H  H59  1  0.76332000  0.12238000  0.06907000  1.0
  H  H60  1  0.93855000  0.30785000  0.07311000  1.0
  H  H61  1  0.57284000  0.02165000  0.09117000  1.0
  H  H62  1  0.44912000  0.16206000  0.15674000  1.0
  H  H63  1  0.29213000  0.69930000  0.13309000  1.0
  H  H64  1  0.46311000  0.88541000  0.13412000  1.0
  H  H65  1  0.23964000  0.03002000  0.14390000  1.0
  H  H66  1  0.07660000  0.83437000  0.14085000  1.0
  H  H67  1  0.35591000  0.38306000  0.81258000  1.0
  H  H68  1  0.23211000  0.23751000  0.77837000  1.0
  H  H69  1  0.36222000  0.26146000  0.73984000  1.0
  H  H70  1  0.54071000  0.33347000  0.94943000  1.0
  H  H71  1  0.53571000  0.43794000  0.91119000  1.0
  H  H72  1  0.53671000  0.31374000  0.83588000  1.0
  H  H73  1  0.36336000  0.10814000  0.79178000  1.0
  H  H74  1  0.23386000  0.08227000  0.83292000  1.0
  H  H75  1  0.35775000  0.12026000  0.90379000  1.0
  H  H76  1  0.21030000  0.40790000  0.17214000  1.0
  H  H77  1  0.21201000  0.34889000  0.89727000  1.0
  H  H78  1  0.42403000  0.28085000  0.04306000  1.0
  H  H79  1  0.27574000  0.49747000  0.34439000  1.0
  H  H80  1  0.26855000  0.67201000  0.34197000  1.0
  H  H81  1  0.64106000  0.87734000  0.43099000  1.0
  H  H82  1  0.63074000  0.69180000  0.42718000  1.0
  H  H83  1  0.55110000  0.97816000  0.40872000  1.0
  H  H84  1  0.28725000  0.83790000  0.34324000  1.0
  H  H85  1  0.59251000  0.30049000  0.36688000  1.0
  H  H86  1  0.57764000  0.11443000  0.36589000  1.0
  H  H87  1  0.20964000  0.96996000  0.35607000  1.0
  H  H88  1  0.24204000  0.16564000  0.35904000  1.0
  C  C1  1  0.96202000  0.28899000  0.29739000  1.0
  C  C2  1  0.83958000  0.34322000  0.39449000  1.0
  C  C3  1  0.80865000  0.13732000  0.34945000  1.0
  C  C4  1  0.02141000  0.33962000  0.61447000  1.0
  C  C5  1  0.13862000  0.37952000  0.61265000  1.0
  C  C6  1  0.17889000  0.38405000  0.53417000  1.0
  C  C7  1  0.10190000  0.34609000  0.45723000  1.0
  C  C8  1  0.98500000  0.30876000  0.45805000  1.0
  C  C9  1  0.94661000  0.30702000  0.53812000  1.0
  C  C10  1  0.97978000  0.34130000  0.69981000  1.0
  C  C11  1  0.30433000  0.43044000  0.53153000  1.0
  C  C12  1  0.90030000  0.27033000  0.37539000  1.0
  C  C13  1  0.22969000  0.58396000  0.86364000  1.0
  C  C14  1  0.33092000  0.68228000  0.86256000  1.0
  C  C15  1  0.33647000  0.79227000  0.88683000  1.0
  C  C16  1  0.23729000  0.79509000  0.91111000  1.0
  C  C17  1  0.13920000  0.69199000  0.90936000  1.0
  C  C18  1  0.43695000  0.90087000  0.88699000  1.0
  C  C19  1  0.53785000  0.91355000  0.86338000  1.0
  C  C20  1  0.71538000  0.22549000  0.86584000  1.0
  C  C21  1  0.62083000  0.12143000  0.86607000  1.0
  C  C22  1  0.63385000  0.02555000  0.86358000  1.0
  C  C23  1  0.74521000  0.04168000  0.86006000  1.0
  C  C24  1  0.83593000  0.14944000  0.86086000  1.0
  C  C25  1  0.67320000  0.71093000  0.20258000  1.0
  C  C26  1  0.49646000  0.65682000  0.10543000  1.0
  C  C27  1  0.67133000  0.86267000  0.15045000  1.0
  C  C28  1  0.68151000  0.66038000  0.88551000  1.0
  C  C29  1  0.75896000  0.62059000  0.88732000  1.0
  C  C30  1  0.79492000  0.61605000  0.96580000  1.0
  C  C31  1  0.75579000  0.65377000  0.04270000  1.0
  C  C32  1  0.67620000  0.69117000  0.04189000  1.0
  C  C33  1  0.63942000  0.69302000  0.96183000  1.0
  C  C34  1  0.63814000  0.65856000  0.80010000  1.0
  C  C35  1  0.87451000  0.57018000  0.96849000  1.0
  C  C36  1  0.63004000  0.72964000  0.12456000  1.0
  C  C37  1  0.64561000  0.41613000  0.63635000  1.0
  C  C38  1  0.64856000  0.31782000  0.63756000  1.0
  C  C39  1  0.54408000  0.20792000  0.61325000  1.0
  C  C40  1  0.44209000  0.20514000  0.58886000  1.0
  C  C41  1  0.44709000  0.30826000  0.59049000  1.0
  C  C42  1  0.53599000  0.09932000  0.61309000  1.0
  C  C43  1  0.62426000  0.08653000  0.63669000  1.0
  C  C44  1  0.49014000  0.77469000  0.63419000  1.0
  C  C45  1  0.49948000  0.87872000  0.63397000  1.0
  C  C46  1  0.60832000  0.97453000  0.63648000  1.0
  C  C47  1  0.70358000  0.95838000  0.64000000  1.0
  C  C48  1  0.68670000  0.85062000  0.63919000  1.0
  C  C49  1  0.03798000  0.71101000  0.70261000  1.0
  C  C50  1  0.16043000  0.65678000  0.60551000  1.0
  C  C51  1  0.19135000  0.86267000  0.65055000  1.0
  C  C52  1  0.97859000  0.66038000  0.38552000  1.0
  C  C53  1  0.86139000  0.62048000  0.38734000  1.0
  C  C54  1  0.82111000  0.61594000  0.46583000  1.0
  C  C55  1  0.89810000  0.65391000  0.54277000  1.0
  C  C56  1  0.01500000  0.69124000  0.54194000  1.0
  C  C57  1  0.05339000  0.69298000  0.46188000  1.0
  C  C58  1  0.02022000  0.65870000  0.30019000  1.0
  C  C59  1  0.69567000  0.56956000  0.46847000  1.0
  C  C60  1  0.09970000  0.72967000  0.62461000  1.0
  C  C61  1  0.77032000  0.41604000  0.13636000  1.0
  C  C62  1  0.66908000  0.31771000  0.13744000  1.0
  C  C63  1  0.66353000  0.20773000  0.11317000  1.0
  C  C64  1  0.76271000  0.20491000  0.08888000  1.0
  C  C65  1  0.86081000  0.30801000  0.09063000  1.0
  C  C66  1  0.56305000  0.09913000  0.11300000  1.0
  C  C67  1  0.46215000  0.08645000  0.13662000  1.0
  C  C68  1  0.28462000  0.77451000  0.13415000  1.0
  C  C69  1  0.37917000  0.87857000  0.13392000  1.0
  C  C70  1  0.36616000  0.97445000  0.13642000  1.0
  C  C71  1  0.25479000  0.95832000  0.13994000  1.0
  C  C72  1  0.16408000  0.85056000  0.13913000  1.0
  C  C73  1  0.32680000  0.28907000  0.79742000  1.0
  C  C74  1  0.50354000  0.34318000  0.89457000  1.0
  C  C75  1  0.32867000  0.13733000  0.84954000  1.0
  C  C76  1  0.31849000  0.33962000  0.11449000  1.0
  C  C77  1  0.24104000  0.37941000  0.11268000  1.0
  C  C78  1  0.20508000  0.38394000  0.03419000  1.0
  C  C79  1  0.24421000  0.34623000  0.95730000  1.0
  C  C80  1  0.32380000  0.30883000  0.95811000  1.0
  C  C81  1  0.36058000  0.30698000  0.03817000  1.0
  C  C82  1  0.36186000  0.34144000  0.19989000  1.0
  C  C83  1  0.12549000  0.42982000  0.03151000  1.0
  C  C84  1  0.36996000  0.27036000  0.87544000  1.0
  C  C85  1  0.35439000  0.58387000  0.36365000  1.0
  C  C86  1  0.35144000  0.68218000  0.36244000  1.0
  C  C87  1  0.45592000  0.79208000  0.38675000  1.0
  C  C88  1  0.55791000  0.79486000  0.41113000  1.0
  C  C89  1  0.55291000  0.69174000  0.40951000  1.0
  C  C90  1  0.46401000  0.90068000  0.38691000  1.0
  C  C91  1  0.37574000  0.91347000  0.36331000  1.0
  C  C92  1  0.50986000  0.22531000  0.36581000  1.0
  C  C93  1  0.50052000  0.12128000  0.36603000  1.0
  C  C94  1  0.39168000  0.02546000  0.36352000  1.0
  C  C95  1  0.29642000  0.04162000  0.36000000  1.0
  C  C96  1  0.31330000  0.14937000  0.36081000  1.0
  N  N1  1  0.13388000  0.58683000  0.88607000  1.0
  N  N2  1  0.82212000  0.24057000  0.86348000  1.0
  N  N3  1  0.54698000  0.41333000  0.61379000  1.0
  N  N4  1  0.58178000  0.75957000  0.63656000  1.0
  N  N5  1  0.86612000  0.41317000  0.11392000  1.0
  N  N6  1  0.17788000  0.75943000  0.13652000  1.0
  N  N7  1  0.45302000  0.58667000  0.38621000  1.0
  N  N8  1  0.41822000  0.24043000  0.36343000  1.0
  O  O1  1  0.03905000  0.33892000  0.76039000  1.0
  O  O2  1  0.89134000  0.35141000  0.71261000  1.0
  O  O3  1  0.33068000  0.39091000  0.45838000  1.0
  O  O4  1  0.37614000  0.50509000  0.60359000  1.0
  O  O5  1  0.69998000  0.66167000  0.73975000  1.0
  O  O6  1  0.53924000  0.64764000  0.78711000  1.0
  O  O7  1  0.94029000  0.60970000  0.04177000  1.0
  O  O8  1  0.87240000  0.49609000  0.89648000  1.0
  O  O9  1  0.96095000  0.66108000  0.23961000  1.0
  O  O10  1  0.10866000  0.64859000  0.28738000  1.0
  O  O11  1  0.66932000  0.60909000  0.54162000  1.0
  O  O12  1  0.62386000  0.49491000  0.39641000  1.0
  O  O13  1  0.30003000  0.33833000  0.26025000  1.0
  O  O14  1  0.46076000  0.35236000  0.21289000  1.0
  O  O15  1  0.05971000  0.39030000  0.95823000  1.0
  O  O16  1  0.12760000  0.50391000  0.10352000  1.0
