# generated using pymatgen
data_ZnH16C25Br2(NO4)2
_symmetry_space_group_name_H-M   'P 1'
_cell_length_a   7.75489000
_cell_length_b   8.55467000
_cell_length_c   27.58037000
_cell_angle_alpha   89.98228000
_cell_angle_beta   86.62053000
_cell_angle_gamma   85.97580000
_symmetry_Int_Tables_number   1
_chemical_formula_structural   ZnH16C25Br2(NO4)2
_chemical_formula_sum   'Zn2 H32 C50 Br4 N4 O16'
_cell_volume   1821.99767121
_cell_formula_units_Z   2
loop_
 _symmetry_equiv_pos_site_id
 _symmetry_equiv_pos_as_xyz
  1  'x, y, z'
loop_
 _atom_site_type_symbol
 _atom_site_label
 _atom_site_symmetry_multiplicity
 _atom_site_fract_x
 _atom_site_fract_y
 _atom_site_fract_z
 _atom_site_occupancy
  Zn  Zn0  1  0.69306000  0.51799000  0.49438000  1
  Zn  Zn1  1  0.30694000  0.48201000  0.50562000  1
  H  H2  1  0.21129000  0.52869000  0.35549000  1
  H  H3  1  0.74943000  0.18807000  0.95794000  1
  H  H4  1  0.29764000  0.01056000  0.50628000  1
  H  H5  1  0.70236000  0.98943000  0.49377000  1
  H  H6  1  0.28077000  0.79402000  0.61765000  1
  H  H7  1  0.16555000  0.83200000  0.67623000  1
  H  H8  1  0.89251000  0.76819000  0.64273000  1
  H  H9  1  0.99238000  0.91384000  0.60545000  1
  H  H10  1  0.00395000  0.71249000  0.58509000  1
  H  H11  1  0.82942000  0.16935000  0.31955000  1
  H  H12  1  0.71637000  0.20182000  0.37875000  1
  H  H13  1  0.78557000  0.49864000  0.64663000  1
  H  H14  1  0.99137000  0.28201000  0.41155000  1
  H  H15  1  0.01010000  0.08410000  0.38797000  1
  H  H16  1  0.10255000  0.23928000  0.35298000  1
  H  H17  1  0.41938000  0.02011000  0.88017000  1
  H  H18  1  0.27981000  0.04831000  0.93515000  1
  H  H19  1  0.05134000  0.18010000  0.88817000  1
  H  H20  1  0.25010000  0.27620000  0.88063000  1
  H  H21  1  0.18690000  0.15226000  0.83263000  1
  H  H22  1  0.82254000  0.09403000  0.14095000  1
  H  H23  1  0.83270000  0.01880000  0.07938000  1
  H  H24  1  0.98632000  0.38421000  0.53645000  1
  H  H25  1  0.75848000  0.75760000  0.11028000  1
  H  H26  1  0.95122000  0.82066000  0.13599000  1
  H  H27  1  0.74821000  0.83132000  0.17196000  1
  H  H28  1  0.01368000  0.61580000  0.46356000  1
  H  H29  1  0.29626000  0.83474000  0.13040000  1
  H  H30  1  0.75633000  0.20573000  0.87108000  1
  H  H31  1  0.24014000  0.60304000  0.74737000  1
  H  H32  1  0.73998000  0.38644000  0.25047000  1
  H  H33  1  0.27080000  0.84792000  0.04521000  1
  C  C34  1  0.45389000  0.79482000  0.50136000  1
  C  C35  1  0.40035000  0.65820000  0.87703000  1
  C  C36  1  0.48937000  0.47662000  0.35350000  1
  C  C37  1  0.50589000  0.53037000  0.64646000  1
  C  C38  1  0.35275000  0.61316000  0.97847000  1
  C  C39  1  0.50841000  0.34073000  0.02160000  1
  C  C40  1  0.53900000  0.36824000  0.97130000  1
  C  C41  1  0.36160000  0.60504000  0.02953000  1
  C  C42  1  0.45638000  0.50207000  0.94973000  1
  C  C43  1  0.43635000  0.46708000  0.05091000  1
  C  C44  1  0.25172000  0.73142000  0.95475000  1
  C  C45  1  0.54611000  0.20518000  0.49865000  1
  C  C46  1  0.54768000  0.19375000  0.04399000  1
  C  C47  1  0.28917000  0.76411000  0.90554000  1
  C  C48  1  0.54917000  0.18276000  0.09483000  1
  C  C49  1  0.49714000  0.49540000  0.40604000  1
  C  C50  1  0.50225000  0.50631000  0.59395000  1
  C  C51  1  0.31272000  0.73562000  0.05958000  1
  C  C52  1  0.65925000  0.27277000  0.94235000  1
  C  C53  1  0.42984000  0.95864000  0.50217000  1
  C  C54  1  0.57016000  0.04135000  0.49787000  1
  C  C55  1  0.41197000  0.58465000  0.18041000  1
  C  C56  1  0.44220000  0.45735000  0.10188000  1
  C  C57  1  0.58468000  0.42589000  0.82007000  1
  C  C58  1  0.49854000  0.31150000  0.17528000  1
  C  C59  1  0.42932000  0.67656000  0.82646000  1
  C  C60  1  0.62513000  0.41574000  0.27378000  1
  C  C61  1  0.35852000  0.58193000  0.72513000  1
  C  C62  1  0.63834000  0.42927000  0.32381000  1
  C  C63  1  0.35209000  0.57100000  0.67498000  1
  C  C64  1  0.32787000  0.49687000  0.33305000  1
  C  C65  1  0.66535000  0.52239000  0.66823000  1
  C  C66  1  0.31465000  0.47761000  0.28348000  1
  C  C67  1  0.47847000  0.52455000  0.89907000  1
  C  C68  1  0.67135000  0.54512000  0.71805000  1
  C  C69  1  0.46471000  0.44179000  0.25350000  1
  C  C70  1  0.51646000  0.56634000  0.74707000  1
  C  C71  1  0.17258000  0.75836000  0.64275000  1
  C  C72  1  0.00472000  0.78980000  0.61740000  1
  C  C73  1  0.82276000  0.24046000  0.35354000  1
  C  C74  1  0.99244000  0.20979000  0.37806000  1
  C  C75  1  0.28248000  0.02755000  0.89525000  1
  C  C76  1  0.18666000  0.16773000  0.87262000  1
  C  C77  1  0.76795000  0.00958000  0.11631000  1
  C  C78  1  0.39424000  0.59131000  0.13057000  1
  C  C79  1  0.80896000  0.84436000  0.13482000  1
  C  C80  1  0.57862000  0.41206000  0.87038000  1
  C  C81  1  0.33167000  0.72981000  0.10906000  1
  C  C82  1  0.67100000  0.28840000  0.89237000  1
  C  C83  1  0.49887000  0.31566000  0.12411000  1
  Br  Br84  1  0.09029000  0.50342000  0.25771000  1
  Br  Br85  1  0.89197000  0.54844000  0.74530000  1
  Br  Br86  1  0.03289000  0.82207000  0.98293000  1
  Br  Br87  1  0.56440000  0.99753000  0.00855000  1
  N  N88  1  0.45747000  0.44527000  0.20186000  1
  N  N89  1  0.51547000  0.55889000  0.79905000  1
  N  N90  1  0.04968000  0.45796000  0.51312000  1
  N  N91  1  0.95032000  0.54204000  0.48688000  1
  O  O92  1  0.61075000  0.73857000  0.49678000  1
  O  O93  1  0.65583000  0.30549000  0.79227000  1
  O  O94  1  0.37000000  0.80897000  0.80453000  1
  O  O95  1  0.53796000  0.17610000  0.19853000  1
  O  O96  1  0.19429000  0.59756000  0.65446000  1
  O  O97  1  0.79819000  0.40180000  0.34305000  1
  O  O98  1  0.20080000  0.89013000  0.88440000  1
  O  O99  1  0.58632000  0.03799000  0.11568000  1
  O  O100  1  0.38925000  0.26143000  0.50322000  1
  O  O101  1  0.32161000  0.71163000  0.50519000  1
  O  O102  1  0.67839000  0.28837000  0.49481000  1
  O  O103  1  0.64456000  0.51344000  0.42455000  1
  O  O104  1  0.35544000  0.48656000  0.57545000  1
  O  O105  1  0.35541000  0.48650000  0.43296000  1
  O  O106  1  0.64459000  0.51350000  0.56704000  1
  O  O107  1  0.38349000  0.71649000  0.20750000  1
