# generated using pymatgen
data_CdH15C23N2O3
_symmetry_space_group_name_H-M   'P 1'
_cell_length_a   9.40862000
_cell_length_b   18.03026040
_cell_length_c   21.38767000
_cell_angle_alpha   66.85883342
_cell_angle_beta   89.96919000
_cell_angle_gamma   74.93770924
_symmetry_Int_Tables_number   1
_chemical_formula_structural   CdH15C23N2O3
_chemical_formula_sum   'Cd4 H60 C92 N8 O12'
_cell_volume   3200.49801129
_cell_formula_units_Z   4
loop_
 _symmetry_equiv_pos_site_id
 _symmetry_equiv_pos_as_xyz
  1  'x, y, z'
loop_
 _atom_site_type_symbol
 _atom_site_label
 _atom_site_symmetry_multiplicity
 _atom_site_fract_x
 _atom_site_fract_y
 _atom_site_fract_z
 _atom_site_occupancy
  Cd  Cd0  1  0.85192000  0.53346000  0.04591000  1
  Cd  Cd1  1  0.38494000  0.46653000  0.45387000  1
  Cd  Cd2  1  0.14809000  0.46653000  0.95409000  1
  Cd  Cd3  1  0.61507000  0.53346000  0.54614000  1
  H  H4  1  0.94925000  0.37658000  0.90093000  1
  H  H5  1  0.81430000  0.27226000  0.90989000  1
  H  H6  1  0.61577000  0.25167000  0.98682000  1
  H  H7  1  0.46393000  0.29436000  0.07144000  1
  H  H8  1  0.40660000  0.38504000  0.13500000  1
  H  H9  1  0.61142000  0.54903000  0.11641000  1
  H  H10  1  0.42402000  0.44057000  0.20665000  1
  H  H11  1  0.54675000  0.64263000  0.15790000  1
  H  H12  1  0.53562000  0.71209000  0.23951000  1
  H  H13  1  0.45505000  0.64522000  0.35541000  1
  H  H14  1  0.38327000  0.45338000  0.31089000  1
  H  H15  1  0.66208000  0.84546000  0.90585000  1
  H  H16  1  0.54472000  0.99021000  0.89434000  1
  H  H17  1  0.54326000  0.89704000  0.11365000  1
  H  H18  1  0.65979000  0.75340000  0.12325000  1
  H  H19  1  0.32514000  0.62330000  0.59919000  1
  H  H20  1  0.08637000  0.72765000  0.59004000  1
  H  H21  1  0.86768000  0.74833000  0.51303000  1
  H  H22  1  0.75870000  0.70557000  0.42836000  1
  H  H23  1  0.79185000  0.61481000  0.36493000  1
  H  H24  1  0.16015000  0.45106000  0.38345000  1
  H  H25  1  0.86469000  0.55930000  0.29335000  1
  H  H26  1  0.18892000  0.35756000  0.34188000  1
  H  H27  1  0.24744000  0.28815000  0.26028000  1
  H  H28  1  0.10012000  0.35480000  0.14449000  1
  H  H29  1  0.83668000  0.54640000  0.18910000  1
  H  H30  1  0.50725000  0.15496000  0.59383000  1
  H  H31  1  0.53547000  0.00998000  0.60558000  1
  H  H32  1  0.44115000  0.10274000  0.38624000  1
  H  H33  1  0.41335000  0.24666000  0.37657000  1
  H  H34  1  0.05075000  0.62341000  0.09907000  1
  H  H35  1  0.18570000  0.72774000  0.09012000  1
  H  H36  1  0.38424000  0.74832000  0.01319000  1
  H  H37  1  0.53608000  0.70563000  0.92857000  1
  H  H38  1  0.59339000  0.61496000  0.86500000  1
  H  H39  1  0.38858000  0.45097000  0.88359000  1
  H  H40  1  0.57599000  0.55942000  0.79335000  1
  H  H41  1  0.45325000  0.35736000  0.84210000  1
  H  H42  1  0.46439000  0.28790000  0.76050000  1
  H  H43  1  0.54495000  0.35478000  0.64459000  1
  H  H44  1  0.61673000  0.54661000  0.68911000  1
  H  H45  1  0.33792000  0.15453000  0.09415000  1
  H  H46  1  0.45528000  0.00978000  0.10566000  1
  H  H47  1  0.45674000  0.10295000  0.88635000  1
  H  H48  1  0.34021000  0.24659000  0.87676000  1
  H  H49  1  0.67485000  0.37670000  0.40081000  1
  H  H50  1  0.91362000  0.27235000  0.40997000  1
  H  H51  1  0.13233000  0.25166000  0.48697000  1
  H  H52  1  0.24129000  0.29443000  0.57165000  1
  H  H53  1  0.20815000  0.38518000  0.63507000  1
  H  H54  1  0.83985000  0.54893000  0.61655000  1
  H  H55  1  0.13532000  0.44069000  0.70665000  1
  H  H56  1  0.81107000  0.64244000  0.65813000  1
  H  H57  1  0.75257000  0.71184000  0.73973000  1
  H  H58  1  0.89988000  0.64519000  0.85552000  1
  H  H59  1  0.16332000  0.45359000  0.81090000  1
  H  H60  1  0.49274000  0.84504000  0.40618000  1
  H  H61  1  0.46453000  0.99002000  0.39442000  1
  H  H62  1  0.55885000  0.89726000  0.61376000  1
  H  H63  1  0.58666000  0.75333000  0.62343000  1
  C  C64  1  0.83079000  0.41853000  0.97188000  1
  C  C65  1  0.86190000  0.36891000  0.93427000  1
  C  C66  1  0.78502000  0.30971000  0.93982000  1
  C  C67  1  0.67435000  0.29781000  0.98251000  1
  C  C68  1  0.63819000  0.34635000  0.02153000  1
  C  C69  1  0.71528000  0.40708000  0.01644000  1
  C  C70  1  0.52689000  0.33878000  0.06666000  1
  C  C71  1  0.49564000  0.38866000  0.10244000  1
  C  C72  1  0.57755000  0.44709000  0.09554000  1
  C  C73  1  0.55505000  0.49993000  0.13326000  1
  C  C74  1  0.47716000  0.49104000  0.18769000  1
  C  C75  1  0.46693000  0.54089000  0.22786000  1
  C  C76  1  0.50924000  0.61573000  0.20802000  1
  C  C77  1  0.50372000  0.65422000  0.25349000  1
  C  C78  1  0.45708000  0.61815000  0.31784000  1
  C  C79  1  0.41705000  0.51101000  0.29271000  1
  C  C80  1  0.73651000  0.70214000  0.02152000  1
  C  C81  1  0.66845000  0.78991000  0.01518000  1
  C  C82  1  0.63512000  0.85787000  0.95092000  1
  C  C83  1  0.56919000  0.93930000  0.94508000  1
  C  C84  1  0.53432000  0.95652000  0.00308000  1
  C  C85  1  0.56821000  0.88738000  0.06735000  1
  C  C86  1  0.63365000  0.80594000  0.07332000  1
  C  C87  1  0.24891000  0.58163000  0.52777000  1
  C  C88  1  0.23050000  0.63091000  0.56572000  1
  C  C89  1  0.09463000  0.69012000  0.56016000  1
  C  C90  1  0.97219000  0.70213000  0.51742000  1
  C  C91  1  0.98446000  0.65366000  0.47833000  1
  C  C92  1  0.12192000  0.59302000  0.48338000  1
  C  C93  1  0.86591000  0.66124000  0.43315000  1
  C  C94  1  0.88439000  0.61128000  0.39742000  1
  C  C95  1  0.02447000  0.55293000  0.40431000  1
  C  C96  1  0.05484000  0.50008000  0.36660000  1
  C  C97  1  0.96816000  0.50893000  0.31222000  1
  C  C98  1  0.00758000  0.45911000  0.27203000  1
  C  C99  1  0.12460000  0.38439000  0.29182000  1
  C  C100  1  0.15770000  0.34590000  0.24636000  1
  C  C101  1  0.07507000  0.38184000  0.18207000  1
  C  C102  1  0.92795000  0.48885000  0.20723000  1
  C  C103  1  0.43680000  0.29801000  0.47804000  1
  C  C104  1  0.45734000  0.21019000  0.48456000  1
  C  C105  1  0.49264000  0.14235000  0.54887000  1
  C  C106  1  0.50870000  0.06081000  0.55481000  1
  C  C107  1  0.49106000  0.04348000  0.49686000  1
  C  C108  1  0.45598000  0.11251000  0.43252000  1
  C  C109  1  0.43949000  0.19403000  0.42646000  1
  C  C110  1  0.16922000  0.58146000  0.02812000  1
  C  C111  1  0.13809000  0.63109000  0.06573000  1
  C  C112  1  0.21499000  0.69028000  0.06018000  1
  C  C113  1  0.32566000  0.70218000  0.01749000  1
  C  C114  1  0.36181000  0.65364000  0.97847000  1
  C  C115  1  0.28473000  0.59291000  0.98357000  1
  C  C116  1  0.47310000  0.66122000  0.93335000  1
  C  C117  1  0.50437000  0.61133000  0.89756000  1
  C  C118  1  0.42245000  0.55290000  0.90447000  1
  C  C119  1  0.44495000  0.50007000  0.86674000  1
  C  C120  1  0.52283000  0.50896000  0.81231000  1
  C  C121  1  0.53308000  0.45910000  0.77214000  1
  C  C122  1  0.49075000  0.38427000  0.79198000  1
  C  C123  1  0.49628000  0.34577000  0.74652000  1
  C  C124  1  0.54293000  0.38184000  0.68216000  1
  C  C125  1  0.58295000  0.48898000  0.70729000  1
  C  C126  1  0.26350000  0.29785000  0.97848000  1
  C  C127  1  0.33155000  0.21008000  0.98483000  1
  C  C128  1  0.36487000  0.14213000  0.04909000  1
  C  C129  1  0.43081000  0.06070000  0.05493000  1
  C  C130  1  0.46568000  0.04347000  0.99693000  1
  C  C131  1  0.43179000  0.11261000  0.93265000  1
  C  C132  1  0.36635000  0.19405000  0.92669000  1
  C  C133  1  0.75109000  0.41836000  0.47223000  1
  C  C134  1  0.76950000  0.36908000  0.43428000  1
  C  C135  1  0.90536000  0.30988000  0.43985000  1
  C  C136  1  0.02781000  0.29786000  0.48258000  1
  C  C137  1  0.01555000  0.34633000  0.52167000  1
  C  C138  1  0.87808000  0.40698000  0.51663000  1
  C  C139  1  0.13409000  0.33875000  0.56685000  1
  C  C140  1  0.11561000  0.38871000  0.60259000  1
  C  C141  1  0.97553000  0.44706000  0.59569000  1
  C  C142  1  0.94517000  0.49991000  0.63340000  1
  C  C143  1  0.03184000  0.49106000  0.68779000  1
  C  C144  1  0.99241000  0.54089000  0.72798000  1
  C  C145  1  0.87540000  0.61560000  0.70819000  1
  C  C146  1  0.84231000  0.65409000  0.75365000  1
  C  C147  1  0.92493000  0.61816000  0.81793000  1
  C  C148  1  0.07206000  0.51114000  0.79277000  1
  C  C149  1  0.56321000  0.70198000  0.52197000  1
  C  C150  1  0.54267000  0.78980000  0.51545000  1
  C  C151  1  0.50736000  0.85765000  0.45113000  1
  C  C152  1  0.49130000  0.93918000  0.44519000  1
  C  C153  1  0.50895000  0.95651000  0.50315000  1
  C  C154  1  0.54403000  0.88748000  0.56748000  1
  C  C155  1  0.56051000  0.80596000  0.57354000  1
  N  N156  1  0.68376000  0.45494000  0.05320000  1
  N  N157  1  0.41330000  0.54758000  0.33679000  1
  N  N158  1  0.13830000  0.54515000  0.44662000  1
  N  N159  1  0.96074000  0.45224000  0.16318000  1
  N  N160  1  0.31624000  0.54505000  0.94680000  1
  N  N161  1  0.58670000  0.45241000  0.66321000  1
  N  N162  1  0.86170000  0.45485000  0.55339000  1
  N  N163  1  0.03926000  0.54775000  0.83682000  1
  O  O164  1  0.90176000  0.47424000  0.96833000  1
  O  O165  1  0.77522000  0.68883000  0.96915000  1
  O  O166  1  0.75024000  0.64220000  0.08139000  1
  O  O167  1  0.37527000  0.52631000  0.53075000  1
  O  O168  1  0.46007000  0.31148000  0.53049000  1
  O  O169  1  0.39217000  0.35784000  0.41805000  1
  O  O170  1  0.09825000  0.52575000  0.03168000  1
  O  O171  1  0.22478000  0.31116000  0.03085000  1
  O  O172  1  0.24977000  0.35779000  0.91862000  1
  O  O173  1  0.62473000  0.47368000  0.46926000  1
  O  O174  1  0.53993000  0.68851000  0.46952000  1
  O  O175  1  0.60783000  0.64215000  0.58196000  1
