# generated using pymatgen
data_H40C49(N2O)4
_symmetry_space_group_name_H-M   'P 1'
_cell_length_a   15.76692500
_cell_length_b   15.76690000
_cell_length_c   47.30050000
_cell_angle_alpha   89.99990000
_cell_angle_beta   89.99980000
_cell_angle_gamma   119.99984265
_symmetry_Int_Tables_number   1
_chemical_formula_structural   H40C49(N2O)4
_chemical_formula_sum   'H120 C147 N24 O12'
_cell_volume   10183.34287552
_cell_formula_units_Z   3
loop_
 _symmetry_equiv_pos_site_id
 _symmetry_equiv_pos_as_xyz
  1  'x, y, z'
loop_
 _atom_site_type_symbol
 _atom_site_label
 _atom_site_symmetry_multiplicity
 _atom_site_fract_x
 _atom_site_fract_y
 _atom_site_fract_z
 _atom_site_occupancy
  C  1  1  0.99103800  0.81591300  0.95797700  1
  C  2  1  0.98217600  0.03749500  0.61833400  1
  C  13  1  0.97980050  0.94640550  0.93304600  1
  C  14  1  0.98116650  0.92961750  0.06992600  1
  C  16  1  0.98802800  0.43033100  0.66035300  1
  C  17  1  0.99197800  0.37717900  0.63688300  1
  C  29  1  0.97803650  0.85452350  0.67730200  1
  C  33  1  0.97141250  0.82022850  0.03174400  1
  C  34  1  0.97617950  0.06498650  0.47600600  1
  C  37  1  0.94937150  0.84631450  0.93674400  1
  C  38  1  0.96274050  0.01709150  0.26640600  1
  C  39  1  0.95943400  0.94555700  0.28499900  1
  C  41  1  0.95213000  0.98817900  0.53276000  1
  C  51  1  0.03176100  0.16172900  0.70859700  1
  C  58  1  0.06745150  0.88405050  0.97577000  1
  C  59  1  0.09419400  0.98407300  0.97229500  1
  C  60  1  0.05134300  0.01464100  0.95163700  1
  C  61  1  0.11534550  0.85563350  0.99936000  1
  C  62  1  0.07298650  0.87871850  0.02549700  1
  C  63  1  0.12611150  0.96513650  0.04193400  1
  C  64  1  0.08161300  0.98985300  0.06371900  1
  C  66  1  0.92666850  0.84415050  0.05362400  1
  C  68  1  0.09377900  0.74942100  0.99858200  1
  C  69  1  0.22752750  0.91249150  0.99744000  1
  C  70  1  0.28617450  0.91328050  0.02041700  1
  C  71  1  0.38915350  0.96125050  0.01876100  1
  C  72  1  0.43834400  0.00892200  0.99366600  1
  C  73  1  0.38123100  0.00503700  0.97020600  1
  C  74  1  0.27860150  0.95666050  0.97197000  1
  C  75  1  0.11135150  0.71065250  0.97353300  1
  C  76  1  0.10092050  0.61672950  0.97260600  1
  C  77  1  0.07479500  0.55754700  0.99704500  1
  C  78  1  0.05936900  0.59529300  0.02233800  1
  C  79  1  0.07001600  0.68939200  0.02309500  1
  C  95  1  0.54723350  0.05869650  0.99150900  1
  C  96  1  0.93666400  0.98060100  0.91094900  1
  C  97  1  0.93232750  0.95613050  0.09231000  1
  C  98  1  0.06999100  0.46089700  0.99611800  1
  C  107  1  0.89307600  0.04751900  0.27010100  1
  C  108  1  0.82096650  0.00580950  0.29132300  1
  C  109  1  0.81270550  0.92941650  0.30912200  1
  C  110  1  0.88599850  0.90269050  0.30565200  1
  C  111  1  0.73638400  0.88151600  0.33270700  1
  C  112  1  0.80182400  0.92392700  0.35884200  1
  C  113  1  0.83503400  0.87077400  0.37530100  1
  C  114  1  0.90429100  0.91528500  0.39707600  1
  C  115  1  0.94452400  0.01573500  0.40327900  1
  C  116  1  0.91355250  0.07023450  0.38697900  1
  C  117  1  0.84489500  0.02549000  0.36510000  1
  C  118  1  0.65171500  0.90303900  0.33191400  1
  C  119  1  0.68111950  0.76933950  0.33078300  1
  C  120  1  0.62321050  0.71069250  0.35375600  1
  C  121  1  0.56820750  0.60771250  0.35210400  1
  C  122  1  0.56665250  0.55852150  0.32700500  1
  C  123  1  0.61985000  0.61562900  0.30354000  1
  C  124  1  0.67415100  0.71825700  0.30531000  1
  C  125  1  0.59537400  0.88548400  0.30686800  1
  C  126  1  0.51188250  0.89591850  0.30594000  1
  C  127  1  0.47881350  0.92203050  0.33037700  1
  C  128  1  0.53196750  0.93741750  0.35567300  1
  C  129  1  0.61543400  0.92679200  0.35642800  1
  C  146  1  0.50753850  0.44962950  0.32485100  1
  C  147  1  0.04008050  0.06023550  0.24431100  1
  C  148  1  0.01988100  0.06457100  0.42566400  1
  C  149  1  0.38698900  0.92687000  0.32945100  1
  C  158  1  0.05039250  0.03412150  0.59975100  1
  C  159  1  0.15049150  0.10376650  0.60344200  1
  C  160  1  0.18091300  0.17589200  0.62465700  1
  C  161  1  0.11279900  0.18424300  0.64244200  1
  C  162  1  0.01277150  0.11097050  0.63897400  1
  C  163  1  0.14125650  0.26055250  0.66603100  1
  C  164  1  0.11822700  0.19515500  0.69217300  1
  C  165  1  0.00703750  0.09247950  0.73037300  1
  C  166  1  0.06730150  0.05230250  0.73657600  1
  C  167  1  0.15278900  0.08333600  0.72028000  1
  C  168  1  0.17670050  0.15203750  0.69841300  1
  C  169  1  0.24747050  0.34516450  0.66524000  1
  C  170  1  0.08438000  0.31585200  0.66412400  1
  C  171  1  0.08360350  0.37371650  0.68710300  1
  C  172  1  0.03564050  0.42873750  0.68545400  1
  C  175  1  0.04031700  0.32288800  0.63864900  1
  C  176  1  0.28621700  0.40152900  0.64019200  1
  C  177  1  0.38014600  0.48501600  0.63925100  1
  C  178  1  0.43932750  0.51813750  0.66368900  1
  C  179  1  0.40157900  0.46503200  0.68899100  1
  C  180  1  0.30749800  0.38155800  0.68975200  1
  C  195  1  0.93825700  0.48945300  0.65820300  1
  C  196  1  0.01617200  0.95674300  0.57766400  1
  C  197  1  0.04079400  0.97691000  0.75895000  1
  C  198  1  0.53600100  0.60995000  0.66274800  1
  C  205  1  0.08491050  0.02059150  0.80929400  1
  C  206  1  0.08850300  0.96453300  0.83214600  1
  C  207  1  0.06387750  0.97742950  0.85956100  1
  C  208  1  0.03215850  0.04464250  0.86604600  1
  C  209  1  0.02760250  0.09986650  0.84308900  1
  C  210  1  0.05422550  0.08847450  0.81581300  1
  C  213  1  0.11022900  0.87131600  0.85938600  1
  C  215  1  0.01655550  0.20090850  0.81633200  1
  C  217  1  0.13437300  0.79810700  0.86972000  1
  C  220  1  0.99946750  0.27931150  0.80638700  1
  C  227  1  0.93188750  0.91199850  0.14265200  1
  C  228  1  0.87221450  0.90837850  0.16550400  1
  C  229  1  0.90972200  0.93300400  0.19292000  1
  C  230  1  0.00865900  0.96474400  0.19940800  1
  C  231  1  0.06845100  0.96932000  0.17645500  1
  C  232  1  0.03045950  0.94270250  0.14917600  1
  C  235  1  0.75725100  0.88661800  0.19273800  1
  C  237  1  0.18057400  0.98041100  0.14970300  1
  C  239  1  0.65988700  0.86245300  0.20306800  1
  C  243  1  0.27608000  0.99752900  0.13976200  1
  C  252  1  0.03222400  0.12464400  0.49886000  1
  C  253  1  0.01932850  0.08711850  0.52627600  1
  C  254  1  0.89692500  0.92839800  0.50980000  1
  C  255  1  0.90831050  0.96641050  0.48252400  1
  C  258  1  0.12541600  0.23959300  0.52610200  1
  C  260  1  0.79590450  0.81629750  0.48304200  1
  C  262  1  0.19860700  0.33695100  0.53643600  1
  C  266  1  0.71751700  0.72080000  0.47309700  1
  C  274  1  0.69996800  0.20499600  0.00525800  1
  C  275  1  0.73397050  0.30320050  0.99689400  1
  C  276  1  0.83025950  0.36389650  0.98784900  1
  C  277  1  0.89956650  0.33235050  0.98700100  1
  C  278  1  0.86695950  0.23547150  0.99620100  1
  C  279  1  0.77044000  0.17443300  0.00504700  1
  C  282  1  0.75090450  0.44042450  0.98572800  1
  C  284  1  0.85055450  0.09816650  0.00655000  1
  C  286  1  0.72988850  0.52036550  0.98155100  1
  C  290  1  0.87246950  0.01877250  0.01063200  1
  C  297  1  0.50114300  0.29690400  0.33859500  1
  C  298  1  0.56534350  0.26290850  0.33022500  1
  C  299  1  0.52975250  0.16662150  0.32118100  1
  C  300  1  0.42889950  0.09730850  0.32033900  1
  C  301  1  0.36462800  0.12990500  0.32954700  1
  C  302  1  0.40011000  0.22642500  0.33839200  1
  C  305  1  0.68563150  0.24598450  0.31905000  1
  C  307  1  0.24372900  0.14630200  0.33990800  1
  C  309  1  0.78658600  0.26700600  0.31486600  1
  C  313  1  0.14242300  0.12438000  0.34399900  1
  C  321  1  0.79188400  0.49579900  0.67192800  1
  C  322  1  0.69369200  0.43158000  0.66355800  1
  C  323  1  0.63298700  0.46715100  0.65450500  1
  C  324  1  0.66451400  0.56799900  0.65365500  1
  C  325  1  0.76137300  0.63229000  0.66286200  1
  C  326  1  0.82242100  0.59682800  0.67171800  1
  C  329  1  0.55648950  0.31127350  0.65238700  1
  C  331  1  0.89865950  0.75320850  0.67321900  1
  C  333  1  0.47656600  0.21030900  0.64820700  1
  H  3  1  0.98249350  0.18385850  0.70411100  1
  H  4  1  0.99043100  0.88672800  0.58851600  1
  H  6  1  0.99679000  0.89259700  0.65705200  1
  H  15  1  0.98237000  0.02908800  0.10080700  1
  H  18  1  0.99372900  0.56609100  0.66153900  1
  H  27  1  0.96343700  0.74245200  0.96038000  1
  H  28  1  0.96782650  0.95395550  0.76744400  1
  H  40  1  0.96007100  0.11094000  0.65157900  1
  H  42  1  0.95377450  0.89185350  0.69180500  1
  H  49  1  0.96117800  0.37898400  0.61801300  1
  H  52  1  0.08776800  0.72832900  0.85920500  1
  H  53  1  0.04736950  0.34673150  0.81780700  1
  H  80  1  0.42813350  0.96055950  0.03596800  1
  H  81  1  0.25372500  0.87878700  0.03892600  1
  H  82  1  0.41382650  0.03585350  0.95133500  1
  H  83  1  0.24163800  0.95279300  0.95385300  1
  H  84  1  0.13353750  0.75180650  0.95548000  1
  H  85  1  0.11529400  0.59280900  0.95407300  1
  H  86  1  0.04335600  0.55576000  0.04067000  1
  H  87  1  0.06346250  0.71469950  0.04236400  1
  H  88  1  0.92810000  0.75941700  0.01986500  1
  H  89  1  0.85317650  0.80001150  0.05708200  1
  H  90  1  0.12292200  0.05361300  0.07464200  1
  H  91  1  0.19751050  0.01438150  0.03744400  1
  H  92  1  0.14683600  0.03678500  0.98490300  1
  H  93  1  0.89531300  0.79445600  0.92426200  1
  H  94  1  0.07379050  0.08762050  0.95006300  1
  H  99  1  0.57033500  0.08739100  0.97006500  1
  H  100  1  0.56840150  0.00321650  0.99482100  1
  H  101  1  0.87138950  0.96056950  0.08277800  1
  H  103  1  0.88692400  0.92059500  0.89708300  1
  H  104  1  0.89236600  0.00634000  0.92178700  1
  H  105  1  0.05726550  0.42723050  0.01708900  1
  H  106  1  0.14193450  0.47417450  0.98926500  1
  H  130  1  0.52851500  0.56873900  0.36930900  1
  H  131  1  0.62117350  0.74314150  0.37226500  1
  H  132  1  0.61809150  0.58302850  0.28467400  1
  H  133  1  0.70725800  0.75522100  0.28719400  1
  H  134  1  0.61435100  0.86331100  0.28881300  1
  H  135  1  0.47360200  0.88156400  0.28740500  1
  H  136  1  0.50848850  0.95348650  0.37400500  1
  H  137  1  0.64729800  0.93336800  0.37569600  1
  H  138  1  0.82736600  0.06879500  0.35322500  1
  H  139  1  0.94285700  0.14371400  0.39044900  1
  H  140  1  0.92680500  0.87399600  0.40798100  1
  H  141  1  0.81302400  0.79943000  0.37078100  1
  H  142  1  0.88607200  0.85005700  0.31826100  1
  H  143  1  0.77511000  0.03341500  0.29372400  1
  H  144  1  0.89524850  0.10154650  0.25761100  1
  H  145  1  0.00996300  0.92310600  0.28342400  1
  H  150  1  0.51310250  0.42652150  0.30340700  1
  H  151  1  0.43089500  0.42845800  0.32817400  1
  H  152  1  0.08525700  0.12551000  0.41612900  1
  H  153  1  0.04279700  0.01452600  0.43415600  1
  H  154  1  0.02980900  0.10996700  0.23044200  1
  H  155  1  0.11011100  0.10454300  0.25515000  1
  H  156  1  0.36605400  0.93960100  0.35042400  1
  H  157  1  0.32830800  0.85494000  0.32259500  1
  H  181  1  0.03634100  0.46840000  0.70266500  1
  H  182  1  0.11807500  0.37573000  0.70561200  1
  H  184  1  0.04419450  0.28981550  0.62052600  1
  H  185  1  0.24507900  0.38250400  0.62213700  1
  H  186  1  0.40405050  0.52326750  0.62071000  1
  H  187  1  0.44112800  0.48855200  0.70732000  1
  H  188  1  0.28221650  0.34971350  0.70902400  1
  H  189  1  0.23752850  0.16957550  0.68653600  1
  H  190  1  0.19694450  0.05399550  0.72373000  1
  H  191  1  0.94325450  0.06997050  0.74128800  1
  H  192  1  0.25437950  0.22170850  0.62706500  1
  H  193  1  0.20233900  0.10151000  0.59096900  1
  H  194  1  0.90918750  0.98699050  0.61675900  1
  H  199  1  0.90962550  0.48392950  0.63675500  1
  H  201  1  0.03638200  0.91156300  0.74940200  1
  H  202  1  0.07616400  0.96697200  0.56380000  1
  H  203  1  0.56967700  0.63092900  0.68371800  1
  H  204  1  0.52276350  0.66862450  0.65587900  1
  H  218  1  0.12313550  0.78791350  0.89252300  1
  H  219  1  0.21082050  0.82224850  0.86497500  1
  H  221  1  0.01430000  0.29216600  0.78378000  1
  H  222  1  0.92340250  0.25874550  0.81032700  1
  H  224  1  0.15683450  0.98133950  0.78113800  1
  H  226  1  0.00930650  0.12358950  0.89607200  1
  H  240  1  0.66091400  0.87368000  0.22587100  1
  H  241  1  0.60759700  0.78600100  0.19832200  1
  H  242  1  0.63670450  0.90904750  0.19255000  1
  H  244  1  0.27411850  0.98270450  0.11715600  1
  H  245  1  0.29560600  0.94963300  0.15118300  1
  H  246  1  0.33156050  0.07359550  0.14370500  1
  H  248  1  0.82073700  0.84004200  0.11449200  1
  H  250  1  0.11044750  0.98760650  0.22944000  1
  H  263  1  0.20879750  0.33590850  0.55924000  1
  H  264  1  0.17444900  0.38924300  0.53169000  1
  H  265  1  0.26839100  0.36013700  0.52592300  1
  H  267  1  0.70466200  0.72277400  0.45049000  1
  H  268  1  0.65009300  0.70126700  0.48451700  1
  H  269  1  0.73809750  0.66531450  0.47703700  1
  H  271  1  0.01540350  0.17615850  0.44785000  1
  H  273  1  0.87319350  0.88635650  0.56278100  1
  H  287  1  0.79463150  0.58636750  0.97399000  1
  H  288  1  0.70666900  0.53670000  0.00154800  1
  H  289  1  0.67129700  0.49813500  0.96606200  1
  H  291  1  0.80938100  0.95368600  0.01933400  1
  H  292  1  0.93403250  0.04300650  0.02514400  1
  H  293  1  0.89182300  0.00004100  0.99038500  1
  H  295  1  0.56345150  0.17700050  0.01484800  1
  H  296  1  0.01787150  0.35264350  0.96511100  1
  H  310  1  0.78784500  0.20226500  0.30730400  1
  H  311  1  0.82615500  0.29022900  0.33486100  1
  H  312  1  0.82293300  0.32559600  0.29937600  1
  H  314  1  0.14042750  0.18746850  0.35270300  1
  H  315  1  0.10510900  0.06281800  0.35851000  1
  H  316  1  0.10432100  0.10502200  0.32375400  1
  H  318  1  0.60966250  0.43342950  0.34817800  1
  H  320  1  0.33090700  0.97902600  0.29843900  1
  H  334  1  0.41055850  0.20903150  0.64064000  1
  H  335  1  0.46022000  0.17075800  0.66820700  1
  H  336  1  0.49881800  0.17395300  0.63272300  1
  H  337  1  0.04311800  0.85653900  0.68601400  1
  H  339  1  0.81991200  0.38729600  0.68151500  1
  H  341  1  0.64421550  0.66593350  0.63172500  1
  N  5  1  0.99423950  0.39386750  0.97572600  1
  N  19  1  0.98031750  0.10099050  0.44826400  1
  N  211  1  0.07871150  0.91833950  0.87631600  1
  N  214  1  0.04710300  0.15309400  0.79938500  1
  N  223  1  0.11677500  0.01644600  0.78155200  1
  N  225  1  0.01610750  0.06227950  0.89444300  1
  N  233  1  0.83578550  0.91814950  0.20967000  1
  N  236  1  0.10221700  0.94985100  0.13275200  1
  N  247  1  0.89590300  0.88013600  0.11490800  1
  N  249  1  0.04233100  0.98079600  0.22780800  1
  N  256  1  0.07840250  0.16104550  0.54303000  1
  N  259  1  0.84370550  0.89466350  0.46609700  1
  N  272  1  0.93448700  0.95448300  0.56115500  1
  N  280  1  0.83918950  0.44973250  0.98091400  1
  N  283  1  0.76204900  0.08836700  0.01146500  1
  N  294  1  0.60029350  0.13905250  0.01249500  1
  N  303  1  0.60665600  0.15769800  0.31423900  1
  N  306  1  0.32243600  0.23481100  0.34481700  1
  N  317  1  0.53486950  0.39658050  0.34583400  1
  N  319  1  0.39574300  0.00264100  0.30906000  1
  N  327  1  0.54716550  0.39023450  0.64756600  1
  N  330  1  0.90847300  0.67451700  0.67813900  1
  N  338  1  0.85784150  0.46209050  0.67917500  1
  N  340  1  0.60299700  0.60113200  0.64236500  1
  O  212  1  0.11841100  0.89715400  0.83141200  1
  O  216  1  0.00352450  0.17158050  0.84404800  1
  O  234  1  0.77492650  0.87844750  0.16476400  1
  O  238  1  0.16425150  0.99342250  0.17741700  1
  O  257  1  0.09958450  0.22193450  0.49812600  1
  O  261  1  0.82522600  0.83260200  0.51076000  1
  O  281  1  0.68133250  0.35010450  0.99546600  1
  O  285  1  0.91957900  0.18851200  0.99672100  1
  O  304  1  0.66488500  0.31555200  0.32879200  1
  O  308  1  0.26504800  0.07728100  0.33007300  1
  O  328  1  0.64680500  0.33203800  0.66213100  1
  O  332  1  0.80831750  0.73186950  0.66338000  1
