# generated using pymatgen
data_Cu2H3W6C5N2O17
_symmetry_space_group_name_H-M   'P 1'
_cell_length_a   12.88927000
_cell_length_b   13.44270000
_cell_length_c   13.53403000
_cell_angle_alpha   63.78286000
_cell_angle_beta   61.63662000
_cell_angle_gamma   84.01619000
_symmetry_Int_Tables_number   1
_chemical_formula_structural   Cu2H3W6C5N2O17
_chemical_formula_sum   'Cu4 H6 W12 C10 N4 O34'
_cell_volume   1834.56130861
_cell_formula_units_Z   2
loop_
 _symmetry_equiv_pos_site_id
 _symmetry_equiv_pos_as_xyz
  1  'x, y, z'
loop_
 _atom_site_type_symbol
 _atom_site_label
 _atom_site_symmetry_multiplicity
 _atom_site_fract_x
 _atom_site_fract_y
 _atom_site_fract_z
 _atom_site_occupancy
  Cu  Cu0  1  0.91616000  0.07042000  0.96570000  1
  Cu  Cu1  1  0.08558000  0.93318000  0.03241000  1
  Cu  Cu2  1  0.00025000  0.49799000  0.50090000  1
  Cu  Cu3  1  0.49981000  0.49983000  0.00025000  1
  H  H4  1  0.94836000  0.45637000  0.75877000  1
  H  H5  1  0.73830000  0.52081000  0.57955000  1
  H  H6  1  0.76227000  0.45152000  0.95396000  1
  H  H7  1  0.05174000  0.54353000  0.24130000  1
  H  H8  1  0.26168000  0.47934000  0.42034000  1
  H  H9  1  0.23778000  0.54827000  0.04613000  1
  W  W10  1  0.88639000  0.26196000  0.52934000  1
  W  W11  1  0.97580000  0.73066000  0.77285000  1
  W  W12  1  0.83150000  0.95487000  0.73378000  1
  W  W13  1  0.98845000  0.17595000  0.73414000  1
  W  W14  1  0.88513000  0.02419000  0.27692000  1
  W  W15  1  0.84429000  0.83933000  0.59574000  1
  W  W16  1  0.11135000  0.73886000  0.47340000  1
  W  W17  1  0.02917000  0.25527000  0.24138000  1
  W  W18  1  0.16846000  0.05247000  0.27560000  1
  W  W19  1  0.00986000  0.82647000  0.26517000  1
  W  W20  1  0.12105000  0.97968000  0.71624000  1
  W  W21  1  0.14902000  0.14880000  0.40871000  1
  C  C22  1  0.86090000  0.46896000  0.76295000  1
  C  C23  1  0.74740000  0.50743000  0.66073000  1
  C  C24  1  0.64752000  0.50781000  0.76562000  1
  C  C25  1  0.76038000  0.46643000  0.86890000  1
  C  C26  1  0.52500000  0.53372000  0.77199000  1
  C  C27  1  0.13934000  0.53153000  0.23698000  1
  C  C28  1  0.25286000  0.49333000  0.33887000  1
  C  C29  1  0.35220000  0.49197000  0.23461000  1
  C  C30  1  0.23936000  0.53305000  0.13150000  1
  C  C31  1  0.47493000  0.46622000  0.22806000  1
  N  N32  1  0.85402000  0.49000000  0.65888000  1
  N  N33  1  0.65654000  0.48693000  0.86824000  1
  N  N34  1  0.14637000  0.51192000  0.34041000  1
  N  N35  1  0.34360000  0.51302000  0.13178000  1
  O  O36  1  0.88759000  0.40578000  0.48647000  1
  O  O37  1  0.81464000  0.09850000  0.63691000  1
  O  O38  1  0.87577000  0.70487000  0.72642000  1
  O  O39  1  0.82096000  0.94709000  0.46796000  1
  O  O40  1  0.72034000  0.86744000  0.73869000  1
  O  O41  1  0.87009000  0.81284000  0.84700000  1
  O  O42  1  0.03993000  0.22948000  0.51103000  1
  O  O43  1  0.09884000  0.83501000  0.73374000  1
  O  O44  1  0.85020000  0.82754000  0.34251000  1
  O  O45  1  0.96746000  0.02993000  0.74319000  1
  O  O46  1  0.95256000  0.91629000  0.60327000  1
  O  O47  1  0.86518000  0.23537000  0.70285000  1
  O  O48  1  0.89231000  0.26459000  0.38949000  1
  O  O49  1  0.87537000  0.05178000  0.14589000  1
  O  O50  1  0.44492000  0.53568000  0.87673000  1
  O  O51  1  0.51224000  0.55097000  0.68194000  1
  O  O52  1  0.86892000  0.92692000  0.02045000  1
  O  O53  1  0.11483000  0.59836000  0.51152000  1
  O  O54  1  0.18289000  0.90369000  0.36195000  1
  O  O55  1  0.13958000  0.30959000  0.25843000  1
  O  O56  1  0.18903000  0.04994000  0.52833000  1
  O  O57  1  0.28695000  0.13660000  0.26071000  1
  O  O58  1  0.13374000  0.17912000  0.14985000  1
  O  O59  1  0.95956000  0.77150000  0.48313000  1
  O  O60  1  0.89313000  0.16088000  0.27068000  1
  O  O61  1  0.14615000  0.16715000  0.66391000  1
  O  O62  1  0.02991000  0.96928000  0.25861000  1
  O  O63  1  0.03006000  0.09329000  0.38984000  1
  O  O64  1  0.13461000  0.76436000  0.29154000  1
  O  O65  1  0.10068000  0.73448000  0.61994000  1
  O  O66  1  0.12382000  0.94234000  0.85465000  1
  O  O67  1  0.55528000  0.46458000  0.12304000  1
  O  O68  1  0.48793000  0.44926000  0.31784000  1
  O  O69  1  0.13114000  0.07456000  0.97960000  1
