# generated using pymatgen
data_H16C22N3O
_symmetry_space_group_name_H-M   'P 1'
_cell_length_a   33.78540000
_cell_length_b   56.10590000
_cell_length_c   56.10590000
_cell_angle_alpha   90.00000000
_cell_angle_beta   90.00000000
_cell_angle_gamma   90.00000000
_symmetry_Int_Tables_number   1
_chemical_formula_structural   H16C22N3O
_chemical_formula_sum   'H192 C264 N36 O12'
_cell_volume   106352.11516916
_cell_formula_units_Z   12
loop_
 _symmetry_equiv_pos_site_id
 _symmetry_equiv_pos_as_xyz
  1  'x, y, z'
loop_
 _atom_site_type_symbol
 _atom_site_label
 _atom_site_symmetry_multiplicity
 _atom_site_fract_x
 _atom_site_fract_y
 _atom_site_fract_z
 _atom_site_occupancy
  H  31  1  0.77980200  0.31464200  0.29884200  1
  H  32  1  0.84315200  0.32239500  0.28095800  1
  H  33  1  0.83559600  0.27854100  0.35544000  1
  H  34  1  0.89912000  0.28631400  0.33789600  1
  H  35  1  0.94341200  0.35561300  0.25247600  1
  H  36  1  0.99721900  0.31843000  0.30896700  1
  H  37  1  0.06749800  0.35426400  0.25852700  1
  H  38  1  0.11364400  0.28601100  0.32126000  1
  H  39  1  0.93757200  0.40640300  0.19538700  1
  H  40  1  0.94717700  0.43814600  0.16755600  1
  H  41  1  0.06448400  0.44656100  0.19173000  1
  H  42  1  0.05496800  0.41507700  0.21976600  1
  H  43  1  0.17375200  0.27590100  0.34194900  1
  H  44  1  0.23528700  0.32858500  0.30336500  1
  H  45  1  0.17553400  0.33883200  0.28253700  1
  H  46  1  0.96647500  0.39530200  0.23915600  1
  H  47  1  0.03297200  0.36817300  0.22147600  1
  H  48  1  0.93283600  0.29570100  0.29674600  1
  H  49  1  0.90894100  0.34497600  0.29246800  1
  H  50  1  0.10642500  0.31814100  0.26977900  1
  H  51  1  0.07022600  0.32863500  0.31528200  1
  H  53  1  0.02751700  0.47778700  0.17089400  1
  H  55  1  0.75213600  0.30731000  0.34344000  1
  H  57  1  0.24125900  0.29807700  0.35423900  1
  H  88  1  0.77924000  0.71895800  0.83041500  1
  H  89  1  0.84232900  0.71117800  0.84867100  1
  H  90  1  0.83550100  0.75806800  0.77602300  1
  H  91  1  0.89873800  0.75036100  0.79399100  1
  H  92  1  0.94315400  0.67757700  0.87603000  1
  H  93  1  0.99775800  0.72159200  0.82498600  1
  H  94  1  0.06663700  0.68746900  0.87726000  1
  H  95  1  0.11406600  0.73713400  0.79925800  1
  H  96  1  0.93848300  0.62903500  0.93542700  1
  H  97  1  0.94875400  0.59730400  0.96326500  1
  H  98  1  0.06566900  0.58912100  0.93834800  1
  H  99  1  0.05558900  0.62067400  0.91043500  1
  H  100  1  0.17404500  0.75703000  0.78753300  1
  H  101  1  0.23597200  0.72237300  0.84270400  1
  H  102  1  0.17631700  0.70246900  0.85469000  1
  H  103  1  0.96814400  0.63975000  0.89085700  1
  H  104  1  0.03106300  0.66845500  0.91061800  1
  H  105  1  0.93029600  0.74025700  0.83615200  1
  H  106  1  0.91094200  0.69006400  0.83597700  1
  H  107  1  0.10721100  0.68884000  0.83837300  1
  H  108  1  0.06893300  0.73492400  0.83826900  1
  H  110  1  0.02843500  0.55763600  0.95891400  1
  H  112  1  0.75240300  0.72804800  0.78598400  1
  H  114  1  0.24096300  0.77124600  0.80958600  1
  H  145  1  0.27930900  0.78276600  0.36377200  1
  H  146  1  0.34241200  0.80100100  0.37156100  1
  H  147  1  0.33552100  0.72841800  0.32457200  1
  H  148  1  0.39877600  0.74636700  0.33229100  1
  H  149  1  0.44304700  0.82805100  0.40542600  1
  H  150  1  0.49787800  0.77738300  0.36108100  1
  H  151  1  0.56652100  0.82955400  0.39555900  1
  H  152  1  0.61409400  0.75171200  0.34563400  1
  H  153  1  0.43727500  0.88620600  0.45461800  1
  H  154  1  0.44680900  0.91417900  0.48627500  1
  H  155  1  0.56499000  0.89125000  0.49371600  1
  H  156  1  0.55558700  0.86312100  0.46226100  1
  H  157  1  0.67406700  0.74001400  0.32571800  1
  H  158  1  0.73598200  0.79518100  0.36039500  1
  H  159  1  0.67632800  0.80713900  0.38032000  1
  H  160  1  0.46846900  0.84227400  0.44354800  1
  H  161  1  0.53036000  0.86289400  0.41462100  1
  H  162  1  0.43032200  0.78858100  0.34248400  1
  H  163  1  0.41100600  0.78805400  0.39268400  1
  H  164  1  0.60721900  0.79069500  0.39397400  1
  H  165  1  0.56900400  0.79080900  0.34786900  1
  H  167  1  0.52790900  0.91168400  0.52529200  1
  H  169  1  0.25245000  0.73835800  0.35463100  1
  H  171  1  0.74097200  0.76207600  0.31150900  1
  H  202  1  0.27926000  0.25210000  0.76645200  1
  H  203  1  0.34234100  0.23381800  0.75872000  1
  H  204  1  0.33551200  0.30650400  0.80555600  1
  H  205  1  0.39875000  0.28851100  0.79789000  1
  H  206  1  0.44310900  0.20639000  0.72521900  1
  H  207  1  0.49773600  0.25752500  0.76911800  1
  H  208  1  0.56659500  0.20516000  0.73511600  1
  H  209  1  0.61398200  0.28328200  0.78461000  1
  H  210  1  0.43862500  0.14670400  0.67696000  1
  H  211  1  0.44893400  0.11885000  0.64525100  1
  H  212  1  0.56554400  0.14419200  0.63670100  1
  H  213  1  0.55540300  0.17212200  0.66822900  1
  H  214  1  0.67396400  0.29500400  0.80450100  1
  H  215  1  0.73586000  0.23978900  0.76988600  1
  H  216  1  0.67619800  0.22780500  0.74998800  1
  H  217  1  0.46809600  0.19149700  0.68742400  1
  H  218  1  0.53101100  0.17177100  0.71615800  1
  H  219  1  0.43028700  0.24633800  0.78781800  1
  H  220  1  0.41093500  0.24649600  0.73762100  1
  H  221  1  0.60707100  0.24415400  0.73635200  1
  H  222  1  0.56893600  0.24419300  0.78248600  1
  H  224  1  0.52835900  0.12345900  0.60536200  1
  H  226  1  0.25242100  0.29652300  0.77552600  1
  H  228  1  0.74085300  0.27294600  0.81873100  1
  H  259  1  0.22592000  0.71736400  0.29865300  1
  H  260  1  0.16314400  0.69927500  0.28954000  1
  H  261  1  0.16816900  0.77019100  0.33911400  1
  H  262  1  0.10526200  0.75229800  0.33018400  1
  H  263  1  0.06140000  0.68210200  0.24666700  1
  H  264  1  0.00736100  0.72035500  0.30245500  1
  H  265  1  0.93852800  0.67691600  0.25744900  1
  H  266  1  0.89181200  0.74735400  0.31794100  1
  H  267  1  0.07291100  0.61724500  0.20703300  1
  H  268  1  0.06924900  0.58974100  0.17458600  1
  H  269  1  0.94690700  0.60287900  0.16809200  1
  H  270  1  0.95013900  0.63031100  0.20068300  1
  H  271  1  0.83234300  0.75792900  0.33904400  1
  H  272  1  0.77008500  0.70374400  0.30305500  1
  H  273  1  0.82920500  0.69301000  0.28183300  1
  H  274  1  0.03266100  0.63635000  0.23996400  1
  H  275  1  0.97799200  0.66824600  0.21652800  1
  H  276  1  0.07524000  0.70896200  0.31764500  1
  H  277  1  0.09391900  0.71703800  0.26801100  1
  H  278  1  0.89725500  0.71323300  0.26740500  1
  H  279  1  0.93660100  0.70598600  0.31259800  1
  H  281  1  0.98779200  0.58020900  0.13712300  1
  H  283  1  0.25181300  0.76145800  0.30907200  1
  H  285  1  0.76543500  0.73599900  0.35290400  1
  H  316  1  0.22588300  0.31758500  0.83148200  1
  H  317  1  0.16308100  0.33565600  0.84057000  1
  H  318  1  0.16820600  0.26468000  0.79108700  1
  H  319  1  0.10527400  0.28255500  0.79999000  1
  H  320  1  0.06138500  0.35272700  0.88345400  1
  H  321  1  0.00730400  0.31446400  0.82768600  1
  H  322  1  0.93850100  0.35790700  0.87272000  1
  H  323  1  0.89167300  0.28751300  0.81222800  1
  H  324  1  0.07211200  0.41891300  0.92149600  1
  H  325  1  0.06880900  0.44657800  0.95383100  1
  H  326  1  0.94759400  0.43132100  0.96281400  1
  H  327  1  0.95037900  0.40379500  0.93024900  1
  H  328  1  0.83216800  0.27700800  0.79112600  1
  H  329  1  0.77006700  0.33123900  0.82714900  1
  H  330  1  0.82922600  0.34190300  0.84837200  1
  H  331  1  0.03144500  0.39884400  0.88955500  1
  H  332  1  0.97872000  0.36638000  0.91382600  1
  H  333  1  0.07522600  0.32594000  0.81249000  1
  H  334  1  0.09386100  0.31775600  0.86211700  1
  H  335  1  0.89723500  0.32159500  0.86277500  1
  H  336  1  0.93652400  0.32886500  0.81756400  1
  H  338  1  0.99053900  0.45462400  0.99323700  1
  H  340  1  0.25183100  0.27349700  0.82112300  1
  H  342  1  0.76529600  0.29898100  0.77730300  1
  H  373  1  0.72577900  0.25222100  0.36656200  1
  H  374  1  0.66258600  0.24326700  0.38416100  1
  H  375  1  0.66906200  0.28983600  0.31129100  1
  H  376  1  0.60573000  0.28100800  0.32864300  1
  H  377  1  0.56220200  0.20062400  0.40315000  1
  H  378  1  0.50808400  0.25046400  0.35751500  1
  H  379  1  0.43812200  0.20438100  0.39905400  1
  H  380  1  0.39211400  0.28091300  0.34631400  1
  H  381  1  0.57075000  0.16197500  0.46725700  1
  H  382  1  0.56801200  0.12963900  0.49495100  1
  H  383  1  0.44771200  0.11871800  0.47837200  1
  H  384  1  0.44996400  0.15123900  0.45075100  1
  H  385  1  0.33192200  0.29250600  0.32655200  1
  H  386  1  0.26962600  0.23893700  0.36342000  1
  H  387  1  0.32947700  0.22711700  0.38322900  1
  H  388  1  0.52877600  0.19330600  0.44664600  1
  H  389  1  0.48045100  0.16710600  0.41322900  1
  H  390  1  0.57299400  0.26947900  0.37072400  1
  H  391  1  0.59667300  0.22007100  0.36782200  1
  H  392  1  0.39975000  0.24371600  0.39569800  1
  H  393  1  0.43501400  0.24022900  0.34888600  1
  H  395  1  0.49101700  0.08908200  0.50225500  1
  H  397  1  0.75286800  0.26081500  0.32231500  1
  H  399  1  0.26430900  0.27049000  0.31353700  1
  H  430  1  0.72594800  0.78403600  0.76489800  1
  H  431  1  0.66320400  0.79317100  0.74677600  1
  H  432  1  0.66807900  0.74364100  0.81772600  1
  H  433  1  0.60520900  0.75258900  0.79979900  1
  H  434  1  0.56138500  0.83605900  0.72953600  1
  H  435  1  0.50738500  0.78028100  0.76781900  1
  H  436  1  0.43851500  0.82526400  0.72438000  1
  H  437  1  0.39181800  0.76481200  0.79484600  1
  H  438  1  0.57308000  0.87613200  0.66511800  1
  H  439  1  0.56932100  0.90859900  0.63762900  1
  H  440  1  0.44667900  0.91434300  0.65006100  1
  H  441  1  0.45000300  0.88173200  0.67747700  1
  H  442  1  0.33234800  0.74371800  0.80543700  1
  H  443  1  0.27007600  0.77968700  0.75124500  1
  H  444  1  0.32919600  0.80090100  0.74049400  1
  H  445  1  0.53292000  0.84289500  0.68389200  1
  H  446  1  0.47776900  0.86613300  0.71563200  1
  H  447  1  0.57524300  0.76509200  0.75645800  1
  H  448  1  0.59394400  0.81473200  0.76446100  1
  H  449  1  0.39725800  0.81533400  0.76068600  1
  H  450  1  0.43660300  0.77013400  0.75349200  1
  H  452  1  0.48738000  0.94555900  0.62765200  1
  H  454  1  0.75177500  0.77364000  0.80901200  1
  H  456  1  0.26543100  0.72985000  0.78351400  1
  C  1  1  0.80204000  0.29586300  0.32873500  1
  C  2  1  0.80488100  0.30864100  0.30709800  1
  C  3  1  0.84207500  0.31325200  0.29673300  1
  C  4  1  0.87734200  0.30535400  0.30785900  1
  C  5  1  0.87424800  0.29236300  0.32939600  1
  C  6  1  0.83704900  0.28779100  0.33975400  1
  C  7  1  0.91445800  0.30951600  0.29793300  1
  C  8  1  0.92728000  0.33115600  0.29103300  1
  C  9  1  0.96475200  0.33573300  0.28176200  1
  C  10  1  0.99959300  0.32821800  0.29360000  1
  C  11  1  0.03762100  0.33428000  0.28493800  1
  C  12  1  0.04018700  0.34887700  0.26440700  1
  C  13  1  0.00600700  0.35694100  0.25226900  1
  C  14  1  0.96848500  0.34999700  0.26109700  1
  C  15  1  0.01041900  0.37163800  0.23237800  1
  C  16  1  0.98840400  0.39116500  0.22807400  1
  C  17  1  0.99579500  0.40706000  0.20964400  1
  C  18  1  0.96500700  0.41405100  0.19408100  1
  C  19  1  0.03257300  0.41897000  0.20809900  1
  C  20  1  0.03813000  0.43756900  0.19164300  1
  C  21  1  0.00741900  0.44473400  0.17605800  1
  C  22  1  0.97083800  0.43250700  0.17741300  1
  C  23  1  0.07131000  0.32739700  0.29758700  1
  C  24  1  0.10484500  0.31931600  0.28744700  1
  C  25  1  0.13879100  0.31360100  0.30015900  1
  C  26  1  0.13899200  0.29525700  0.31746000  1
  C  27  1  0.17464800  0.32558600  0.29508600  1
  C  28  1  0.20971500  0.31963600  0.30726900  1
  C  29  1  0.20987900  0.30136700  0.32450900  1
  C  30  1  0.17417000  0.28922800  0.32951900  1
  C  58  1  0.80174100  0.73922500  0.80158200  1
  C  59  1  0.80436600  0.72554200  0.82267400  1
  C  60  1  0.84139400  0.72091300  0.83324900  1
  C  61  1  0.87667900  0.72973700  0.82288200  1
  C  62  1  0.87382800  0.74357500  0.80187400  1
  C  63  1  0.83680300  0.74812600  0.79128500  1
  C  64  1  0.91347900  0.72596900  0.83331800  1
  C  65  1  0.92786000  0.70430100  0.83889300  1
  C  66  1  0.96489100  0.70035200  0.84908600  1
  C  67  1  0.99974400  0.71061500  0.83954700  1
  C  68  1  0.03733200  0.70590600  0.84957700  1
  C  69  1  0.03957500  0.69063400  0.86960500  1
  C  70  1  0.00547700  0.67968700  0.87936300  1
  C  71  1  0.96830100  0.68489500  0.86890400  1
  C  72  1  0.00963900  0.66460900  0.89903300  1
  C  73  1  0.98892500  0.64441100  0.90250900  1
  C  74  1  0.99650300  0.62849300  0.92087400  1
  C  75  1  0.96599200  0.62146900  0.93661700  1
  C  76  1  0.03339200  0.61669800  0.92221400  1
  C  77  1  0.03929500  0.59809000  0.93861000  1
  C  78  1  0.00885600  0.59086100  0.95435500  1
  C  79  1  0.97219300  0.60301600  0.95325400  1
  C  80  1  0.07079800  0.71738200  0.84069000  1
  C  81  1  0.10515400  0.70632400  0.83562300  1
  C  82  1  0.13930600  0.71807200  0.82828500  1
  C  83  1  0.13950000  0.73389200  0.80862600  1
  C  84  1  0.17534600  0.71384200  0.84042400  1
  C  85  1  0.21040000  0.72548100  0.83345000  1
  C  86  1  0.21040300  0.74141000  0.81403300  1
  C  87  1  0.17462900  0.74547400  0.80162300  1
  C  115  1  0.30179000  0.75395800  0.34346300  1
  C  116  1  0.30442800  0.77503000  0.35716900  1
  C  117  1  0.34145900  0.78559400  0.36180100  1
  C  118  1  0.37673100  0.77523200  0.35295700  1
  C  119  1  0.37387200  0.75424300  0.33909100  1
  C  120  1  0.33683800  0.74366800  0.33453300  1
  C  121  1  0.41353100  0.78564900  0.35676100  1
  C  122  1  0.42791600  0.79107700  0.37846300  1
  C  123  1  0.46490800  0.80128900  0.38247800  1
  C  124  1  0.49980200  0.79187700  0.37215100  1
  C  125  1  0.53734200  0.80194000  0.37693000  1
  C  126  1  0.53950000  0.82187200  0.39233300  1
  C  127  1  0.50535200  0.83148600  0.40334200  1
  C  128  1  0.46822400  0.82101100  0.39805800  1
  C  129  1  0.50934200  0.85106700  0.41853900  1
  C  130  1  0.48884500  0.85417900  0.43887300  1
  C  131  1  0.49592500  0.87258800  0.45481800  1
  C  132  1  0.46482900  0.88781000  0.46205100  1
  C  133  1  0.53292900  0.87451700  0.46639800  1
  C  134  1  0.53842300  0.89103000  0.48495800  1
  C  135  1  0.50743000  0.90630500  0.49235100  1
  C  136  1  0.47060300  0.90454800  0.48045000  1
  C  137  1  0.57084500  0.79315500  0.36542100  1
  C  138  1  0.60518500  0.78803800  0.37647500  1
  C  139  1  0.63933000  0.78073400  0.36470600  1
  C  140  1  0.63952300  0.76108500  0.34887400  1
  C  141  1  0.67536100  0.79288200  0.36893600  1
  C  142  1  0.71041100  0.78592400  0.35728500  1
  C  143  1  0.71041400  0.76651200  0.34134900  1
  C  144  1  0.67464700  0.75409800  0.33728000  1
  C  172  1  0.30176700  0.28094200  0.78670600  1
  C  173  1  0.30438600  0.25984100  0.77303900  1
  C  174  1  0.34140500  0.24924800  0.76844100  1
  C  175  1  0.37668100  0.25960900  0.77728300  1
  C  176  1  0.37383900  0.28063300  0.79109600  1
  C  177  1  0.33681700  0.29123700  0.79562000  1
  C  178  1  0.41347200  0.24916300  0.77352900  1
  C  179  1  0.42785100  0.24358900  0.75186100  1
  C  180  1  0.46486700  0.23338300  0.74792600  1
  C  181  1  0.49971600  0.24293900  0.75817500  1
  C  182  1  0.53729200  0.23288400  0.75349200  1
  C  183  1  0.53953300  0.21282200  0.73826900  1
  C  184  1  0.50543200  0.20304600  0.72734200  1
  C  185  1  0.46826200  0.21352100  0.73252700  1
  C  186  1  0.50959400  0.18335700  0.71229700  1
  C  187  1  0.48884200  0.17983700  0.69212300  1
  C  188  1  0.49648100  0.16147600  0.67621700  1
  C  189  1  0.46606900  0.14561900  0.66929400  1
  C  190  1  0.53329600  0.16025800  0.66432500  1
  C  191  1  0.53922500  0.14385600  0.64572700  1
  C  192  1  0.50889500  0.12797900  0.63861900  1
  C  193  1  0.47230800  0.12897500  0.65085600  1
  C  194  1  0.57075300  0.24179300  0.76494000  1
  C  195  1  0.60505800  0.24689400  0.75384200  1
  C  196  1  0.63921800  0.25424000  0.76556400  1
  C  197  1  0.63941300  0.27390900  0.78137200  1
  C  198  1  0.67524200  0.24208800  0.76133800  1
  C  199  1  0.71029300  0.24905400  0.77298400  1
  C  200  1  0.71029900  0.26848100  0.78889900  1
  C  201  1  0.67453800  0.28090600  0.79295500  1
  C  229  1  0.20264100  0.74536700  0.31975400  1
  C  230  1  0.20057500  0.72471600  0.30537900  1
  C  231  1  0.16376300  0.71423600  0.29998100  1
  C  232  1  0.12820400  0.72422300  0.30880900  1
  C  233  1  0.13045000  0.74469100  0.32345800  1
  C  234  1  0.16726700  0.75521900  0.32872100  1
  C  235  1  0.09163900  0.71406200  0.30383200  1
  C  236  1  0.07711300  0.71175200  0.28161000  1
  C  237  1  0.04022300  0.70205900  0.27605100  1
  C  238  1  0.00542100  0.70853600  0.28856700  1
  C  239  1  0.96780100  0.69967100  0.28187900  1
  C  240  1  0.96547100  0.68376400  0.26233600  1
  C  241  1  0.99957800  0.67707300  0.24939400  1
  C  242  1  0.03665900  0.68650700  0.25630600  1
  C  243  1  0.99590800  0.66259600  0.22940700  1
  C  244  1  0.01472800  0.64160600  0.22688300  1
  C  245  1  0.01199000  0.62680700  0.20695100  1
  C  246  1  0.04612900  0.61461200  0.19889500  1
  C  247  1  0.97572700  0.62232800  0.19507600  1
  C  248  1  0.97374700  0.60620300  0.17585400  1
  C  249  1  0.00767100  0.59354100  0.16831100  1
  C  250  1  0.04402900  0.59835400  0.17983700  1
  C  251  1  0.93434300  0.70618700  0.29490300  1
  C  252  1  0.89980400  0.71300800  0.28507300  1
  C  253  1  0.86630100  0.71892600  0.29813800  1
  C  254  1  0.86647300  0.73785600  0.31480600  1
  C  255  1  0.83040100  0.70665600  0.29393500  1
  C  256  1  0.79569700  0.71289200  0.30635100  1
  C  257  1  0.79591600  0.73174400  0.32295000  1
  C  258  1  0.83165600  0.74416900  0.32709900  1
  C  286  1  0.20264000  0.28954700  0.81041500  1
  C  287  1  0.20054900  0.31021100  0.82476600  1
  C  288  1  0.16372300  0.32068400  0.83014700  1
  C  289  1  0.12818200  0.31066900  0.82132500  1
  C  290  1  0.13045200  0.29018300  0.80670400  1
  C  291  1  0.16728300  0.27966400  0.80145900  1
  C  292  1  0.09160600  0.32080700  0.82629900  1
  C  293  1  0.07706400  0.32306600  0.84852300  1
  C  294  1  0.04017900  0.33275300  0.85408800  1
  C  295  1  0.00536800  0.32627000  0.84158100  1
  C  296  1  0.96775600  0.33514600  0.84827500  1
  C  297  1  0.96543300  0.35105000  0.86782100  1
  C  298  1  0.99955700  0.35772700  0.88074800  1
  C  299  1  0.03663600  0.34830900  0.87382700  1
  C  300  1  0.99596700  0.37222400  0.90070700  1
  C  301  1  0.01415300  0.39345000  0.90289400  1
  C  302  1  0.01169700  0.40830100  0.92279700  1
  C  303  1  0.04565900  0.42111600  0.93013700  1
  C  304  1  0.97586600  0.41223100  0.93533400  1
  C  305  1  0.97412600  0.42840900  0.95452100  1
  C  306  1  0.00785200  0.44163900  0.96134200  1
  C  307  1  0.04379000  0.43744400  0.94913800  1
  C  308  1  0.93429200  0.32864300  0.83526100  1
  C  309  1  0.89976000  0.32183200  0.84510600  1
  C  310  1  0.86623600  0.31595000  0.83205300  1
  C  311  1  0.86636000  0.29704000  0.81536500  1
  C  312  1  0.83037700  0.32826300  0.83626100  1
  C  313  1  0.79565500  0.32206700  0.82384700  1
  C  314  1  0.79582100  0.30322500  0.80723700  1
  C  315  1  0.83152600  0.29077000  0.80307200  1
  C  343  1  0.70305900  0.27190900  0.33739200  1
  C  344  1  0.70056400  0.25843100  0.35862000  1
  C  345  1  0.66349700  0.25313000  0.36882000  1
  C  346  1  0.62807700  0.26113600  0.35797300  1
  C  347  1  0.63078200  0.27495700  0.33695000  1
  C  348  1  0.66785700  0.28014000  0.32671600  1
  C  349  1  0.59113500  0.25587800  0.36754700  1
  C  350  1  0.57828900  0.23349200  0.37137400  1
  C  351  1  0.54087000  0.22747500  0.37998100  1
  C  352  1  0.50589100  0.23765200  0.37047900  1
  C  353  1  0.46791900  0.22984400  0.37773700  1
  C  354  1  0.46536100  0.21101100  0.39446400  1
  C  355  1  0.49967800  0.20049000  0.40430100  1
  C  356  1  0.53718200  0.20881700  0.39680800  1
  C  357  1  0.49619700  0.18082600  0.41924600  1
  C  358  1  0.51282000  0.17948000  0.44100100  1
  C  359  1  0.51074200  0.15969200  0.45600700  1
  C  360  1  0.54461200  0.15293700  0.46921400  1
  C  361  1  0.47536600  0.14658800  0.45952700  1
  C  362  1  0.47395100  0.12743500  0.47575700  1
  C  363  1  0.50753900  0.12118100  0.48939000  1
  C  364  1  0.54306100  0.13394200  0.48555800  1
  C  365  1  0.43424400  0.23888200  0.36657600  1
  C  366  1  0.40097500  0.24542000  0.37805600  1
  C  367  1  0.36664100  0.25275000  0.36652300  1
  C  368  1  0.36652900  0.27190200  0.35009300  1
  C  369  1  0.33046300  0.24103300  0.37143300  1
  C  370  1  0.29530900  0.24790800  0.35984400  1
  C  371  1  0.29536700  0.26680100  0.34329700  1
  C  372  1  0.33129100  0.27881400  0.33857600  1
  C  400  1  0.70261200  0.76296200  0.79290200  1
  C  401  1  0.70058500  0.77733100  0.77224600  1
  C  402  1  0.66379000  0.78274100  0.76174500  1
  C  403  1  0.62820700  0.77393200  0.77171900  1
  C  404  1  0.63041500  0.75928800  0.79219200  1
  C  405  1  0.66721200  0.75402200  0.80274600  1
  C  406  1  0.59165300  0.77890900  0.76153600  1
  C  407  1  0.57713200  0.80112900  0.75919200  1
  C  408  1  0.54023100  0.80667900  0.74950300  1
  C  409  1  0.50543200  0.79417200  0.75600700  1
  C  410  1  0.46780600  0.80084600  0.74713800  1
  C  411  1  0.46546200  0.82038200  0.73122400  1
  C  412  1  0.49956300  0.83332900  0.72451900  1
  C  413  1  0.53665000  0.82641900  0.73394500  1
  C  414  1  0.49585400  0.85331200  0.71004100  1
  C  415  1  0.51483000  0.85591100  0.68910900  1
  C  416  1  0.51200600  0.87583800  0.67431500  1
  C  417  1  0.54621000  0.88411300  0.66233600  1
  C  418  1  0.47562600  0.88751200  0.66965800  1
  C  419  1  0.47358700  0.90674200  0.65354600  1
  C  420  1  0.50758700  0.91449000  0.64108400  1
  C  421  1  0.54405500  0.90318100  0.64609200  1
  C  422  1  0.43434800  0.78782900  0.75367600  1
  C  423  1  0.39980300  0.79766600  0.76048300  1
  C  424  1  0.36629800  0.78461000  0.76641800  1
  C  425  1  0.36647200  0.76794900  0.78535200  1
  C  426  1  0.33039500  0.78880600  0.75414600  1
  C  427  1  0.29568800  0.77639900  0.76039700  1
  C  428  1  0.29590900  0.75980500  0.77925400  1
  C  429  1  0.33165500  0.75565800  0.79167400  1
  C  457  1  0.00847800  0.53510000  0.13706600  1
  C  459  1  0.99957500  0.49344300  0.13097800  1
  C  461  1  0.99483600  0.52021200  0.09821200  1
  C  463  1  0.99732300  0.47028900  0.14100200  1
  C  464  1  0.98985500  0.52423000  0.07386000  1
  C  465  1  0.01662900  0.55351400  0.15361800  1
  C  469  1  0.00863500  0.50030000  0.99212300  1
  C  471  1  0.00259400  0.54195500  0.99920100  1
  C  473  1  0.00331900  0.51489600  0.03191400  1
  C  475  1  0.00012500  0.56520900  0.98945700  1
  C  476  1  0.00596000  0.51060200  0.05641900  1
  C  477  1  0.01447400  0.48203300  0.97508600  1
  C  481  1  0.50828500  0.94553600  0.58259600  1
  C  483  1  0.49942300  0.95149600  0.54091900  1
  C  485  1  0.49443300  0.98430200  0.56759800  1
  C  487  1  0.49717400  0.94138900  0.51780400  1
  C  488  1  0.48931000  0.00863200  0.57155800  1
  C  489  1  0.51649000  0.92907300  0.60107500  1
  C  493  1  0.50837700  0.09033800  0.54804500  1
  C  495  1  0.50262600  0.08315400  0.58970400  1
  C  497  1  0.50343700  0.05052000  0.56257500  1
  C  499  1  0.50026100  0.09285900  0.61297600  1
  C  500  1  0.50622800  0.02604300  0.55826700  1
  C  501  1  0.51392700  0.10746500  0.52982400  1
  N  52  1  0.01195000  0.46535200  0.16313900  1
  N  54  1  0.76533400  0.29116300  0.33998400  1
  N  56  1  0.24588000  0.29596300  0.33625000  1
  N  109  1  0.01352800  0.57013400  0.96704000  1
  N  111  1  0.76521300  0.74412400  0.79020900  1
  N  113  1  0.24610500  0.75323700  0.80815000  1
  N  166  1  0.51206800  0.91930900  0.51290300  1
  N  168  1  0.26525100  0.74260400  0.33855600  1
  N  170  1  0.74611600  0.76063800  0.32951800  1
  N  223  1  0.51358000  0.11529600  0.61789200  1
  N  225  1  0.26523600  0.29230600  0.79160400  1
  N  227  1  0.74599800  0.27436300  0.80072100  1
  N  280  1  0.00471400  0.57655200  0.15073100  1
  N  282  1  0.23888600  0.75688800  0.32502600  1
  N  284  1  0.76024100  0.73745100  0.33490600  1
  N  337  1  0.00524500  0.45868400  0.97884100  1
  N  339  1  0.23889500  0.27803300  0.80516200  1
  N  341  1  0.76012200  0.29754100  0.79530400  1
  N  394  1  0.50516000  0.10365000  0.50642000  1
  N  396  1  0.73957500  0.27687800  0.32604700  1
  N  398  1  0.25955100  0.27253600  0.33152500  1
  N  451  1  0.50467400  0.93209700  0.62412100  1
  N  453  1  0.73883500  0.75768800  0.80445300  1
  N  455  1  0.26023300  0.74784900  0.78496500  1
  N  458  1  0.00720500  0.51238600  0.14524100  1
  N  460  1  0.99316100  0.49774000  0.10744400  1
  N  462  1  0.00222700  0.53874100  0.11337400  1
  N  470  1  0.00656300  0.52309800  0.98431100  1
  N  472  1  0.00118500  0.53751200  0.02301900  1
  N  474  1  0.00728600  0.49653400  0.01605800  1
  N  482  1  0.50710400  0.93729300  0.55990500  1
  N  484  1  0.49286100  0.97503000  0.54514400  1
  N  486  1  0.50187700  0.96922000  0.58617500  1
  N  494  1  0.50635200  0.09808800  0.57086600  1
  N  496  1  0.50136800  0.05934100  0.58522000  1
  N  498  1  0.50721400  0.06640500  0.54422800  1
  O  466  1  0.96972200  0.54162900  0.06865200  1
  O  467  1  0.03229600  0.54663500  0.17478800  1
  O  468  1  0.98113500  0.45276800  0.12757800  1
  O  478  1  0.02660500  0.49352200  0.06204900  1
  O  479  1  0.02681400  0.48905500  0.95317700  1
  O  480  1  0.98527900  0.58276700  0.00337600  1
  O  490  1  0.46827100  0.01384200  0.58856300  1
  O  491  1  0.53250000  0.90795900  0.59431300  1
  O  492  1  0.48056600  0.95463900  0.50029300  1
  O  502  1  0.52775800  0.02042100  0.54158400  1
  O  503  1  0.52547900  0.12950100  0.53693800  1
  O  504  1  0.48559500  0.07889200  0.63055200  1
