# generated using pymatgen
data_H16C19
_symmetry_space_group_name_H-M   'P 1'
_cell_length_a   32.68864848
_cell_length_b   32.68864848
_cell_length_c   32.68864848
_cell_angle_alpha   109.47122063
_cell_angle_beta   109.47122063
_cell_angle_gamma   109.47122063
_symmetry_Int_Tables_number   1
_chemical_formula_structural   H16C19
_chemical_formula_sum   'H192 C228'
_cell_volume   26888.65037122
_cell_formula_units_Z   12
loop_
 _symmetry_equiv_pos_site_id
 _symmetry_equiv_pos_as_xyz
  1  'x, y, z'
loop_
 _atom_site_type_symbol
 _atom_site_label
 _atom_site_symmetry_multiplicity
 _atom_site_fract_x
 _atom_site_fract_y
 _atom_site_fract_z
 _atom_site_occupancy
  C  1  1  0.18700850  0.72359650  0.45792000  1
  C  2  1  0.19846750  0.70054500  0.49255750  1
  C  3  1  0.21274200  0.71565900  0.42556500  1
  C  4  1  0.27101850  0.73880600  0.45778950  1
  C  7  1  0.27891400  0.71445450  0.49172750  1
  C  8  1  0.25615850  0.72372300  0.52719550  1
  C  13  1  0.28057700  0.78181000  0.55955000  1
  C  14  1  0.27150050  0.80786400  0.52732350  1
  C  17  1  0.29445850  0.79653250  0.49255600  1
  C  20  1  0.21321000  0.78182000  0.49338600  1
  C  23  1  0.80883550  0.27627500  0.52706950  1
  C  24  1  0.79737850  0.29945450  0.49255800  1
  C  25  1  0.78310250  0.21818800  0.49339850  1
  C  26  1  0.72482350  0.19213350  0.45826700  1
  C  29  1  0.71693250  0.21817850  0.42602200  1
  C  30  1  0.73968800  0.27640250  0.45804650  1
  C  35  1  0.71526950  0.28433800  0.49171450  1
  C  36  1  0.72434400  0.26118900  0.52684400  1
  C  39  1  0.70138400  0.20346100  0.49255500  1
  C  42  1  0.78263500  0.28554100  0.55909200  1
  C  45  1  0.72164650  0.53464000  0.25079350  1
  C  46  1  0.69846600  0.50000250  0.19310250  1
  C  47  1  0.77973350  0.56699450  0.27521200  1
  C  48  1  0.80578750  0.53477000  0.26613450  1
  C  51  1  0.77974250  0.50083350  0.20784300  1
  C  52  1  0.72152000  0.46536550  0.18164350  1
  C  57  1  0.71358300  0.43301000  0.20737600  1
  C  58  1  0.73673250  0.46523500  0.26565450  1
  C  61  1  0.79445950  0.50000100  0.28909350  1
  C  64  1  0.71237950  0.49917050  0.27354900  1
  C  67  1  0.27432500  0.46548950  0.73432250  1
  C  68  1  0.29738100  0.50000150  0.79201450  1
  C  69  1  0.28226300  0.49915900  0.70990400  1
  C  70  1  0.25911450  0.53428900  0.71898150  1
  C  73  1  0.28346900  0.56653650  0.77727250  1
  C  74  1  0.27420200  0.53451550  0.80347350  1
  C  79  1  0.21611400  0.50084500  0.77774200  1
  C  80  1  0.19005950  0.46571400  0.71946250  1
  C  83  1  0.20138700  0.50000200  0.69602300  1
  C  86  1  0.21610250  0.43346700  0.71156750  1
  C  89  1  0.46340800  0.74176600  0.26895800  1
  C  90  1  0.49792050  0.79945650  0.29201400  1
  C  91  1  0.49707800  0.71734750  0.27689550  1
  C  92  1  0.53220650  0.72642300  0.25374750  1
  C  95  1  0.56445450  0.78471450  0.27810100  1
  C  96  1  0.53243300  0.81091500  0.26883400  1
  C  101  1  0.49876250  0.78518350  0.21074700  1
  C  102  1  0.46363250  0.72690350  0.18469300  1
  C  105  1  0.49791950  0.70346350  0.19602000  1
  C  108  1  0.43138600  0.71901050  0.21073650  1
  C  111  1  0.53255700  0.25823250  0.71628050  1
  C  112  1  0.49791900  0.20054250  0.69310150  1
  C  113  1  0.56491200  0.28265050  0.77436850  1
  C  114  1  0.53268750  0.27357500  0.80042150  1
  C  117  1  0.49875050  0.21528400  0.77437750  1
  C  118  1  0.46328100  0.18908300  0.71615400  1
  C  123  1  0.43092750  0.21481650  0.70821700  1
  C  124  1  0.46315250  0.27309450  0.73136600  1
  C  127  1  0.49792000  0.29653500  0.78909400  1
  C  130  1  0.49709050  0.28098900  0.70701350  1
  C  265  1  0.29418000  0.86422500  0.55830600  1
  C  266  1  0.32576500  0.89185100  0.61104700  1
  C  267  1  0.34803000  0.94404650  0.63834650  1
  C  268  1  0.33870450  0.97176350  0.61473600  1
  C  269  1  0.30614600  0.94469850  0.56201650  1
  C  270  1  0.28556450  0.89236300  0.53481450  1
  C  272  1  0.36532750  0.02565750  0.64078300  1
  C  273  1  0.39283750  0.05510300  0.69364850  1
  C  274  1  0.42425400  0.10701750  0.71797350  1
  C  275  1  0.42875200  0.13292500  0.69110400  1
  C  276  1  0.39774200  0.10364400  0.63825200  1
  C  277  1  0.36670650  0.05116850  0.61306100  1
  C  282  1  0.33924050  0.02280800  0.55726750  1
  C  283  1  0.29312500  0.97175050  0.53579650  1
  C  289  1  0.70166700  0.26949150  0.56052650  1
  C  290  1  0.67006950  0.29063550  0.55655600  1
  C  291  1  0.64779950  0.29566550  0.58648400  1
  C  292  1  0.65712800  0.28138400  0.62352800  1
  C  293  1  0.68968850  0.26122650  0.62902600  1
  C  294  1  0.71027500  0.25461250  0.59727550  1
  C  296  1  0.63050100  0.28080600  0.65079700  1
  C  297  1  0.60299000  0.30616050  0.65273050  1
  C  298  1  0.57157750  0.29907100  0.67323350  1
  C  299  1  0.56708700  0.26771250  0.69465150  1
  C  300  1  0.59809400  0.24586650  0.69637550  1
  C  301  1  0.62912800  0.25170850  0.67493450  1
  C  306  1  0.65659400  0.22338400  0.67404000  1
  C  307  1  0.70271100  0.24802850  0.66909950  1
  C  313  1  0.69944600  0.13577450  0.42458250  1
  C  314  1  0.72455750  0.10814600  0.42854850  1
  C  315  1  0.69965900  0.05594800  0.39861700  1
  C  316  1  0.64833350  0.02823500  0.36157150  1
  C  317  1  0.62268000  0.05529900  0.35607800  1
  C  318  1  0.64781750  0.10763550  0.38783200  1
  C  320  1  0.62048750  0.97434050  0.33430400  1
  C  321  1  0.64390450  0.94489350  0.33236300  1
  C  322  1  0.61631650  0.89298050  0.31186800  1
  C  323  1  0.56354000  0.86707400  0.29046500  1
  C  324  1  0.53996950  0.89635550  0.28873600  1
  C  325  1  0.56725150  0.94882950  0.31017100  1
  C  330  1  0.53982100  0.97719100  0.31106500  1
  C  331  1  0.56940750  0.02824900  0.31600450  1
  C  337  1  0.29639850  0.73050200  0.42680950  1
  C  338  1  0.27128250  0.70934900  0.37406750  1
  C  339  1  0.29618050  0.70431550  0.34676700  1
  C  340  1  0.34750650  0.71859900  0.37037850  1
  C  341  1  0.37316100  0.73876000  0.42309600  1
  C  342  1  0.34802800  0.74537950  0.45029850  1
  C  344  1  0.37535250  0.71917800  0.34432950  1
  C  345  1  0.35193600  0.69382200  0.29146500  1
  C  346  1  0.37952150  0.70091600  0.26713950  1
  C  347  1  0.43229900  0.73228600  0.29400900  1
  C  348  1  0.45587100  0.75412850  0.34686350  1
  C  349  1  0.42858750  0.74828000  0.37205350  1
  C  354  1  0.45601900  0.77660450  0.42784550  1
  C  355  1  0.42643450  0.75195850  0.44931700  1
  C  361  1  0.72842700  0.43425250  0.29103350  1
  C  362  1  0.70728700  0.38151450  0.26592050  1
  C  363  1  0.70225850  0.35421400  0.29081950  1
  C  364  1  0.71653650  0.37782050  0.34214200  1
  C  365  1  0.73669300  0.43054150  0.36779750  1
  C  366  1  0.74330750  0.45774350  0.34266400  1
  C  368  1  0.71711700  0.35177300  0.36999000  1
  C  369  1  0.69176150  0.29890900  0.34657150  1
  C  370  1  0.69884950  0.27458450  0.37415900  1
  C  371  1  0.73020900  0.30145300  0.42693900  1
  C  372  1  0.75205350  0.35430600  0.45050850  1
  C  373  1  0.74621350  0.37949850  0.42322700  1
  C  378  1  0.77453650  0.43528750  0.45065500  1
  C  379  1  0.74989250  0.45676050  0.42107000  1
  C  385  1  0.13369950  0.43203100  0.69408450  1
  C  386  1  0.10607300  0.43600400  0.71919700  1
  C  387  1  0.05387400  0.40607650  0.69430050  1
  C  388  1  0.02615800  0.36903250  0.64297450  1
  C  389  1  0.05322150  0.36353250  0.61732000  1
  C  390  1  0.10556050  0.39528200  0.64245550  1
  C  392  1  0.97226250  0.34176250  0.61512700  1
  C  393  1  0.94281750  0.33982900  0.63854750  1
  C  394  1  0.89090500  0.31932750  0.61095650  1
  C  395  1  0.86499400  0.29790350  0.55817750  1
  C  396  1  0.89427600  0.29617900  0.53460800  1
  C  397  1  0.94675200  0.31762200  0.56189200  1
  C  402  1  0.97511350  0.31851800  0.53446250  1
  C  403  1  0.02617050  0.32345750  0.56404800  1
  C  409  1  0.26741800  0.56797350  0.69630450  1
  C  410  1  0.28857000  0.56401050  0.66471550  1
  C  411  1  0.29360400  0.59394100  0.64244900  1
  C  412  1  0.27932050  0.63098300  0.65177550  1
  C  413  1  0.25915950  0.63647700  0.68433450  1
  C  414  1  0.25254100  0.60472550  0.70491850  1
  C  416  1  0.27874250  0.65825150  0.62515100  1
  C  417  1  0.30410050  0.66019100  0.59764350  1
  C  418  1  0.29700650  0.68068650  0.56622600  1
  C  419  1  0.26563600  0.70209300  0.56172300  1
  C  420  1  0.24379400  0.70382200  0.59273500  1
  C  421  1  0.24964100  0.68238700  0.62377400  1
  C  426  1  0.22131400  0.68149000  0.65123800  1
  C  427  1  0.24596050  0.67654950  0.69735700  1
  C  433  1  0.86214650  0.56575150  0.28881000  1
  C  434  1  0.88977400  0.61849050  0.32040650  1
  C  435  1  0.94197200  0.64579000  0.34267700  1
  C  436  1  0.96968650  0.62218050  0.33334700  1
  C  437  1  0.94262300  0.56946300  0.30078600  1
  C  438  1  0.89028750  0.54226250  0.28020000  1
  C  440  1  0.02358300  0.64822950  0.35997450  1
  C  441  1  0.05302950  0.70109550  0.38748500  1
  C  442  1  0.10494200  0.72541650  0.41889650  1
  C  443  1  0.13085150  0.69854800  0.42339150  1
  C  444  1  0.10156800  0.64569500  0.39238300  1
  C  445  1  0.04909350  0.62050450  0.36134800  1
  C  450  1  0.02073050  0.56471200  0.33388050  1
  C  451  1  0.96967500  0.54324150  0.28776350  1
  C  457  1  0.42994950  0.70152350  0.12833200  1
  C  458  1  0.43391400  0.72664050  0.10070750  1
  C  459  1  0.40398300  0.70174200  0.04850900  1
  C  460  1  0.36693950  0.65041600  0.02079150  1
  C  461  1  0.36144650  0.62476300  0.04785850  1
  C  462  1  0.39319700  0.64989600  0.10019300  1
  C  464  1  0.33967300  0.62257050  0.96689850  1
  C  465  1  0.33773600  0.64598850  0.93745250  1
  C  466  1  0.31724050  0.61840000  0.88554050  1
  C  467  1  0.29583250  0.56562250  0.85963100  1
  C  468  1  0.29410350  0.54205150  0.88891300  1
  C  469  1  0.31553800  0.56933400  0.94138700  1
  C  474  1  0.31643450  0.54190350  0.96975000  1
  C  475  1  0.32137200  0.57148950  0.02080650  1
  C  481  1  0.43217350  0.29847600  0.72306250  1
  C  482  1  0.37943150  0.27336200  0.70191650  1
  C  483  1  0.35213250  0.29826200  0.69688450  1
  C  484  1  0.37574350  0.34958550  0.71116500  1
  C  485  1  0.42846050  0.37523900  0.73132350  1
  C  486  1  0.45566200  0.35010400  0.73793900  1
  C  488  1  0.34969350  0.37743100  0.71174050  1
  C  489  1  0.29682900  0.35401300  0.68638400  1
  C  490  1  0.27250650  0.38160450  0.69347600  1
  C  491  1  0.29937550  0.43438200  0.72484450  1
  C  492  1  0.35222950  0.45795100  0.74668650  1
  C  493  1  0.37742150  0.43066850  0.74084300  1
  C  498  1  0.43321100  0.45809750  0.76916750  1
  C  499  1  0.45468300  0.42851150  0.74452250  1
  C  505  1  0.56366950  0.29625000  0.85678150  1
  C  506  1  0.61640800  0.32784700  0.88440800  1
  C  507  1  0.64370900  0.35011750  0.93660550  1
  C  508  1  0.62010100  0.34078950  0.96432250  1
  C  509  1  0.56738350  0.30822900  0.93725850  1
  C  510  1  0.54017900  0.28764050  0.88492250  1
  C  512  1  0.64614950  0.36741750  0.01821800  1
  C  513  1  0.69901350  0.39492650  0.04766300  1
  C  514  1  0.72333700  0.42634100  0.09957500  1
  C  515  1  0.69647000  0.43083700  0.12548600  1
  C  516  1  0.64361750  0.39982750  0.09620300  1
  C  517  1  0.61842500  0.36879150  0.04372850  1
  C  522  1  0.56263400  0.34132450  0.01536750  1
  C  523  1  0.54116100  0.29520600  0.96431000  1
  C  529  1  0.56589150  0.70374650  0.26205300  1
  C  530  1  0.56192150  0.67215100  0.28319550  1
  C  531  1  0.59184950  0.64988000  0.28822650  1
  C  532  1  0.62889350  0.65921000  0.27394650  1
  C  533  1  0.63439100  0.69177100  0.25378900  1
  C  534  1  0.60264250  0.71235800  0.24717550  1
  C  536  1  0.65616250  0.63258400  0.27336950  1
  C  537  1  0.65809700  0.60507200  0.29872200  1
  C  538  1  0.67859800  0.57365850  0.29163350  1
  C  539  1  0.70001800  0.56917000  0.26027500  1
  C  540  1  0.70174350  0.60017900  0.23843050  1
  C  541  1  0.68030050  0.63121150  0.24427200  1
  C  546  1  0.67940700  0.65867850  0.21594750  1
  C  547  1  0.67446700  0.70479550  0.24059250  1
  H  5  1  0.20494500  0.73257100  0.40220000  1
  H  6  1  0.19605650  0.67556750  0.40036100  1
  H  9  1  0.26288300  0.67413850  0.46793050  1
  H  10  1  0.31897750  0.73028850  0.51542400  1
  H  11  1  0.18240300  0.66007700  0.47064500  1
  H  12  1  0.17991200  0.70639450  0.51447050  1
  H  15  1  0.32085500  0.79738100  0.58291700  1
  H  16  1  0.26569050  0.79033150  0.58475400  1
  H  18  1  0.33502800  0.81433900  0.51627800  1
  H  19  1  0.28854400  0.81338100  0.46883400  1
  H  21  1  0.19669300  0.78958800  0.51718600  1
  H  22  1  0.20534750  0.79818800  0.46969050  1
  H  27  1  0.79089850  0.20261750  0.51810600  1
  H  28  1  0.79978750  0.20966800  0.46999350  1
  H  31  1  0.73296350  0.21041300  0.40173750  1
  H  32  1  0.67686650  0.20181100  0.40178850  1
  H  33  1  0.81344350  0.29360700  0.46815450  1
  H  34  1  0.81593300  0.33992250  0.51696250  1
  H  37  1  0.67499050  0.26742600  0.46700450  1
  H  38  1  0.73015450  0.32442850  0.51512100  1
  H  40  1  0.66081400  0.18661450  0.46979150  1
  H  41  1  0.70729950  0.18565500  0.51531850  1
  H  43  1  0.79915350  0.32585800  0.58337650  1
  H  44  1  0.79049650  0.26970550  0.58332200  1
  H  49  1  0.79530100  0.59035950  0.31548950  1
  H  50  1  0.78825400  0.59220050  0.26032550  1
  H  53  1  0.78751000  0.52463050  0.19132650  1
  H  54  1  0.79611150  0.47713550  0.19998000  1
  H  55  1  0.70431500  0.52191550  0.17454850  1
  H  56  1  0.65799950  0.47809000  0.17703950  1
  H  59  1  0.73049600  0.40964450  0.19957750  1
  H  60  1  0.67349300  0.40780450  0.19069050  1
  H  62  1  0.81130700  0.47628000  0.28317800  1
  H  63  1  0.81226750  0.52372500  0.32966550  1
  H  65  1  0.67206350  0.47537350  0.25751800  1
  H  66  1  0.72821200  0.52286900  0.31361500  1
  H  71  1  0.26535050  0.47444950  0.66962700  1
  H  72  1  0.32235350  0.52256550  0.72479100  1
  H  75  1  0.32378600  0.59082250  0.79379150  1
  H  76  1  0.26763400  0.59076850  0.78513450  1
  H  77  1  0.33784800  0.52440450  0.81056850  1
  H  78  1  0.29153000  0.47559750  0.80807750  1
  H  81  1  0.20054650  0.52555500  0.78553850  1
  H  82  1  0.20759400  0.47744000  0.79442600  1
  H  84  1  0.18358250  0.52276750  0.70194000  1
  H  85  1  0.18454050  0.47723950  0.65545400  1
  H  87  1  0.20833550  0.40918150  0.72759800  1
  H  88  1  0.19973400  0.40923700  0.67150200  1
  H  93  1  0.47236900  0.67706950  0.25998350  1
  H  94  1  0.52048350  0.73223450  0.31698700  1
  H  97  1  0.58874150  0.80123400  0.31841850  1
  H  98  1  0.58868700  0.79257750  0.26226750  1
  H  99  1  0.52232450  0.81801050  0.33248100  1
  H  100  1  0.47351500  0.81551950  0.28616250  1
  H  103  1  0.52347150  0.79298050  0.19517800  1
  H  104  1  0.47535600  0.80186700  0.20222700  1
  H  106  1  0.52068300  0.70938000  0.17821400  1
  H  107  1  0.47515650  0.66289450  0.17917300  1
  H  109  1  0.40710000  0.73504000  0.20297000  1
  H  110  1  0.40715400  0.67894550  0.19436850  1
  H  115  1  0.58827800  0.32292800  0.78993700  1
  H  116  1  0.59011700  0.26776500  0.78288800  1
  H  119  1  0.52254650  0.19876500  0.78214450  1
  H  120  1  0.47505250  0.20742250  0.79074600  1
  H  121  1  0.51983200  0.18198650  0.69894950  1
  H  122  1  0.47600750  0.18447900  0.65263550  1
  H  125  1  0.40756200  0.20702100  0.72513100  1
  H  126  1  0.40572200  0.19813150  0.66812550  1
  H  128  1  0.47419850  0.29061850  0.80594200  1
  H  129  1  0.52164300  0.33710450  0.80690050  1
  H  131  1  0.47329200  0.26495850  0.66669650  1
  H  132  1  0.52078800  0.32105450  0.72284650  1
  H  271  1  0.26392550  0.87472200  0.49681050  1
  H  278  1  0.39143500  0.03941250  0.71575450  1
  H  279  1  0.44412450  0.12502900  0.75608050  1
  H  280  1  0.39820700  0.12049350  0.61700050  1
  H  281  1  0.33498300  0.87499500  0.63097700  1
  H  284  1  0.36493150  0.01687900  0.54473250  1
  H  285  1  0.32620400  0.04413250  0.54219950  1
  H  286  1  0.27803300  0.94999200  0.49543800  1
  H  287  1  0.26413950  0.97813650  0.54138400  1
  H  288  1  0.37279900  0.96121750  0.67564550  1
  H  295  1  0.73191950  0.23825250  0.60127900  1
  H  302  1  0.60438950  0.32966400  0.63843850  1
  H  303  1  0.55170600  0.31730750  0.67137350  1
  H  304  1  0.59763200  0.22415200  0.71276400  1
  H  305  1  0.66085050  0.30134450  0.53048200  1
  H  308  1  0.63090400  0.18515600  0.64241700  1
  H  309  1  0.66962800  0.22134850  0.70839950  1
  H  310  1  0.71780350  0.22276300  0.66243450  1
  H  311  1  0.73169400  0.28260100  0.70447100  1
  H  312  1  0.62302500  0.30819000  0.57888100  1
  H  319  1  0.62745250  0.12527750  0.38383100  1
  H  326  1  0.68170250  0.96058550  0.34664900  1
  H  327  1  0.63641300  0.87496950  0.31372550  1
  H  328  1  0.50186850  0.87950750  0.27235300  1
  H  329  1  0.76134200  0.12500150  0.45462350  1
  H  332  1  0.53321500  0.98312200  0.34268700  1
  H  333  1  0.50343000  0.95586650  0.27670550  1
  H  334  1  0.55080850  0.05000750  0.32267300  1
  H  335  1  0.56860600  0.02186000  0.28063300  1
  H  336  1  0.71978700  0.03877700  0.40621900  1
  H  343  1  0.36839050  0.76174250  0.48830200  1
  H  350  1  0.31413750  0.67031200  0.26935950  1
  H  351  1  0.35942750  0.68267950  0.22903200  1
  H  352  1  0.49397200  0.77584550  0.36811450  1
  H  353  1  0.23449750  0.69863750  0.35413800  1
  H  356  1  0.46262450  0.81483200  0.44038450  1
  H  357  1  0.49241100  0.77863650  0.44291350  1
  H  358  1  0.44503350  0.77722400  0.48967650  1
  H  359  1  0.42723350  0.71738550  0.44372700  1
  H  360  1  0.27605100  0.69178700  0.30946700  1
  H  367  1  0.75966650  0.49574500  0.36302350  1
  H  374  1  0.66825550  0.27680250  0.30877200  1
  H  375  1  0.68061500  0.23647700  0.35406400  1
  H  376  1  0.77376850  0.37555750  0.48861100  1
  H  377  1  0.69657850  0.36158550  0.22913700  1
  H  380  1  0.81276650  0.44782650  0.45726000  1
  H  381  1  0.77657300  0.45036000  0.48705000  1
  H  382  1  0.77515950  0.49712050  0.43967100  1
  H  383  1  0.71531950  0.45117000  0.42187050  1
  H  384  1  0.68973350  0.31691500  0.27068950  1
  H  391  1  0.12320000  0.39127800  0.62209300  1
  H  398  1  0.95851000  0.35412500  0.67634600  1
  H  399  1  0.87289100  0.32118600  0.63105200  1
  H  400  1  0.87742650  0.27979000  0.49650550  1
  H  401  1  0.12292900  0.46207950  0.75598150  1
  H  404  1  0.98104700  0.35014000  0.52785600  1
  H  405  1  0.95378900  0.28415850  0.49806750  1
  H  406  1  0.04792800  0.33012200  0.54544700  1
  H  407  1  0.01978100  0.28808500  0.56324900  1
  H  408  1  0.03670400  0.41368150  0.71442650  1
  H  415  1  0.23617700  0.60872400  0.72655800  1
  H  422  1  0.32760900  0.64590350  0.59904750  1
  H  423  1  0.31524500  0.67882900  0.54635700  1
  H  424  1  0.22207650  0.72020550  0.59227000  1
  H  425  1  0.29928100  0.53793450  0.65549650  1
  H  428  1  0.18308650  0.64986800  0.62554850  1
  H  429  1  0.21928150  0.71585150  0.66427500  1
  H  430  1  0.22069500  0.66988500  0.71245000  1
  H  431  1  0.28053350  0.71192250  0.72634000  1
  H  432  1  0.30613250  0.58634050  0.61767800  1
  H  439  1  0.87264600  0.50425750  0.25855650  1
  H  446  1  0.03733600  0.72319950  0.38608350  1
  H  447  1  0.12295400  0.76352600  0.43876900  1
  H  448  1  0.11841600  0.62444200  0.39284500  1
  H  449  1  0.87292000  0.63842050  0.32962750  1
  H  452  1  0.01479900  0.55217500  0.35957100  1
  H  453  1  0.04205750  0.54964400  0.32084750  1
  H  454  1  0.94791550  0.50288400  0.27267150  1
  H  455  1  0.97606400  0.54883250  0.25877950  1
  H  456  1  0.95914350  0.68308900  0.36745050  1
  H  463  1  0.38919950  0.62953350  0.11783500  1
  H  470  1  0.35202300  0.68378600  0.95314400  1
  H  471  1  0.31909850  0.63849600  0.86752750  1
  H  472  1  0.27771850  0.50394850  0.87206400  1
  H  473  1  0.45998700  0.76342600  0.11756300  1
  H  476  1  0.34805500  0.53529800  0.97568200  1
  H  477  1  0.28207500  0.50551100  0.94842500  1
  H  478  1  0.32803950  0.55289050  0.04256500  1
  H  479  1  0.28599950  0.57068950  0.01441500  1
  H  480  1  0.41158200  0.72187200  0.03133900  1
  H  487  1  0.49366550  0.37046650  0.75430200  1
  H  494  1  0.27472500  0.31621800  0.66287700  1
  H  495  1  0.23440000  0.36151000  0.67524000  1
  H  496  1  0.37348150  0.49605300  0.76840350  1
  H  497  1  0.35950300  0.23657850  0.69120750  1
  H  500  1  0.44574900  0.46470550  0.80739550  1
  H  501  1  0.44827950  0.49449050  0.77119900  1
  H  502  1  0.49504200  0.44711150  0.76978950  1
  H  503  1  0.44909400  0.42931100  0.70995000  1
  H  504  1  0.31483500  0.27813400  0.68435900  1
  H  511  1  0.50217650  0.26599700  0.86728150  1
  H  518  1  0.72111900  0.39352650  0.03196950  1
  H  519  1  0.76144600  0.44621300  0.11758800  1
  H  520  1  0.62236400  0.40029050  0.11305350  1
  H  521  1  0.63633700  0.33706550  0.86755150  1
  H  524  1  0.55009250  0.36701150  0.00943300  1
  H  525  1  0.54756450  0.32829000  0.03669350  1
  H  526  1  0.50080250  0.28011350  0.94255100  1
  H  527  1  0.54675150  0.26622250  0.97070000  1
  H  528  1  0.68100800  0.37489100  0.95377700  1
  H  535  1  0.60664400  0.73400200  0.23081400  1
  H  542  1  0.64380250  0.60647000  0.32222550  1
  H  543  1  0.67673850  0.55378800  0.30987050  1
  H  544  1  0.71813050  0.59971650  0.21671700  1
  H  545  1  0.53584550  0.66293150  0.29390600  1
  H  548  1  0.64778400  0.63298950  0.17771950  1
  H  549  1  0.71376500  0.67171200  0.21391100  1
  H  550  1  0.66780050  0.71988800  0.21532550  1
  H  551  1  0.70983950  0.73377850  0.27516600  1
  H  552  1  0.58424550  0.62510700  0.30075150  1
