# generated using pymatgen
data_H13(C5N2)3
_symmetry_space_group_name_H-M   'P 1'
_cell_length_a   28.70560000
_cell_length_b   28.70570000
_cell_length_c   32.57530000
_cell_angle_alpha   90.42650000
_cell_angle_beta   89.66170000
_cell_angle_gamma   90.00000000
_symmetry_Int_Tables_number   1
_chemical_formula_structural   H13(C5N2)3
_chemical_formula_sum   'H208 C240 N96'
_cell_volume   26841.30280554
_cell_formula_units_Z   16
loop_
 _symmetry_equiv_pos_site_id
 _symmetry_equiv_pos_as_xyz
  1  'x, y, z'
loop_
 _atom_site_type_symbol
 _atom_site_label
 _atom_site_symmetry_multiplicity
 _atom_site_fract_x
 _atom_site_fract_y
 _atom_site_fract_z
 _atom_site_occupancy
  H  7  1  0.73416200  0.84228000  0.92147600  1
  H  8  1  0.65373000  0.96353500  0.90966100  1
  H  9  1  0.61429000  0.84172600  0.84786700  1
  H  16  1  0.75829500  0.88209300  0.98117600  1
  H  17  1  0.83041400  0.00902300  0.99237200  1
  H  18  1  0.72639100  0.99313700  0.90406000  1
  H  29  1  0.26837300  0.16361000  0.91946400  1
  H  30  1  0.34686100  0.04127300  0.90468500  1
  H  31  1  0.38818900  0.16284500  0.84460200  1
  H  38  1  0.24375400  0.12413300  0.97879200  1
  H  39  1  0.17182000  0.99729700  0.99081200  1
  H  40  1  0.27420500  0.01250800  0.90012000  1
  H  51  1  0.33885000  0.76950000  0.42049100  1
  H  52  1  0.46012500  0.85029300  0.40915700  1
  H  53  1  0.33907200  0.88998800  0.34783200  1
  H  60  1  0.37814000  0.74493600  0.47997500  1
  H  61  1  0.50537500  0.67352000  0.49058500  1
  H  62  1  0.48993200  0.77772400  0.40270700  1
  H  73  1  0.66058700  0.23528000  0.42056800  1
  H  74  1  0.53817200  0.15731500  0.40553800  1
  H  75  1  0.66062600  0.11546500  0.34560600  1
  H  82  1  0.62043400  0.25973200  0.48004200  1
  H  83  1  0.49401500  0.33268400  0.49216200  1
  H  84  1  0.50978400  0.23014300  0.40132300  1
  H  95  1  0.22899300  0.66191700  0.80517900  1
  H  96  1  0.14987400  0.54043500  0.82171300  1
  H  97  1  0.11161300  0.66320700  0.88307700  1
  H  104  1  0.24912400  0.62119000  0.74397700  1
  H  105  1  0.32153500  0.49449900  0.73052700  1
  H  106  1  0.22345900  0.51172000  0.82476600  1
  H  117  1  0.77212600  0.34037500  0.80583700  1
  H  118  1  0.84838000  0.46339200  0.82434800  1
  H  119  1  0.88810400  0.34138500  0.88414300  1
  H  126  1  0.75070800  0.38100200  0.74573500  1
  H  127  1  0.67896300  0.50789100  0.73311900  1
  H  128  1  0.77497100  0.49078000  0.82763900  1
  H  139  1  0.83974300  0.73239700  0.30487400  1
  H  140  1  0.96126900  0.65334700  0.32095100  1
  H  141  1  0.83865900  0.61570600  0.38219400  1
  H  148  1  0.88062100  0.75272900  0.24407700  1
  H  149  1  0.00770100  0.82443500  0.23142200  1
  H  150  1  0.98998400  0.72674100  0.32469000  1
  H  161  1  0.16162900  0.27556700  0.30625800  1
  H  162  1  0.03846000  0.35163600  0.32520000  1
  H  163  1  0.16066700  0.39251400  0.38477200  1
  H  170  1  0.12108100  0.25419000  0.24579000  1
  H  171  1  0.99474800  0.18141700  0.23258000  1
  H  172  1  0.01126600  0.27800400  0.32793500  1
  H  183  1  0.51759000  0.06760700  0.78363300  1
  H  187  1  0.49961200  0.87113700  0.84840800  1
  H  189  1  0.40702800  0.84839000  0.89044100  1
  H  190  1  0.42693200  0.80908300  0.92767200  1
  H  191  1  0.44451700  0.80182500  0.87572200  1
  H  193  1  0.50962100  0.81365500  0.95184400  1
  H  194  1  0.54689200  0.85680600  0.93209700  1
  H  195  1  0.53266500  0.80739200  0.90146200  1
  H  197  1  0.58591200  0.91994000  0.80370000  1
  H  199  1  0.44468700  0.10390400  0.81552800  1
  H  206  1  0.56647200  0.98618700  0.28459100  1
  H  210  1  0.36817100  0.00317600  0.34886300  1
  H  212  1  0.34286000  0.09673700  0.38770100  1
  H  213  1  0.30394500  0.07776500  0.42605400  1
  H  214  1  0.29731000  0.05739600  0.37487800  1
  H  216  1  0.31053100  0.99647300  0.45326300  1
  H  217  1  0.35463800  0.95933300  0.43442300  1
  H  218  1  0.30497900  0.97086600  0.40380600  1
  H  220  1  0.41817800  0.91834700  0.30373200  1
  H  222  1  0.60208100  0.05927700  0.31636200  1
  H  229  1  0.01503700  0.43707100  0.94784900  1
  H  233  1  0.99678900  0.63479800  0.88509900  1
  H  235  1  0.90406400  0.65788900  0.84432400  1
  H  236  1  0.92392600  0.69723800  0.80690600  1
  H  237  1  0.94169800  0.70434000  0.85863900  1
  H  239  1  0.00651200  0.69252100  0.78162900  1
  H  240  1  0.04375900  0.64923700  0.80080900  1
  H  241  1  0.02976400  0.69862700  0.83171000  1
  H  243  1  0.08240400  0.58619000  0.92864000  1
  H  245  1  0.94244300  0.40081400  0.91569400  1
  H  252  1  0.06517500  0.52118600  0.44754100  1
  H  256  1  0.86724200  0.50148200  0.38513800  1
  H  258  1  0.84383000  0.40773400  0.34517600  1
  H  259  1  0.80443200  0.42671600  0.30761800  1
  H  260  1  0.79750800  0.44584900  0.35920000  1
  H  262  1  0.80928800  0.50862000  0.28163700  1
  H  263  1  0.85270600  0.54626000  0.30047800  1
  H  264  1  0.80336000  0.53318300  0.33152100  1
  H  266  1  0.91624600  0.58824800  0.42795400  1
  H  268  1  0.10138300  0.44784000  0.41589600  1
  H  275  1  0.93063400  0.92744600  0.13475300  1
  H  279  1  0.82000200  0.79931300  0.02988900  1
  H  281  1  0.71350800  0.80460400  0.03868500  1
  H  282  1  0.69986700  0.74666800  0.02537000  1
  H  283  1  0.73835100  0.77908800  0.99379700  1
  H  285  1  0.75869500  0.68354400  0.03674700  1
  H  286  1  0.81361900  0.69771200  0.05710100  1
  H  287  1  0.80066500  0.71162400  0.00533300  1
  H  289  1  0.77923000  0.88706400  0.05352500  1
  H  291  1  0.96014400  0.86572900  0.18321500  1
  H  298  1  0.07264700  0.07889500  0.13459900  1
  H  302  1  0.18154400  0.20790700  0.02977200  1
  H  304  1  0.28814600  0.20324800  0.03666800  1
  H  305  1  0.30131600  0.26127900  0.02391800  1
  H  306  1  0.26274500  0.22864700  0.99256600  1
  H  308  1  0.24222500  0.32403400  0.03722300  1
  H  309  1  0.18756100  0.30950400  0.05830500  1
  H  310  1  0.20015900  0.29574200  0.00612200  1
  H  312  1  0.22306100  0.12052400  0.05124100  1
  H  314  1  0.04315200  0.14013600  0.18437200  1
  H  321  1  0.42343000  0.57156300  0.63186700  1
  H  325  1  0.29420600  0.68261200  0.53035600  1
  H  327  1  0.30050800  0.78898600  0.53816000  1
  H  328  1  0.24240200  0.80306600  0.52653700  1
  H  329  1  0.27366400  0.76393100  0.49424100  1
  H  331  1  0.17903000  0.74493000  0.54016700  1
  H  332  1  0.19317700  0.69011700  0.56052400  1
  H  333  1  0.20601600  0.70234600  0.50826100  1
  H  335  1  0.38244600  0.72364600  0.55224100  1
  H  337  1  0.36201400  0.54184700  0.68122900  1
  H  344  1  0.57526800  0.43028700  0.63709500  1
  H  348  1  0.70298100  0.32085500  0.52941600  1
  H  350  1  0.69874400  0.21418500  0.53756400  1
  H  351  1  0.75654200  0.20108800  0.52328300  1
  H  352  1  0.72305500  0.23907500  0.49251600  1
  H  354  1  0.81929300  0.26054000  0.53437400  1
  H  355  1  0.80496900  0.31545800  0.55528400  1
  H  356  1  0.79025800  0.30204500  0.50360700  1
  H  358  1  0.61574300  0.28012800  0.55255100  1
  H  360  1  0.63677800  0.45932200  0.68609400  1
  H  367  1  0.75141100  0.18215600  0.80672600  1
  H  371  1  0.84796400  0.20591200  0.96731900  1
  H  373  1  0.79602000  0.15714900  0.03786800  1
  H  374  1  0.83536700  0.20297000  0.04996000  1
  H  375  1  0.84340200  0.14651100  0.07053200  1
  H  377  1  0.92396200  0.13962100  0.04093500  1
  H  378  1  0.92118000  0.19562200  0.01841100  1
  H  379  1  0.93259900  0.14544800  0.98767000  1
  H  381  1  0.75375600  0.05572400  0.87850900  1
  H  383  1  0.77942400  0.26209700  0.81233300  1
  H  390  1  0.25172900  0.81940400  0.80597400  1
  H  394  1  0.15249200  0.80086400  0.96650200  1
  H  396  1  0.20310000  0.85185700  0.03672300  1
  H  397  1  0.16355000  0.80638500  0.04913800  1
  H  398  1  0.15508800  0.86346300  0.06905600  1
  H  400  1  0.07509200  0.86938400  0.03903500  1
  H  401  1  0.07833900  0.81269300  0.01714900  1
  H  402  1  0.06747000  0.86188800  0.98581000  1
  H  404  1  0.24906900  0.94785300  0.87655900  1
  H  406  1  0.22264600  0.74009500  0.81190800  1
  H  413  1  0.68165800  0.75456600  0.30620000  1
  H  417  1  0.70223200  0.65680100  0.46601600  1
  H  419  1  0.65152500  0.70783500  0.53669200  1
  H  420  1  0.69746900  0.66882000  0.54867100  1
  H  421  1  0.64068700  0.66010900  0.56897900  1
  H  423  1  0.63504800  0.57972600  0.53877700  1
  H  424  1  0.69149200  0.58315800  0.51652900  1
  H  425  1  0.64206500  0.57153200  0.48548200  1
  H  427  1  0.55376800  0.75170200  0.37757000  1
  H  429  1  0.76133700  0.72598100  0.31163100  1
  H  436  1  0.31927100  0.25472400  0.30618500  1
  H  440  1  0.29769100  0.35222700  0.46771600  1
  H  442  1  0.34751100  0.30063000  0.53730000  1
  H  443  1  0.30193500  0.34008000  0.55026400  1
  H  444  1  0.35875500  0.34814200  0.57022500  1
  H  446  1  0.36511500  0.42859900  0.54125100  1
  H  447  1  0.30877200  0.42572100  0.51929800  1
  H  448  1  0.35847300  0.43699500  0.48812500  1
  H  450  1  0.44638700  0.25679400  0.37713100  1
  H  452  1  0.23969100  0.28316800  0.31239200  1
  H  459  1  0.24689200  0.32096200  0.91856200  1
  H  463  1  0.34708600  0.29903000  0.75832300  1
  H  465  1  0.29622500  0.34760000  0.68751600  1
  H  466  1  0.33654200  0.30246600  0.67548800  1
  H  467  1  0.34428100  0.35923300  0.65540400  1
  H  469  1  0.42398500  0.36695100  0.68581800  1
  H  470  1  0.42140200  0.31072800  0.70796000  1
  H  471  1  0.43131600  0.36080000  0.73912200  1
  H  473  1  0.24867000  0.44728500  0.84714200  1
  H  475  1  0.27580800  0.24167000  0.91308600  1
  H  482  1  0.75674300  0.68507300  0.91907900  1
  H  486  1  0.65274100  0.70381900  0.76176500  1
  H  488  1  0.70222800  0.65513200  0.68918900  1
  H  489  1  0.66106600  0.69968500  0.67875400  1
  H  490  1  0.65346100  0.64267000  0.65851100  1
  H  492  1  0.57475800  0.63412300  0.69139300  1
  H  493  1  0.57719600  0.69060200  0.71376300  1
  H  494  1  0.56877700  0.64071700  0.74493900  1
  H  496  1  0.75294600  0.55721800  0.84846600  1
  H  498  1  0.72766100  0.76421900  0.91423900  1
  H  505  1  0.18110000  0.74783000  0.41849000  1
  H  509  1  0.20398800  0.84822200  0.25981300  1
  H  511  1  0.15498600  0.79807900  0.18818800  1
  H  512  1  0.20070800  0.83780800  0.17692100  1
  H  513  1  0.14415400  0.84634500  0.15664100  1
  H  515  1  0.13723800  0.92606000  0.18808400  1
  H  516  1  0.19335200  0.92274000  0.21040500  1
  H  517  1  0.14330400  0.93323600  0.24150400  1
  H  519  1  0.05484700  0.75096900  0.34700600  1
  H  521  1  0.26057600  0.77652300  0.41376500  1
  H  528  1  0.81749400  0.25716700  0.41964400  1
  H  532  1  0.79950200  0.15360700  0.26068200  1
  H  534  1  0.84785600  0.20370500  0.18890000  1
  H  535  1  0.80375200  0.16213100  0.17772900  1
  H  536  1  0.86090900  0.15513300  0.15761400  1
  H  538  1  0.87006900  0.07642500  0.18945000  1
  H  539  1  0.81352300  0.07828800  0.21167300  1
  H  540  1  0.86341500  0.07027100  0.24289500  1
  H  542  1  0.94536600  0.25468200  0.34902000  1
  H  544  1  0.73850100  0.22798600  0.41406300  1
  C  1  1  0.70054300  0.90738500  0.91891000  1
  C  2  1  0.70518600  0.85894400  0.91113800  1
  C  3  1  0.67457100  0.83457300  0.88443500  1
  C  4  1  0.63730400  0.85896000  0.86648200  1
  C  5  1  0.62964600  0.90630000  0.87598300  1
  C  6  1  0.66081500  0.92951900  0.90220300  1
  C  10  1  0.73517100  0.93376000  0.94011800  1
  C  11  1  0.76366000  0.91547100  0.97151700  1
  C  12  1  0.79707700  0.94329800  0.99226100  1
  C  13  1  0.80506600  0.98928400  0.97866800  1
  C  14  1  0.77978700  0.00811000  0.94569700  1
  C  15  1  0.74444300  0.98018100  0.92813300  1
  C  23  1  0.30108300  0.09810200  0.91553500  1
  C  24  1  0.29722400  0.14665800  0.90869000  1
  C  25  1  0.32815900  0.17065100  0.88200400  1
  C  26  1  0.36531400  0.14589000  0.86352100  1
  C  27  1  0.37241500  0.09841900  0.87224300  1
  C  28  1  0.34043000  0.07548100  0.89794100  1
  C  32  1  0.26625300  0.07209600  0.93689400  1
  C  33  1  0.23823200  0.09068400  0.96901700  1
  C  34  1  0.20493300  0.06312600  0.99016700  1
  C  35  1  0.19684100  0.01696500  0.97657200  1
  C  36  1  0.22183300  0.99770600  0.94312700  1
  C  37  1  0.25670600  0.02558800  0.92479600  1
  C  45  1  0.40394000  0.80328200  0.41810000  1
  C  46  1  0.35556100  0.79868300  0.41050500  1
  C  47  1  0.33153800  0.82942300  0.38398400  1
  C  48  1  0.35608000  0.86691400  0.36631600  1
  C  49  1  0.40326200  0.87461000  0.37583900  1
  C  50  1  0.42619900  0.84323600  0.40173700  1
  C  54  1  0.43018600  0.76851600  0.43890800  1
  C  55  1  0.41166600  0.73979300  0.47021500  1
  C  56  1  0.43941500  0.70637800  0.49067400  1
  C  57  1  0.48562300  0.69874100  0.47697800  1
  C  58  1  0.50475600  0.72435300  0.44416700  1
  C  59  1  0.47681500  0.75955100  0.42677200  1
  C  67  1  0.59503500  0.20278900  0.41659300  1
  C  68  1  0.64371200  0.20646300  0.40981400  1
  C  69  1  0.66803500  0.17546600  0.38308400  1
  C  70  1  0.64343000  0.13842100  0.36450800  1
  C  71  1  0.59577800  0.13150300  0.37315900  1
  C  72  1  0.57252400  0.16359100  0.39885700  1
  C  76  1  0.56889600  0.23771600  0.43805500  1
  C  77  1  0.58719900  0.26557200  0.47024000  1
  C  78  1  0.55955000  0.29898200  0.49152400  1
  C  79  1  0.51368100  0.30748500  0.47790300  1
  C  80  1  0.49478800  0.28274700  0.44433000  1
  C  81  1  0.52264800  0.24760900  0.42597700  1
  C  89  1  0.19586400  0.59672100  0.80992900  1
  C  90  1  0.20053700  0.64528600  0.81690700  1
  C  91  1  0.17074200  0.66993200  0.84442300  1
  C  92  1  0.13420700  0.64571200  0.86401600  1
  C  93  1  0.12655800  0.59817200  0.85545800  1
  C  94  1  0.15700800  0.57459700  0.82850900  1
  C  98  1  0.22968400  0.57031400  0.78745800  1
  C  99  1  0.25605700  0.58831200  0.75429200  1
  C  100  1  0.28893600  0.56081600  0.73252100  1
  C  101  1  0.29749700  0.51463000  0.74568800  1
  C  102  1  0.27411100  0.49597700  0.78009400  1
  C  103  1  0.23995600  0.52417700  0.79948200  1
  C  111  1  0.80384200  0.40620100  0.81153000  1
  C  112  1  0.80018300  0.35750600  0.81767800  1
  C  113  1  0.83006900  0.33350500  0.84494600  1
  C  114  1  0.86599700  0.35836000  0.86476600  1
  C  115  1  0.87292400  0.40603300  0.85683900  1
  C  116  1  0.84202300  0.42900100  0.83048900  1
  C  120  1  0.76978200  0.43217400  0.78957100  1
  C  121  1  0.74375700  0.41397700  0.75629300  1
  C  122  1  0.71094900  0.44128900  0.73491400  1
  C  123  1  0.70254500  0.48770300  0.74826700  1
  C  124  1  0.72572500  0.50669600  0.78262300  1
  C  125  1  0.75919400  0.47834700  0.80202000  1
  C  133  1  0.90498000  0.69931000  0.30943300  1
  C  134  1  0.85638500  0.70395400  0.31630300  1
  C  135  1  0.83183500  0.67440100  0.34371500  1
  C  136  1  0.85608800  0.63804300  0.36313900  1
  C  137  1  0.90361100  0.63033400  0.35456400  1
  C  138  1  0.92710000  0.66052200  0.32773000  1
  C  142  1  0.93145300  0.73306500  0.28735700  1
  C  143  1  0.91356500  0.75947700  0.25444700  1
  C  144  1  0.94116600  0.79228300  0.23310500  1
  C  145  1  0.98743800  0.80057400  0.24635500  1
  C  146  1  0.00605200  0.77709000  0.28048000  1
  C  147  1  0.97764100  0.74317700  0.29951700  1
  C  155  1  0.09576300  0.30720600  0.31210400  1
  C  156  1  0.14448600  0.30375300  0.31814800  1
  C  157  1  0.16853200  0.33395700  0.34550500  1
  C  158  1  0.14364700  0.37006300  0.36545300  1
  C  159  1  0.09592500  0.37680300  0.35758500  1
  C  160  1  0.07289300  0.34545800  0.33128500  1
  C  164  1  0.06990300  0.27293100  0.28988300  1
  C  165  1  0.08822500  0.24694200  0.25635600  1
  C  166  1  0.06107000  0.21397800  0.23460600  1
  C  167  1  0.01478000  0.20521700  0.24792600  1
  C  168  1  0.99573300  0.22830000  0.28255800  1
  C  169  1  0.02381500  0.26211800  0.30223400  1
  C  177  1  0.53631200  0.96549800  0.82665900  1
  C  179  1  0.51094200  0.03964200  0.80201000  1
  C  180  1  0.47197700  0.03870700  0.82859300  1
  C  182  1  0.49626600  0.96323200  0.85236400  1
  C  185  1  0.48924200  0.88562100  0.87482900  1
  C  188  1  0.43693500  0.82752700  0.89979400  1
  C  192  1  0.51911900  0.83243200  0.92400800  1
  C  196  1  0.57299300  0.93476500  0.82897400  1
  C  198  1  0.44089500  0.07545300  0.83240000  1
  C  200  1  0.46321600  0.96803400  0.32684900  1
  C  202  1  0.53805300  0.99304500  0.30270000  1
  C  203  1  0.53653800  0.03219900  0.32911100  1
  C  205  1  0.46040400  0.00824700  0.35240000  1
  C  208  1  0.38226900  0.01482600  0.37487500  1
  C  211  1  0.32272900  0.06683000  0.39839100  1
  C  215  1  0.32961200  0.98609000  0.42559100  1
  C  219  1  0.43244400  0.93136300  0.32906500  1
  C  221  1  0.57329200  0.06317800  0.33311100  1
  C  223  1  0.03307900  0.54019800  0.90630900  1
  C  225  1  0.00820400  0.46539200  0.93002400  1
  C  226  1  0.96947700  0.46646100  0.90358000  1
  C  228  1  0.99321100  0.54259200  0.88081600  1
  C  231  1  0.98626000  0.62042900  0.85879100  1
  C  234  1  0.93398400  0.67871000  0.83462100  1
  C  238  1  0.01607400  0.67366600  0.80930800  1
  C  242  1  0.06971300  0.57093900  0.90361400  1
  C  244  1  0.93903700  0.42936700  0.89892600  1
  C  246  1  0.96188900  0.53813500  0.40599500  1
  C  248  1  0.03675900  0.51382600  0.42987600  1
  C  249  1  0.03558900  0.47440400  0.40377900  1
  C  251  1  0.95942300  0.49761000  0.38084600  1
  C  254  1  0.88152300  0.49021000  0.35892700  1
  C  257  1  0.82305700  0.43744900  0.33523300  1
  C  261  1  0.82823400  0.51885500  0.30922400  1
  C  265  1  0.93128700  0.57481700  0.40299600  1
  C  267  1  0.07269200  0.44387100  0.39932700  1
  C  269  1  0.84308300  0.88411500  0.08124000  1
  C  271  1  0.90664200  0.90317400  0.12574800  1
  C  272  1  0.90298600  0.85961600  0.14539000  1
  C  274  1  0.84012200  0.83961300  0.09994900  1
  C  277  1  0.80211100  0.78887100  0.05451000  1
  C  280  1  0.72779300  0.77247900  0.02552100  1
  C  284  1  0.78632100  0.70967500  0.03645000  1
  C  288  1  0.81169400  0.89908000  0.05199900  1
  C  290  1  0.93174000  0.84702700  0.17756000  1
  C  292  1  0.15955800  0.12284200  0.08035300  1
  C  294  1  0.09640700  0.10333900  0.12554900  1
  C  295  1  0.09988400  0.14692600  0.14569400  1
  C  297  1  0.16232400  0.16737200  0.09958000  1
  C  300  1  0.19959300  0.21842500  0.05422800  1
  C  303  1  0.27355000  0.23529700  0.02419700  1
  C  307  1  0.21475400  0.29773400  0.03702100  1
  C  311  1  0.19073900  0.10809000  0.05034100  1
  C  313  1  0.07118300  0.15929400  0.17841000  1
  C  315  1  0.37993000  0.65972300  0.57985900  1
  C  317  1  0.39915000  0.59569000  0.62347700  1
  C  318  1  0.35577400  0.59932200  0.64393500  1
  C  320  1  0.33557800  0.66262000  0.59935600  1
  C  323  1  0.28433400  0.70075000  0.55516700  1
  C  326  1  0.26794000  0.77488600  0.52608800  1
  C  330  1  0.20490200  0.71706300  0.53931400  1
  C  334  1  0.39470600  0.69127300  0.55054100  1
  C  336  1  0.34335500  0.57034500  0.67609900  1
  C  338  1  0.61874600  0.34363300  0.58161500  1
  C  340  1  0.59961700  0.40653800  0.62750400  1
  C  341  1  0.64331100  0.40286000  0.64692800  1
  C  343  1  0.66338800  0.34067500  0.60009600  1
  C  346  1  0.71387400  0.30307500  0.55374600  1
  C  349  1  0.73044000  0.22874100  0.52404400  1
  C  353  1  0.79289700  0.28791600  0.53459500  1
  C  357  1  0.60376200  0.31262000  0.55170100  1
  C  359  1  0.65592100  0.43135000  0.67961400  1
  C  361  1  0.78414400  0.11996700  0.88640100  1
  C  363  1  0.76790300  0.17556700  0.83381300  1
  C  364  1  0.79450700  0.20958700  0.85433100  1
  C  366  1  0.81067900  0.15400300  0.90763300  1
  C  369  1  0.84653000  0.17154400  0.97125400  1
  C  372  1  0.83257000  0.16566800  0.04338800  1
  C  376  1  0.91270700  0.15879700  0.01393200  1
  C  380  1  0.77434800  0.07403500  0.89831700  1
  C  382  1  0.79787600  0.25463400  0.83823300  1
  C  384  1  0.21809100  0.88407300  0.88498000  1
  C  386  1  0.23483100  0.82687000  0.83295600  1
  C  387  1  0.20753700  0.79366000  0.85364400  1
  C  389  1  0.19093600  0.85083600  0.90642600  1
  C  392  1  0.15385400  0.83535100  0.97006000  1
  C  395  1  0.16645000  0.84348200  0.04217200  1
  C  399  1  0.08687200  0.84937800  0.01229800  1
  C  403  1  0.22793600  0.93030700  0.89643500  1
  C  405  1  0.20394000  0.74826900  0.83779200  1
  C  407  1  0.61783200  0.72108400  0.38531900  1
  C  409  1  0.67450300  0.73780100  0.33310200  1
  C  410  1  0.70804800  0.71084400  0.35344100  1
  C  412  1  0.65140200  0.69423100  0.40639400  1
  C  415  1  0.66776800  0.65793400  0.46979200  1
  C  418  1  0.66027100  0.67132200  0.54198200  1
  C  422  1  0.65469000  0.59134700  0.51193900  1
  C  426  1  0.57166400  0.73076400  0.39715100  1
  C  428  1  0.75336100  0.70739500  0.33740300  1
  C  430  1  0.38243000  0.28764700  0.38566000  1
  C  432  1  0.32621000  0.27136500  0.33333333  1
  C  433  1  0.29252200  0.29827900  0.35424800  1
  C  435  1  0.34873100  0.31447600  0.40729700  1
  C  438  1  0.33212400  0.35085600  0.47127500  1
  C  441  1  0.33912100  0.33721600  0.54322500  1
  C  445  1  0.34552600  0.41722500  0.51435800  1
  C  449  1  0.42842400  0.27762100  0.39720600  1
  C  451  1  0.24735500  0.30174300  0.33840100  1
  C  453  1  0.28007100  0.38365700  0.83897800  1
  C  455  1  0.26376300  0.32776700  0.89151900  1
  C  456  1  0.29128800  0.29415200  0.87113600  1
  C  458  1  0.30751300  0.35002200  0.81787300  1
  C  461  1  0.34519900  0.33333333  0.75452100  1
  C  464  1  0.33303300  0.33966200  0.68229700  1
  C  468  1  0.41229900  0.34739400  0.71258400  1
  C  472  1  0.26969900  0.42948500  0.82714500  1
  C  474  1  0.29490000  0.24919000  0.88738300  1
  C  476  1  0.72174800  0.62074600  0.84064500  1
  C  478  1  0.73937000  0.67775900  0.89247500  1
  C  479  1  0.71159000  0.71102100  0.87264600  1
  C  481  1  0.69410800  0.65403700  0.82004500  1
  C  484  1  0.65488000  0.66942300  0.75779800  1
  C  487  1  0.66520300  0.66258600  0.68518600  1
  C  491  1  0.58689800  0.65410300  0.71789400  1
  C  495  1  0.73152600  0.57452400  0.82892000  1
  C  497  1  0.70828800  0.75628600  0.88889800  1
  C  499  1  0.11866300  0.78189000  0.33932800  1
  C  501  1  0.17444100  0.76486100  0.39168600  1
  C  502  1  0.20823300  0.79230700  0.37183000  1
  C  504  1  0.15250600  0.80918100  0.31870400  1
  C  507  1  0.16961000  0.84677200  0.25589600  1
  C  510  1  0.16343400  0.83478600  0.18349400  1
  C  514  1  0.15656000  0.91409000  0.21477400  1
  C  518  1  0.07272800  0.77197500  0.32732800  1
  C  520  1  0.25316200  0.79569200  0.38829100  1
  C  522  1  0.88200300  0.22307100  0.34071300  1
  C  524  1  0.82491800  0.23997100  0.39278200  1
  C  525  1  0.79179700  0.21215600  0.37242800  1
  C  527  1  0.84889500  0.19529200  0.31965300  1
  C  530  1  0.83387900  0.15608300  0.25682300  1
  C  533  1  0.84078500  0.16661800  0.18436600  1
  C  537  1  0.84991700  0.08832300  0.21605100  1
  C  541  1  0.92812100  0.23327400  0.32913900  1
  C  543  1  0.74650700  0.20865900  0.38849900  1
  N  19  1  0.79047600  0.05167500  0.93200000  1
  N  20  1  0.82302400  0.92719300  0.02298800  1
  N  21  1  0.59301000  0.93029600  0.86380900  1
  N  22  1  0.67939200  0.78899100  0.87377200  1
  N  41  1  0.21143600  0.95370800  0.92988800  1
  N  42  1  0.17936300  0.07943400  0.02151400  1
  N  43  1  0.40757200  0.07266100  0.85866200  1
  N  44  1  0.32353600  0.21616800  0.87166100  1
  N  63  1  0.54864700  0.71409800  0.43051800  1
  N  64  1  0.42319500  0.68025700  0.52137900  1
  N  65  1  0.42737900  0.91135500  0.36386600  1
  N  66  1  0.28614500  0.82456100  0.37324800  1
  N  85  1  0.45115500  0.29360700  0.43096300  1
  N  86  1  0.57570200  0.32440200  0.52289000  1
  N  87  1  0.57010500  0.09647700  0.35943900  1
  N  88  1  0.71373800  0.17996700  0.37278400  1
  N  107  1  0.28515000  0.45225700  0.79323100  1
  N  108  1  0.30890600  0.58053700  0.69993300  1
  N  109  1  0.09002400  0.57453200  0.86863200  1
  N  110  1  0.17569600  0.71568400  0.85429800  1
  N  129  1  0.71537200  0.55092900  0.79555800  1
  N  130  1  0.69105300  0.42143200  0.70227400  1
  N  131  1  0.90705200  0.43193100  0.87172300  1
  N  132  1  0.82549300  0.28784300  0.85471100  1
  N  151  1  0.04992700  0.78774200  0.29368100  1
  N  152  1  0.92151900  0.81236100  0.20072600  1
  N  153  1  0.92735200  0.59407300  0.36780500  1
  N  154  1  0.78611300  0.67937800  0.35365200  1
  N  173  1  0.95168100  0.21749500  0.29547100  1
  N  174  1  0.08101100  0.19423700  0.20173900  1
  N  175  1  0.07005400  0.41120400  0.37237900  1
  N  176  1  0.21425600  0.32951700  0.35516600  1
  N  178  1  0.54175000  0.00374600  0.80268800  1
  N  181  1  0.46691900  0.00024000  0.85245200  1
  N  184  1  0.48640200  0.93000200  0.87908600  1
  N  186  1  0.47792100  0.85791100  0.90799500  1
  N  201  1  0.50206000  0.96234000  0.30321900  1
  N  204  1  0.49747500  0.03751500  0.35263300  1
  N  207  1  0.42656100  0.01854100  0.37881100  1
  N  209  1  0.35410900  0.02707400  0.40783700  1
  N  224  1  0.03873700  0.50154600  0.92967400  1
  N  227  1  0.96425100  0.50532300  0.88031300  1
  N  230  1  0.98331600  0.57607300  0.85444200  1
  N  232  1  0.97488000  0.64825700  0.82583600  1
  N  247  1  0.00064500  0.54439000  0.42924400  1
  N  250  1  0.99666800  0.46860300  0.38057600  1
  N  253  1  0.92586300  0.48706600  0.35458000  1
  N  255  1  0.85358800  0.47804000  0.32608400  1
  N  270  1  0.87650500  0.91380800  0.09521200  1
  N  273  1  0.86965600  0.82994300  0.13120400  1
  N  276  1  0.80980700  0.80656400  0.09014300  1
  N  278  1  0.76759600  0.75551500  0.05046400  1
  N  293  1  0.12642500  0.09292200  0.09442900  1
  N  296  1  0.13291100  0.17684500  0.13140000  1
  N  299  1  0.19234200  0.20062400  0.08973800  1
  N  301  1  0.23387200  0.25199300  0.05006200  1
  N  316  1  0.40962700  0.62607400  0.59301000  1
  N  319  1  0.32607900  0.63285700  0.63055000  1
  N  322  1  0.30259300  0.69315700  0.59037300  1
  N  324  1  0.25120600  0.73552400  0.55182700  1
  N  339  1  0.58896000  0.37672700  0.59637200  1
  N  342  1  0.67308100  0.36986900  0.63195000  1
  N  345  1  0.69655500  0.31064800  0.58960600  1
  N  347  1  0.74748500  0.26885000  0.54904600  1
  N  362  1  0.76410500  0.13288000  0.85051900  1
  N  365  1  0.81458000  0.19719100  0.89046300  1
  N  368  1  0.82888900  0.14453500  0.94392500  1
  N  370  1  0.86188600  0.15190300  0.00742300  1
  N  385  1  0.23867200  0.86998800  0.84929500  1
  N  388  1  0.18693100  0.80721700  0.88959600  1
  N  391  1  0.17204900  0.86149200  0.94251800  1
  N  393  1  0.13781400  0.85610800  0.00593700  1
  N  408  1  0.63149700  0.74151600  0.34970100  1
  N  411  1  0.69490300  0.69039800  0.38931900  1
  N  414  1  0.64122500  0.67564000  0.44247800  1
  N  416  1  0.64749300  0.64215600  0.50575600  1
  N  431  1  0.36903900  0.26744200  0.34973500  1
  N  434  1  0.30538200  0.31851400  0.39043700  1
  N  437  1  0.35871900  0.33295000  0.44359600  1
  N  439  1  0.35231000  0.36637100  0.50736200  1
  N  454  1  0.25963200  0.37038000  0.87479500  1
  N  457  1  0.31185000  0.30688600  0.83508500  1
  N  460  1  0.32645500  0.35996900  0.78179300  1
  N  462  1  0.36122000  0.35351700  0.71862400  1
  N  477  1  0.74294000  0.63474100  0.87586800  1
  N  480  1  0.69030100  0.69757800  0.83717300  1
  N  483  1  0.67446100  0.64338900  0.78447600  1
  N  485  1  0.63819300  0.64870200  0.72230400  1
  N  500  1  0.13179900  0.76115500  0.37483500  1
  N  503  1  0.19564900  0.81314400  0.33608300  1
  N  506  1  0.14276900  0.82830200  0.28285600  1
  N  508  1  0.14978000  0.86308400  0.22013100  1
  N  523  1  0.86789900  0.24394200  0.37627800  1
  N  526  1  0.80536900  0.19113400  0.33664200  1
  N  529  1  0.85970200  0.17583300  0.28382600  1
  N  531  1  0.85481900  0.13965600  0.22116600  1
