# generated using pymatgen
data_H7C12O
_symmetry_space_group_name_H-M   'P 1'
_cell_length_a   34.79057874
_cell_length_b   34.79057874
_cell_length_c   34.79057874
_cell_angle_alpha   109.47122063
_cell_angle_beta   109.47122063
_cell_angle_gamma   109.47122063
_symmetry_Int_Tables_number   1
_chemical_formula_structural   H7C12O
_chemical_formula_sum   'H168 C288 O24'
_cell_volume   32416.27209281
_cell_formula_units_Z   24
loop_
 _symmetry_equiv_pos_site_id
 _symmetry_equiv_pos_as_xyz
  1  'x, y, z'
loop_
 _atom_site_type_symbol
 _atom_site_label
 _atom_site_symmetry_multiplicity
 _atom_site_fract_x
 _atom_site_fract_y
 _atom_site_fract_z
 _atom_site_occupancy
  C  1  1  0.66465400  0.33688400  0.31082800  1
  C  2  1  0.66549850  0.32119000  0.26763250  1
  C  3  1  0.66690450  0.34627850  0.24282400  1
  C  4  1  0.66871350  0.39007600  0.26232250  1
  C  5  1  0.66638750  0.40716850  0.30407500  1
  C  6  1  0.66479600  0.38056350  0.32735150  1
  C  9  1  0.66464550  0.31065700  0.33673950  1
  C  10  1  0.66477000  0.26711000  0.32034500  1
  C  11  1  0.66632600  0.24207400  0.34519100  1
  C  12  1  0.66865200  0.26150050  0.38926550  1
  C  13  1  0.66689600  0.30351650  0.40699950  1
  C  14  1  0.66549450  0.32719900  0.38078250  1
  C  21  1  0.36959000  0.66327050  0.68932550  1
  C  22  1  0.36861600  0.61916700  0.67271100  1
  C  23  1  0.36722400  0.59294900  0.69639200  1
  C  24  1  0.36553000  0.61069750  0.73844350  1
  C  25  1  0.36794500  0.65481200  0.75791200  1
  C  26  1  0.36958200  0.67971100  0.73293000  1
  C  29  1  0.36959450  0.68919700  0.66311550  1
  C  30  1  0.36959150  0.67275450  0.61950400  1
  C  31  1  0.36795500  0.69601950  0.59288650  1
  C  32  1  0.36555600  0.73772900  0.60995700  1
  C  33  1  0.36725150  0.75716350  0.65369900  1
  C  34  1  0.36862500  0.73232800  0.67876100  1
  C  41  1  0.99106050  0.66314400  0.31060250  1
  C  42  1  0.96356550  0.67879000  0.32719750  1
  C  43  1  0.91366750  0.65372000  0.30350750  1
  C  44  1  0.88936650  0.60994550  0.26148900  1
  C  45  1  0.91402100  0.59289000  0.24203000  1
  C  46  1  0.96390150  0.61951450  0.26701600  1
  C  49  1  0.04320100  0.68936350  0.33681850  1
  C  50  1  0.07036050  0.73295350  0.38044900  1
  C  51  1  0.12024150  0.75795850  0.40706000  1
  C  52  1  0.14488050  0.73848650  0.38999500  1
  C  53  1  0.12059350  0.69644850  0.34624600  1
  C  54  1  0.07069350  0.67276450  0.32117200  1
  C  61  1  0.04321650  0.33669700  0.68922550  1
  C  62  1  0.07070900  0.38078500  0.73236900  1
  C  63  1  0.12060750  0.40700550  0.75718900  1
  C  64  1  0.14490550  0.38926250  0.73773400  1
  C  65  1  0.12025900  0.34515900  0.69602200  1
  C  66  1  0.07037800  0.32026750  0.67275750  1
  C  69  1  0.99107850  0.31077850  0.66330400  1
  C  70  1  0.96391650  0.32726450  0.67971300  1
  C  71  1  0.91403550  0.30400400  0.65481850  1
  C  72  1  0.88938950  0.26226950  0.61072900  1
  C  73  1  0.91368800  0.24279900  0.59301100  1
  C  74  1  0.96358600  0.26761700  0.61923000  1
  C  81  1  0.35383250  0.68920200  0.02607250  1
  C  82  1  0.39788550  0.73238000  0.05357050  1
  C  83  1  0.42409800  0.75719900  0.10346800  1
  C  84  1  0.40640450  0.73770600  0.12776850  1
  C  85  1  0.36231550  0.69596500  0.10310950  1
  C  86  1  0.33743600  0.67269600  0.05322800  1
  C  89  1  0.32791200  0.66328850  0.97393250  1
  C  90  1  0.34441950  0.67969900  0.94678250  1
  C  91  1  0.32114100  0.65484650  0.89690150  1
  C  92  1  0.27940400  0.61076100  0.87225200  1
  C  93  1  0.25991550  0.59301950  0.89652900  1
  C  94  1  0.28473800  0.61922800  0.94643100  1
  C  101  1  0.68025050  0.31064700  0.97393250  1
  C  102  1  0.69589250  0.32725100  0.94644050  1
  C  103  1  0.67082150  0.30356550  0.89654100  1
  C  104  1  0.62707600  0.26151600  0.87224100  1
  C  105  1  0.61001850  0.24205800  0.89689050  1
  C  106  1  0.63663300  0.26704200  0.94676900  1
  C  109  1  0.70646100  0.33686400  0.02606900  1
  C  110  1  0.75006150  0.38048350  0.05323800  1
  C  111  1  0.77503750  0.40711000  0.10311950  1
  C  112  1  0.75556300  0.39003900  0.12775700  1
  C  113  1  0.71352450  0.34629000  0.10345350  1
  C  114  1  0.68984400  0.32122150  0.05355450  1
  C  121  1  0.68045150  0.68938100  0.35252950  1
  C  122  1  0.63634600  0.67277150  0.35154650  1
  C  123  1  0.61014450  0.69646950  0.35018300  1
  C  124  1  0.62787750  0.73849850  0.34844900  1
  C  125  1  0.67200000  0.75796850  0.35087350  1
  C  126  1  0.69689650  0.73298350  0.35251700  1
  C  129  1  0.70637450  0.66316500  0.35253850  1
  C  130  1  0.68991750  0.61955500  0.35253350  1
  C  131  1  0.71318200  0.59294000  0.35092400  1
  C  132  1  0.75488550  0.60999450  0.34851600  1
  C  133  1  0.77434250  0.65373200  0.35020350  1
  C  134  1  0.74950600  0.67879800  0.35156800  1
  C  141  1  0.35400200  0.31079900  0.64748800  1
  C  142  1  0.33832450  0.26762800  0.64837950  1
  C  143  1  0.36340950  0.24281350  0.64979300  1
  C  144  1  0.40717900  0.26228750  0.65153950  1
  C  145  1  0.42426400  0.30401950  0.64918550  1
  C  146  1  0.39765700  0.32729150  0.64757750  1
  C  149  1  0.32778400  0.33672100  0.64748800  1
  C  150  1  0.28423100  0.32033050  0.64760050  1
  C  151  1  0.25923600  0.34521800  0.64921800  1
  C  152  1  0.27866450  0.38929150  0.65154000  1
  C  153  1  0.32066750  0.40699300  0.64976050  1
  C  154  1  0.34434300  0.38077050  0.64835550  1
  C  161  1  0.32775000  0.97393100  0.66311300  1
  C  162  1  0.34432450  0.94643900  0.67878550  1
  C  163  1  0.32064000  0.89654050  0.65371250  1
  C  164  1  0.27862750  0.87223300  0.60993250  1
  C  165  1  0.25918200  0.89688400  0.59285500  1
  C  166  1  0.28418050  0.94676650  0.61946400  1
  C  169  1  0.35396700  0.02606850  0.68933250  1
  C  170  1  0.39761800  0.05322800  0.73289800  1
  C  171  1  0.42421950  0.10311200  0.75792050  1
  C  172  1  0.40713200  0.12774800  0.73846100  1
  C  173  1  0.36336850  0.10345800  0.69643550  1
  C  174  1  0.33829300  0.05356250  0.67275750  1
  C  181  1  0.70634400  0.02607200  0.33673000  1
  C  182  1  0.74948150  0.05356750  0.38082100  1
  C  183  1  0.77430450  0.10346700  0.40703150  1
  C  184  1  0.75485500  0.12776250  0.38927650  1
  C  185  1  0.71314450  0.10310800  0.34516950  1
  C  186  1  0.68988350  0.05322800  0.32028550  1
  C  189  1  0.68042100  0.97393450  0.31081550  1
  C  190  1  0.69685350  0.94677350  0.32728100  1
  C  191  1  0.67195450  0.89689200  0.30402850  1
  C  192  1  0.62784750  0.87224550  0.26231300  1
  C  193  1  0.61010850  0.89654150  0.24285700  1
  C  194  1  0.63632500  0.94644150  0.26767950  1
  C  201  1  0.32792950  0.64747700  0.33685550  1
  C  202  1  0.28476050  0.64837400  0.32119150  1
  C  203  1  0.25994900  0.64977350  0.34627750  1
  C  204  1  0.27944500  0.65156450  0.39006650  1
  C  205  1  0.32117700  0.64919800  0.40713700  1
  C  206  1  0.34443450  0.64757650  0.38051400  1
  C  209  1  0.35383750  0.64746450  0.31062600  1
  C  210  1  0.33741550  0.64753450  0.26705200  1
  C  211  1  0.36227200  0.64911100  0.24202700  1
  C  212  1  0.40636550  0.65147650  0.26147000  1
  C  213  1  0.42411800  0.64975600  0.30350300  1
  C  214  1  0.39790600  0.64836650  0.32719250  1
  C  221  1  0.70650400  0.35250550  0.66330050  1
  C  222  1  0.68990600  0.35156550  0.61921550  1
  C  223  1  0.71357600  0.35015950  0.59298750  1
  C  224  1  0.75561750  0.34844650  0.61072400  1
  C  225  1  0.77507900  0.35083600  0.65482800  1
  C  226  1  0.75008900  0.35245700  0.67971900  1
  C  229  1  0.68029150  0.35250650  0.68922600  1
  C  230  1  0.63665150  0.35244750  0.67275400  1
  C  231  1  0.61003550  0.35081650  0.69602100  1
  C  232  1  0.62712700  0.34845900  0.73775300  1
  C  233  1  0.67089050  0.35020100  0.75721150  1
  C  234  1  0.69596450  0.35159350  0.73238600  1
  C  481  1  0.65088050  0.50948550  0.30717200  1
  C  482  1  0.63889100  0.46268000  0.29578000  1
  C  483  1  0.66987100  0.45246650  0.32353350  1
  C  484  1  0.71021850  0.49063400  0.36635350  1
  C  485  1  0.72154000  0.53744050  0.37842950  1
  C  486  1  0.69374750  0.54766200  0.34747850  1
  C  491  1  0.38341100  0.67327000  0.87569800  1
  C  492  1  0.39542250  0.67390850  0.84090600  1
  C  493  1  0.36452400  0.67081450  0.79975650  1
  C  494  1  0.32421450  0.67336300  0.79762950  1
  C  495  1  0.31283750  0.67400350  0.83306300  1
  C  496  1  0.34059700  0.67081300  0.87106200  1
  C  501  1  0.81469600  0.49054550  0.12429950  1
  C  502  1  0.85017650  0.53736150  0.15902300  1
  C  503  1  0.88817850  0.54759750  0.20021200  1
  C  504  1  0.89280950  0.50942550  0.20242500  1
  C  505  1  0.85803400  0.46261600  0.16699700  1
  C  506  1  0.81688250  0.45238800  0.12897550  1
  C  511  1  0.21962950  0.32681100  0.69305750  1
  C  512  1  0.18413750  0.32602100  0.70437750  1
  C  513  1  0.14611100  0.32916750  0.67660450  1
  C  514  1  0.14146500  0.32671300  0.63378300  1
  C  515  1  0.17621000  0.32601550  0.62170950  1
  C  516  1  0.21740900  0.32924450  0.65268350  1
  C  521  1  0.34382300  0.69292550  0.20237850  1
  C  522  1  0.34311850  0.70427750  0.16692200  1
  C  523  1  0.34633600  0.67651150  0.12894950  1
  C  524  1  0.34382950  0.63367250  0.12427600  1
  C  525  1  0.34309900  0.62160750  0.15901650  1
  C  526  1  0.34630000  0.65257600  0.20020400  1
  C  531  1  0.50768900  0.12430300  0.79754200  1
  C  532  1  0.55449950  0.15902950  0.83302300  1
  C  533  1  0.56475150  0.20021400  0.87104250  1
  C  534  1  0.52656850  0.20239500  0.87567750  1
  C  535  1  0.47975500  0.16696750  0.84089650  1
  C  536  1  0.46952500  0.12896550  0.79972150  1
  C  541  1  0.69046600  0.87574150  0.36631950  1
  C  542  1  0.69112550  0.84096150  0.37834400  1
  C  543  1  0.68798950  0.79979600  0.34741850  1
  C  544  1  0.69046250  0.79761450  0.30706500  1
  C  545  1  0.69108950  0.83303350  0.29567400  1
  C  546  1  0.68794100  0.87104500  0.32346700  1
  C  551  1  0.52660150  0.30703200  0.63375050  1
  C  552  1  0.47979550  0.29567750  0.62171600  1
  C  553  1  0.46954550  0.32345350  0.65263700  1
  C  554  1  0.50772650  0.36626500  0.69300150  1
  C  555  1  0.55454250  0.37834850  0.70435700  1
  C  556  1  0.56475350  0.34737450  0.67659400  1
  C  561  1  0.14140750  0.79759750  0.49052100  1
  C  562  1  0.17614900  0.83305400  0.53733600  1
  C  563  1  0.21735300  0.87102950  0.54756950  1
  C  564  1  0.21958800  0.87564800  0.50940300  1
  C  565  1  0.18411050  0.84093750  0.46258900  1
  C  566  1  0.14609700  0.79976950  0.45236150  1
  C  571  1  0.71016400  0.20244700  0.32676000  1
  C  572  1  0.72149850  0.16697150  0.32600600  1
  C  573  1  0.69372450  0.12894800  0.32916150  1
  C  574  1  0.65086550  0.12426350  0.32662700  1
  C  575  1  0.63885950  0.15907050  0.32602400  1
  C  576  1  0.66981300  0.20026350  0.32922950  1
  C  581  1  0.32423300  0.63374500  0.50946000  1
  C  582  1  0.31287050  0.62173850  0.46265500  1
  C  583  1  0.34065500  0.65270200  0.45243900  1
  C  584  1  0.38349050  0.69303450  0.49061400  1
  C  585  1  0.39549900  0.70440600  0.53741800  1
  C  586  1  0.36454450  0.67660650  0.54761900  1
  C  591  1  0.89283800  0.36626250  0.67323250  1
  C  592  1  0.85806750  0.37829550  0.67391100  1
  C  593  1  0.81691450  0.34739450  0.67080900  1
  C  594  1  0.81474350  0.30703750  0.67326800  1
  C  595  1  0.85020900  0.29568700  0.67400100  1
  C  596  1  0.88818400  0.32345000  0.67078600  1
  C  721  1  0.38265650  0.49063900  0.69371850  1
  C  722  1  0.39455100  0.53740700  0.70502200  1
  C  723  1  0.36352150  0.54752250  0.67718400  1
  C  724  1  0.32319900  0.50929300  0.63439400  1
  C  725  1  0.31197950  0.46252850  0.62241600  1
  C  726  1  0.33984100  0.45238900  0.65340500  1
  C  731  1  0.65150350  0.32831100  0.12511150  1
  C  732  1  0.63958300  0.32766150  0.15995550  1
  C  733  1  0.67055250  0.33076250  0.20107300  1
  C  734  1  0.71087200  0.32828250  0.20314650  1
  C  735  1  0.72215850  0.32765850  0.16766300  1
  C  736  1  0.69430050  0.33079500  0.12966450  1
  C  741  1  0.22031550  0.50936500  0.87483050  1
  C  742  1  0.18480500  0.46258550  0.84003850  1
  C  743  1  0.14683100  0.45245400  0.79888800  1
  C  744  1  0.14225350  0.49067150  0.79677200  1
  C  745  1  0.17706650  0.53743850  0.83226900  1
  C  746  1  0.21818800  0.54759550  0.87028250  1
  C  751  1  0.81390850  0.67157100  0.30610450  1
  C  752  1  0.84943600  0.67232300  0.29485700  1
  C  753  1  0.88743100  0.66918700  0.32271600  1
  C  754  1  0.89201600  0.67168050  0.36552550  1
  C  755  1  0.85721950  0.67240050  0.37750400  1
  C  756  1  0.81606000  0.66920550  0.34648950  1
  C  761  1  0.68883800  0.30619300  0.79686600  1
  C  762  1  0.68952150  0.29492550  0.83236800  1
  C  763  1  0.68632400  0.32276650  0.87031550  1
  C  764  1  0.68882050  0.36557500  0.87489550  1
  C  765  1  0.68955900  0.37753900  0.84009600  1
  C  766  1  0.68641350  0.34654300  0.79895550  1
  C  771  1  0.52644350  0.87485250  0.20323100  1
  C  772  1  0.47967000  0.84007000  0.16770200  1
  C  773  1  0.46950900  0.79892950  0.12969750  1
  C  774  1  0.50775850  0.79683050  0.12516700  1
  C  775  1  0.55452900  0.83231450  0.16000350  1
  C  776  1  0.56468900  0.87031900  0.20113400  1
  C  781  1  0.34541600  0.12512350  0.63443650  1
  C  782  1  0.34478600  0.15996900  0.62251200  1
  C  783  1  0.34791200  0.20109200  0.65349800  1
  C  784  1  0.34542100  0.20319150  0.69381550  1
  C  785  1  0.34477000  0.16770200  0.70509800  1
  C  786  1  0.34787700  0.12968350  0.67723350  1
  C  791  1  0.50776350  0.69380250  0.36546300  1
  C  792  1  0.55453800  0.70509950  0.37740450  1
  C  793  1  0.56469350  0.67725400  0.34642550  1
  C  794  1  0.52647150  0.63445150  0.30610100  1
  C  795  1  0.47969300  0.62244850  0.29484950  1
  C  796  1  0.46953500  0.65344050  0.32267850  1
  C  801  1  0.89199450  0.20315950  0.50935800  1
  C  802  1  0.85718650  0.16765750  0.46258300  1
  C  803  1  0.81603250  0.12970250  0.45245700  1
  C  804  1  0.81390250  0.12516200  0.49068550  1
  C  805  1  0.84945100  0.15992850  0.53745450  1
  C  806  1  0.88745750  0.20105750  0.54760500  1
  C  811  1  0.32321800  0.79680650  0.67163450  1
  C  812  1  0.31197800  0.83233250  0.67236350  1
  C  813  1  0.33983750  0.87032000  0.66921750  1
  C  814  1  0.38266200  0.87490250  0.67175150  1
  C  815  1  0.39455700  0.84003300  0.67236500  1
  C  816  1  0.36356250  0.79888900  0.66921150  1
  C  821  1  0.71088150  0.36550500  0.49062950  1
  C  822  1  0.72219350  0.37743800  0.53740850  1
  C  823  1  0.69435600  0.34643700  0.54755000  1
  C  824  1  0.65154200  0.30611800  0.50934300  1
  C  825  1  0.63960000  0.29483200  0.46257200  1
  C  826  1  0.67055450  0.32268650  0.45240400  1
  C  831  1  0.14228150  0.63446450  0.32836600  1
  C  832  1  0.17710300  0.62251450  0.32770450  1
  C  833  1  0.21821950  0.65346800  0.33079750  1
  C  834  1  0.22033350  0.69381100  0.32835150  1
  C  835  1  0.18481250  0.70506900  0.32761150  1
  C  836  1  0.14682250  0.67723500  0.33077250  1
  H  7  1  0.66549450  0.29059900  0.25292750  1
  H  16  1  0.66552600  0.35780300  0.39549900  1
  H  17  1  0.64983950  0.41299950  0.22086900  1
  H  18  1  0.64980200  0.21971500  0.41186600  1
  H  19  1  0.66406300  0.39468100  0.35760600  1
  H  20  1  0.66403850  0.25226400  0.28935850  1
  H  27  1  0.36846250  0.60439950  0.64204200  1
  H  36  1  0.36848400  0.74694850  0.70928150  1
  H  37  1  0.38435850  0.58806000  0.78019750  1
  H  38  1  0.38441350  0.77919250  0.58703700  1
  H  39  1  0.37046233  0.71076283  0.74786350  1
  H  40  1  0.37046783  0.64257300  0.60545483  1
  H  47  1  0.97946050  0.70932400  0.35784550  1
  H  56  1  0.05479750  0.64210650  0.29064800  1
  H  57  1  0.82497800  0.58699400  0.21970300  1
  H  58  1  0.20928250  0.78024350  0.41294800  1
  H  59  1  0.98004083  0.60545583  0.25210700  1
  H  60  1  0.05422750  0.74785700  0.39451450  1
  H  67  1  0.05481350  0.39554250  0.74700200  1
  H  76  1  0.97948050  0.25295800  0.60449750  1
  H  77  1  0.20929650  0.41187700  0.77918350  1
  H  78  1  0.82500050  0.22082000  0.58812250  1
  H  79  1  0.05424750  0.28922700  0.64256250  1
  H  80  1  0.98006233  0.35747850  0.71075083  1
  H  87  1  0.41260550  0.74706500  0.03768350  1
  H  96  1  0.27007150  0.60449000  0.96231750  1
  H  97  1  0.42900200  0.77915950  0.19215050  1
  H  98  1  0.23795150  0.58815850  0.80786500  1
  H  99  1  0.30642700  0.64245950  0.03708850  1
  H  100  1  0.37465550  0.71070300  0.96292150  1
  H  107  1  0.72641150  0.35791850  0.96234100  1
  H  116  1  0.65918500  0.29070050  0.03765650  1
  H  117  1  0.60414850  0.21973650  0.80785600  1
  H  118  1  0.79734000  0.41299150  0.19215050  1
  H  119  1  0.62257533  0.25211550  0.96288983  1
  H  120  1  0.76498700  0.39453567  0.03710567  1
  H  127  1  0.62157350  0.64210600  0.35139650  1
  H  136  1  0.76412200  0.70930800  0.35140400  1
  H  137  1  0.60527200  0.78028250  0.36728750  1
  H  138  1  0.79635300  0.58706900  0.36734900  1
  H  139  1  0.72794633  0.74790550  0.35338583  1
  H  140  1  0.65973500  0.60550800  0.35340500  1
  H  147  1  0.30776900  0.25296600  0.64844800  1
  H  156  1  0.37494750  0.39548200  0.64838350  1
  H  157  1  0.43011650  0.22083500  0.63270050  1
  H  158  1  0.23687350  0.41188650  0.63268900  1
  H  159  1  0.41174750  0.35751650  0.64678500  1
  H  160  1  0.26935850  0.28932700  0.64683450  1
  H  167  1  0.37494750  0.96233300  0.70934350  1
  H  176  1  0.30774500  0.03766600  0.64212200  1
  H  177  1  0.23682200  0.80785400  0.58699600  1
  H  178  1  0.43008550  0.19214350  0.78023400  1
  H  179  1  0.26929150  0.96289500  0.60537250  1
  H  180  1  0.41171200  0.03709700  0.74777800  1
  H  187  1  0.76411050  0.03767450  0.39559000  1
  H  196  1  0.62157050  0.96233450  0.25304300  1
  H  197  1  0.79632200  0.19214750  0.41188850  1
  H  198  1  0.60522750  0.80785600  0.22086050  1
  H  199  1  0.65970050  0.03710267  0.28924117  1
  H  200  1  0.72791683  0.96292583  0.35747400  1
  H  207  1  0.27008300  0.64842750  0.29062850  1
  H  216  1  0.41265400  0.64845550  0.35782550  1
  H  217  1  0.23799600  0.63272950  0.41300750  1
  H  218  1  0.42897300  0.63262550  0.21969150  1
  H  219  1  0.37466200  0.64677267  0.39458367  1
  H  220  1  0.30640000  0.64674350  0.25217450  1
  H  227  1  0.65925600  0.35145050  0.60446650  1
  H  236  1  0.72651400  0.35151150  0.74703850  1
  H  237  1  0.79738450  0.36728300  0.58810150  1
  H  238  1  0.60419800  0.36731150  0.77920850  1
  H  239  1  0.76500150  0.35329800  0.71075950  1
  H  240  1  0.62257183  0.35326683  0.64254300  1
  H  487  1  0.73432500  0.48498700  0.38664700  1
  H  488  1  0.60983450  0.43605350  0.26408600  1
  H  489  1  0.63063850  0.51514050  0.28303700  1
  H  490  1  0.75324800  0.56408200  0.40745800  1
  H  497  1  0.30008600  0.66951550  0.76786850  1
  H  498  1  0.42449300  0.67130000  0.84333400  1
  H  499  1  0.40368950  0.66945050  0.90164100  1
  H  500  1  0.28114900  0.67138200  0.82799700  1
  H  507  1  0.91882050  0.51512850  0.23216500  1
  H  508  1  0.84512300  0.56399600  0.15660400  1
  H  509  1  0.78495650  0.48488950  0.09833000  1
  H  510  1  0.86050850  0.43598650  0.17202500  1
  H  517  1  0.11550450  0.33051450  0.61350100  1
  H  518  1  0.18920750  0.32864150  0.73606600  1
  H  519  1  0.24936450  0.33054150  0.71710600  1
  H  520  1  0.17379500  0.32867350  0.59266650  1
  H  527  1  0.34765400  0.61339900  0.09833300  1
  H  528  1  0.34578750  0.73598100  0.17198850  1
  H  529  1  0.34764300  0.71702250  0.23214450  1
  H  530  1  0.34575450  0.59256600  0.15661350  1
  H  537  1  0.53223750  0.23215200  0.90163450  1
  H  538  1  0.58113300  0.15662050  0.82795850  1
  H  539  1  0.50203300  0.09834250  0.76779750  1
  H  540  1  0.45314750  0.17204700  0.84336950  1
  H  547  1  0.68667100  0.76785950  0.28298350  1
  H  548  1  0.68855850  0.84340850  0.40743700  1
  H  549  1  0.68667650  0.90170650  0.38661100  1
  H  550  1  0.68849800  0.82800800  0.26400500  1
  H  557  1  0.50207100  0.38657800  0.71708700  1
  H  558  1  0.45318400  0.26399300  0.59263100  1
  H  559  1  0.53227400  0.28293900  0.61347500  1
  H  560  1  0.58117700  0.40738300  0.73606200  1
  H  567  1  0.24932600  0.90165200  0.51509100  1
  H  568  1  0.17372700  0.82799850  0.56396850  1
  H  569  1  0.11544250  0.76784000  0.48484050  1
  H  570  1  0.18918750  0.84337650  0.43596900  1
  H  577  1  0.63063100  0.09836850  0.33052750  1
  H  578  1  0.75320800  0.17204950  0.32868750  1
  H  579  1  0.73426350  0.23220100  0.33056250  1
  H  580  1  0.60980450  0.15663100  0.32866850  1
  H  587  1  0.40377700  0.71712200  0.48494700  1
  H  588  1  0.28117850  0.59268250  0.43602600  1
  H  589  1  0.30009350  0.61347850  0.51509500  1
  H  590  1  0.42457150  0.73607700  0.56406850  1
  H  597  1  0.78501050  0.28295850  0.66951200  1
  H  598  1  0.86054950  0.40741000  0.67137450  1
  H  599  1  0.91884150  0.38656850  0.66949300  1
  H  600  1  0.84515100  0.26399350  0.67135650  1
  H  727  1  0.29910000  0.51487100  0.61399000  1
  H  728  1  0.42366450  0.56409150  0.73664500  1
  H  729  1  0.40300400  0.48505250  0.71784850  1
  H  730  1  0.28035300  0.43583050  0.59331850  1
  H  737  1  0.73500300  0.33203750  0.23284450  1
  H  738  1  0.61043600  0.33010300  0.15751200  1
  H  739  1  0.63110550  0.33199600  0.09911950  1
  H  740  1  0.75377900  0.33016150  0.17260350  1
  H  747  1  0.11619950  0.48503200  0.76710750  1
  H  748  1  0.18973600  0.43589800  0.84246300  1
  H  749  1  0.24998200  0.51496300  0.90084300  1
  H  750  1  0.17456600  0.56412900  0.82739200  1
  H  757  1  0.91801750  0.66800000  0.38591550  1
  H  758  1  0.84449950  0.66984150  0.26324500  1
  H  759  1  0.78424950  0.66796000  0.28206650  1
  H  760  1  0.85965750  0.66992150  0.40663200  1
  H  767  1  0.68510000  0.38595150  0.90086850  1
  H  768  1  0.68699100  0.26329800  0.82743500  1
  H  769  1  0.68513700  0.28210350  0.76718050  1
  H  770  1  0.68704850  0.40664550  0.84250600  1
  H  777  1  0.50215650  0.76714450  0.09917200  1
  H  778  1  0.45298350  0.84249250  0.17263500  1
  H  779  1  0.53203000  0.90085150  0.23290050  1
  H  780  1  0.58119300  0.82737000  0.15752200  1
  H  787  1  0.34909650  0.23287050  0.71788800  1
  H  788  1  0.34722200  0.15751450  0.59335950  1
  H  789  1  0.34908550  0.09911550  0.61404000  1
  H  790  1  0.34719250  0.17258650  0.73668000  1
  H  797  1  0.53207100  0.61403800  0.28203400  1
  H  798  1  0.58119950  0.73671250  0.40655200  1
  H  799  1  0.50214850  0.71787850  0.38584300  1
  H  800  1  0.45300700  0.59332800  0.26323600  1
  H  807  1  0.78424450  0.09912050  0.48507200  1
  H  808  1  0.85960550  0.17258500  0.43589250  1
  H  809  1  0.91799100  0.23284300  0.51496400  1
  H  810  1  0.84452300  0.15747600  0.56413500  1
  H  817  1  0.40300600  0.90082850  0.66795950  1
  H  818  1  0.28034750  0.82739850  0.66983000  1
  H  819  1  0.29912250  0.76713500  0.66794950  1
  H  820  1  0.42368100  0.84247450  0.66987450  1
  H  827  1  0.63116200  0.28204500  0.51496000  1
  H  828  1  0.75381900  0.40655750  0.56408050  1
  H  829  1  0.73499450  0.38586900  0.48503850  1
  H  830  1  0.61045050  0.26323950  0.43587800  1
  H  837  1  0.24999750  0.71787850  0.33199600  1
  H  838  1  0.17460750  0.59333450  0.33010200  1
  H  839  1  0.11623000  0.61405200  0.33198100  1
  H  840  1  0.18973850  0.73667950  0.33009700  1
  O  8  1  0.67970700  0.41923000  0.24452800  1
  O  15  1  0.67966100  0.24336100  0.41807400  1
  O  28  1  0.35450500  0.58187800  0.75656600  1
  O  35  1  0.35455150  0.75550850  0.58079000  1
  O  48  1  0.84242450  0.58077450  0.24333700  1
  O  55  1  0.19182050  0.75660800  0.41915850  1
  O  68  1  0.19184950  0.41807750  0.75553100  1
  O  75  1  0.84244450  0.24449600  0.58194050  1
  O  88  1  0.43519250  0.75549050  0.17471200  1
  O  95  1  0.26161200  0.58195950  0.82530350  1
  O  108  1  0.59793300  0.24338150  0.82529650  1
  O  115  1  0.77371250  0.41921650  0.17470000  1
  O  128  1  0.59909150  0.75665600  0.33743250  1
  O  135  1  0.77266750  0.58083050  0.33749500  1
  O  148  1  0.43632250  0.24448600  0.66255650  1
  O  155  1  0.26051200  0.41808550  0.66254850  1
  O  168  1  0.26046900  0.82528450  0.58077850  1
  O  175  1  0.43628850  0.17469200  0.75658650  1
  O  188  1  0.77265600  0.17471000  0.41808300  1
  O  195  1  0.59906150  0.82530350  0.24454800  1
  O  208  1  0.26167600  0.66258450  0.41924050  1
  O  215  1  0.43516800  0.66248600  0.24332400  1
  O  228  1  0.77373950  0.33742850  0.58190300  1
  O  235  1  0.59796250  0.33745500  0.75553550  1
