# generated using pymatgen
data_H10C13N5O
_symmetry_space_group_name_H-M   'P 1'
_cell_length_a   10.01513333
_cell_length_b   31.49710000
_cell_length_c   31.49710000
_cell_angle_alpha   120.00000000
_cell_angle_beta   90.00000000
_cell_angle_gamma   90.00000000
_symmetry_Int_Tables_number   1
_chemical_formula_structural   H10C13N5O
_chemical_formula_sum   'H60 C78 N30 O6'
_cell_volume   8604.55679991
_cell_formula_units_Z   6
loop_
 _symmetry_equiv_pos_site_id
 _symmetry_equiv_pos_as_xyz
  1  'x, y, z'
loop_
 _atom_site_type_symbol
 _atom_site_label
 _atom_site_symmetry_multiplicity
 _atom_site_fract_x
 _atom_site_fract_y
 _atom_site_fract_z
 _atom_site_occupancy
  C  1  1  0.98225200  0.02742200  0.51259800  1
  C  2  1  0.95680800  0.05668100  0.56364500  1
  C  3  1  0.97186600  0.10804500  0.58904900  1
  C  4  1  0.99324400  0.13294000  0.56231900  1
  C  5  1  0.01086500  0.10442600  0.51067200  1
  C  6  1  0.01305200  0.05293300  0.48730900  1
  C  9  1  0.98215200  0.97508000  0.48820600  1
  C  10  1  0.01299200  0.94954000  0.51346700  1
  C  11  1  0.01066000  0.89804500  0.49008700  1
  C  12  1  0.99298400  0.86956100  0.43843700  1
  C  13  1  0.97146200  0.89448600  0.41174800  1
  C  14  1  0.95633000  0.94584800  0.43718300  1
  C  27  1  0.98174600  0.48701800  0.97418500  1
  C  28  1  0.95663900  0.50879600  0.94489500  1
  C  29  1  0.97249600  0.48287700  0.89355900  1
  C  30  1  0.99420300  0.43127600  0.86867300  1
  C  31  1  0.01104500  0.40811500  0.89718800  1
  C  32  1  0.01225300  0.43618800  0.94869500  1
  C  35  1  0.98161100  0.51502900  0.02653100  1
  C  36  1  0.01255700  0.56582400  0.05202700  1
  C  37  1  0.01006200  0.59401700  0.10351800  1
  C  38  1  0.99234600  0.57090600  0.13205400  1
  C  39  1  0.97099200  0.51928200  0.10718100  1
  C  40  1  0.95578200  0.49329800  0.05582100  1
  C  53  1  0.98164200  0.48894300  0.51427300  1
  C  54  1  0.95569100  0.43793300  0.49250100  1
  C  55  1  0.97069700  0.41252000  0.51845500  1
  C  56  1  0.99227500  0.43921700  0.57006400  1
  C  57  1  0.01006100  0.49086000  0.59321400  1
  C  58  1  0.01252800  0.51421000  0.56507100  1
  C  61  1  0.98185100  0.51331000  0.48629900  1
  C  62  1  0.01249600  0.48800200  0.43548200  1
  C  63  1  0.01096000  0.51143000  0.40740600  1
  C  64  1  0.99384300  0.56309600  0.43057200  1
  C  65  1  0.97214200  0.58979300  0.48217300  1
  C  66  1  0.95666000  0.56437400  0.50810000  1
  C  79  1  0.89674600  0.79613000  0.26031800  1
  C  80  1  0.02651700  0.80373500  0.28093800  1
  C  81  1  0.12698400  0.77072300  0.25101300  1
  C  83  1  0.96983900  0.72320600  0.18902900  1
  C  87  1  0.69778000  0.80481400  0.30406400  1
  C  91  1  0.93480200  0.67720700  0.14988600  1
  C  93  1  0.05495200  0.83678900  0.33056600  1
  C  95  1  0.89719100  0.46598600  0.20550600  1
  C  96  1  0.02663700  0.47934700  0.19801100  1
  C  97  1  0.12723900  0.48260500  0.23104800  1
  C  99  1  0.97075900  0.46750800  0.27832900  1
  C  103  1  0.69801100  0.50092400  0.19685100  1
  C  107  1  0.93589100  0.47386700  0.32416000  1
  C  109  1  0.05463300  0.49601000  0.16500200  1
  C  111  1  0.89739900  0.74122300  0.53533400  1
  C  112  1  0.02715600  0.72060000  0.52226700  1
  C  113  1  0.12759300  0.75052700  0.51917400  1
  C  115  1  0.97042800  0.81252900  0.53373000  1
  C  119  1  0.69840900  0.69747600  0.50030900  1
  C  123  1  0.93540200  0.85169800  0.52691900  1
  C  125  1  0.05561200  0.67097000  0.50565700  1
  C  127  1  0.89777000  0.20625800  0.74073900  1
  C  128  1  0.02716500  0.19886500  0.71986200  1
  C  129  1  0.12767800  0.23193800  0.74964700  1
  C  131  1  0.97120800  0.27905700  0.81211200  1
  C  135  1  0.69858100  0.19756100  0.69714500  1
  C  139  1  0.93630500  0.32482000  0.85171600  1
  C  141  1  0.05521200  0.16590100  0.67017800  1
  C  143  1  0.89746000  0.53601900  0.79528500  1
  C  144  1  0.02724500  0.52291700  0.80277500  1
  C  145  1  0.12755300  0.51980900  0.76970700  1
  C  147  1  0.97023000  0.53445000  0.72236500  1
  C  151  1  0.69847000  0.50103600  0.80406800  1
  C  155  1  0.93493300  0.52770300  0.67643300  1
  C  157  1  0.05581300  0.50629800  0.83578100  1
  C  159  1  0.89685000  0.26100900  0.46521800  1
  C  160  1  0.02646700  0.28175200  0.47835100  1
  C  161  1  0.12709600  0.25191600  0.48149100  1
  C  163  1  0.97034900  0.18976400  0.46684300  1
  C  167  1  0.69774200  0.30464800  0.50025100  1
  C  171  1  0.93556000  0.15055300  0.47362000  1
  C  173  1  0.05459500  0.33140700  0.49497500  1
  H  7  1  0.93359300  0.04042200  0.58381500  1
  H  16  1  0.93325600  0.96212600  0.41702100  1
  H  17  1  0.01163500  0.80192400  0.43259500  1
  H  18  1  0.96350800  0.79962100  0.38173900  1
  H  19  1  0.01139500  0.20054400  0.56805500  1
  H  20  1  0.96335900  0.20289500  0.61894100  1
  H  21  1  0.03643600  0.03420800  0.45084800  1
  H  22  1  0.03646100  0.96824900  0.54992000  1
  H  33  1  0.93354300  0.54522900  0.96112400  1
  H  42  1  0.93277500  0.45685900  0.03958900  1
  H  43  1  0.01094100  0.63275300  0.19966000  1
  H  44  1  0.96268000  0.58424200  0.20201600  1
  H  45  1  0.01182400  0.36932800  0.80111200  1
  H  46  1  0.96486200  0.41792900  0.79869300  1
  H  47  1  0.03534300  0.41843100  0.96741900  1
  H  48  1  0.03605200  0.58353400  0.03328900  1
  H  59  1  0.93265000  0.41776100  0.45606000  1
  H  68  1  0.93338400  0.58453800  0.54452300  1
  H  69  1  0.01215800  0.56880800  0.36868200  1
  H  70  1  0.96492700  0.61979400  0.41725900  1
  H  71  1  0.01143400  0.43335200  0.63183900  1
  H  72  1  0.96325400  0.38248000  0.58332400  1
  H  73  1  0.03614200  0.55065000  0.58280000  1
  H  74  1  0.03564700  0.45152400  0.41772000  1
  H  86  1  0.22288400  0.77362800  0.26334700  1
  H  88  1  0.64891600  0.77251100  0.27452600  1
  H  89  1  0.62114900  0.83208800  0.32450500  1
  H  90  1  0.74633800  0.79497300  0.32901400  1
  H  92  1  0.83664600  0.66680200  0.14679500  1
  H  94  1  0.14185700  0.83185600  0.34479500  1
  H  102  1  0.22292800  0.49228700  0.22822900  1
  H  104  1  0.64938900  0.50372900  0.22921200  1
  H  105  1  0.62121200  0.49402800  0.16961600  1
  H  106  1  0.74642200  0.53572100  0.20661200  1
  H  108  1  0.83771500  0.48079800  0.33458900  1
  H  110  1  0.14135400  0.51527400  0.16994700  1
  H  118  1  0.22347900  0.73818900  0.50970600  1
  H  120  1  0.64952300  0.72701500  0.49755300  1
  H  121  1  0.62180500  0.67703900  0.50715800  1
  H  122  1  0.74692300  0.67252400  0.46550600  1
  H  124  1  0.83722100  0.85485000  0.51967800  1
  H  126  1  0.14252200  0.65675000  0.48649100  1
  H  134  1  0.22332900  0.22919800  0.73714100  1
  H  136  1  0.64992400  0.22990400  0.72671300  1
  H  137  1  0.62181700  0.17031200  0.67680300  1
  H  138  1  0.74692800  0.20734800  0.67211900  1
  H  140  1  0.83802000  0.33511300  0.85518300  1
  H  142  1  0.14189100  0.17091200  0.65588300  1
  H  150  1  0.22344900  0.51031500  0.77252700  1
  H  152  1  0.64947900  0.49832600  0.77181000  1
  H  153  1  0.62195700  0.50789100  0.83138800  1
  H  154  1  0.74692700  0.46621300  0.79417100  1
  H  156  1  0.83682600  0.52042000  0.66597500  1
  H  158  1  0.14269600  0.48710500  0.83078800  1
  H  166  1  0.22290000  0.26434000  0.49100700  1
  H  168  1  0.64907500  0.27509600  0.50304700  1
  H  169  1  0.62096700  0.32502300  0.49339500  1
  H  170  1  0.74625300  0.32965100  0.53503800  1
  H  172  1  0.83736000  0.14726700  0.48073400  1
  H  174  1  0.14142200  0.34570100  0.51417500  1
  N  8  1  0.99306300  0.18293100  0.58533200  1
  N  15  1  0.99305600  0.81956800  0.41537100  1
  N  23  1  0.97193600  0.87263700  0.36205900  1
  N  24  1  0.02967200  0.87708200  0.51809500  1
  N  25  1  0.03000100  0.12538700  0.48266900  1
  N  26  1  0.97239100  0.12993700  0.63874500  1
  N  34  1  0.99433200  0.40427900  0.81867900  1
  N  41  1  0.99232500  0.59788700  0.18204300  1
  N  49  1  0.97162700  0.49149700  0.12909000  1
  N  50  1  0.02900200  0.64299300  0.12442300  1
  N  51  1  0.03107100  0.35919300  0.87606600  1
  N  52  1  0.97300000  0.51069600  0.87169000  1
  N  60  1  0.99218600  0.41617800  0.59701400  1
  N  67  1  0.99379300  0.58608800  0.40357700  1
  N  75  1  0.97263500  0.63947600  0.51001300  1
  N  76  1  0.03064600  0.48358300  0.35846500  1
  N  77  1  0.02912300  0.51887400  0.64218500  1
  N  78  1  0.97137700  0.36283700  0.49060700  1
  N  82  1  0.09628000  0.73167700  0.20683000  1
  N  84  1  0.87269500  0.75557700  0.21608500  1
  N  98  1  0.09690500  0.47724300  0.26997900  1
  N  100  1  0.87351500  0.46204000  0.24593400  1
  N  114  1  0.09685500  0.79471800  0.52434700  1
  N  116  1  0.87331000  0.78547400  0.53905700  1
  N  130  1  0.09730000  0.27080300  0.79398200  1
  N  132  1  0.87405400  0.24661800  0.78516800  1
  N  146  1  0.09669000  0.52502200  0.73072000  1
  N  148  1  0.87323600  0.53977800  0.75478700  1
  N  162  1  0.09665000  0.20769800  0.47630200  1
  N  164  1  0.87305700  0.21673100  0.46146600  1
  O  85  1  0.79102100  0.82591000  0.28505700  1
  O  101  1  0.79133900  0.46084700  0.17574600  1
  O  117  1  0.79171000  0.71648000  0.54039200  1
  O  133  1  0.79198900  0.17646500  0.71610100  1
  O  149  1  0.79187800  0.54108800  0.82513000  1
  O  165  1  0.79098000  0.28566900  0.46014500  1
