# generated using pymatgen
data_In2CoH6C18(BrO7)2
_symmetry_space_group_name_H-M   'P 1'
_cell_length_a   10.39773000
_cell_length_b   10.85919000
_cell_length_c   15.48999000
_cell_angle_alpha   89.93439000
_cell_angle_beta   80.92586000
_cell_angle_gamma   89.98249000
_symmetry_Int_Tables_number   1
_chemical_formula_structural   In2CoH6C18(BrO7)2
_chemical_formula_sum   'In4 Co2 H12 C36 Br4 O28'
_cell_volume   1727.09952081
_cell_formula_units_Z   2
loop_
 _symmetry_equiv_pos_site_id
 _symmetry_equiv_pos_as_xyz
  1  'x, y, z'
loop_
 _atom_site_type_symbol
 _atom_site_label
 _atom_site_symmetry_multiplicity
 _atom_site_fract_x
 _atom_site_fract_y
 _atom_site_fract_z
 _atom_site_occupancy
  In  In0  1  0.25750000  0.78329000  0.06248000  1
  In  In1  1  0.74264000  0.28431000  0.43857000  1
  In  In2  1  0.74262000  0.21712000  0.93762000  1
  In  In3  1  0.25754000  0.71637000  0.56299000  1
  Co  Co4  1  0.50006000  0.00011000  0.00011000  1
  Co  Co5  1  0.49993000  0.50085000  0.49979000  1
  H  H6  1  0.48712000  0.13548000  0.25669000  1
  H  H7  1  0.07789000  0.09619000  0.24189000  1
  H  H8  1  0.20006000  0.32278000  0.44221000  1
  H  H9  1  0.51408000  0.63418000  0.24349000  1
  H  H10  1  0.92332000  0.59661000  0.25870000  1
  H  H11  1  0.80056000  0.82368000  0.05851000  1
  H  H12  1  0.51338000  0.86479000  0.74319000  1
  H  H13  1  0.92220000  0.90226000  0.75960000  1
  H  H14  1  0.80083000  0.67726000  0.55810000  1
  H  H15  1  0.48633000  0.36531000  0.75635000  1
  H  H16  1  0.07712000  0.40333000  0.74108000  1
  H  H17  1  0.19960000  0.17638000  0.94146000  1
  C  C18  1  0.31586000  0.03181000  0.16031000  1
  C  C19  1  0.38569000  0.15565000  0.28194000  1
  C  C20  1  0.15508000  0.13425000  0.27361000  1
  C  C21  1  0.98572000  0.23976000  0.38007000  1
  C  C22  1  0.46125000  0.28448000  0.39719000  1
  C  C23  1  0.28571000  0.10852000  0.24095000  1
  C  C24  1  0.35421000  0.23099000  0.35551000  1
  C  C25  1  0.22384000  0.26087000  0.38686000  1
  C  C26  1  0.12433000  0.21162000  0.34619000  1
  C  C27  1  0.68485000  0.53068000  0.33979000  1
  C  C28  1  0.61534000  0.65489000  0.21821000  1
  C  C29  1  0.84596000  0.63450000  0.22694000  1
  C  C30  1  0.01442000  0.74230000  0.12075000  1
  C  C31  1  0.53947000  0.78314000  0.10237000  1
  C  C32  1  0.71548000  0.60787000  0.25931000  1
  C  C33  1  0.64649000  0.73068000  0.14474000  1
  C  C34  1  0.77667000  0.76140000  0.11371000  1
  C  C35  1  0.87623000  0.71269000  0.15461000  1
  C  C36  1  0.68424000  0.96886000  0.83974000  1
  C  C37  1  0.61484000  0.84448000  0.71821000  1
  C  C38  1  0.84521000  0.86470000  0.72743000  1
  C  C39  1  0.01456000  0.75774000  0.62193000  1
  C  C40  1  0.53948000  0.71598000  0.60282000  1
  C  C41  1  0.71466000  0.89155000  0.75938000  1
  C  C42  1  0.64650000  0.76891000  0.64477000  1
  C  C43  1  0.77681000  0.73864000  0.61372000  1
  C  C44  1  0.87606000  0.78688000  0.65513000  1
  C  C45  1  0.31559000  0.46897000  0.65997000  1
  C  C46  1  0.38502000  0.34470000  0.78155000  1
  C  C47  1  0.15447000  0.36525000  0.77278000  1
  C  C48  1  0.98576000  0.25772000  0.87896000  1
  C  C49  1  0.46058000  0.21695000  0.89773000  1
  C  C50  1  0.28500000  0.39167000  0.74036000  1
  C  C51  1  0.35369000  0.26924000  0.85517000  1
  C  C52  1  0.22351000  0.23850000  0.88616000  1
  C  C53  1  0.12403000  0.28721000  0.84514000  1
  Br  Br54  1  0.33479000  0.63458000  0.93645000  1
  Br  Br55  1  0.66408000  0.13640000  0.56486000  1
  Br  Br56  1  0.66519000  0.36545000  0.06379000  1
  Br  Br57  1  0.33512000  0.86632000  0.43773000  1
  O  O58  1  0.89540000  0.19331000  0.34193000  1
  O  O59  1  0.42205000  0.35144000  0.46488000  1
  O  O60  1  0.22721000  0.96230000  0.14109000  1
  O  O61  1  0.95631000  0.30905000  0.44709000  1
  O  O62  1  0.57841000  0.26118000  0.36384000  1
  O  O63  1  0.43190000  0.04748000  0.11807000  1
  O  O64  1  0.35651000  0.92747000  0.98169000  1
  O  O65  1  0.10446000  0.69643000  0.15976000  1
  O  O66  1  0.57854000  0.85074000  0.03496000  1
  O  O67  1  0.77325000  0.46112000  0.35960000  1
  O  O68  1  0.04399000  0.81070000  0.05323000  1
  O  O69  1  0.42234000  0.75845000  0.13495000  1
  O  O70  1  0.56830000  0.54569000  0.38123000  1
  O  O71  1  0.64372000  0.42941000  0.51949000  1
  O  O72  1  0.10439000  0.80107000  0.66208000  1
  O  O73  1  0.57836000  0.65009000  0.53455000  1
  O  O74  1  0.77252000  0.03936000  0.85835000  1
  O  O75  1  0.04439000  0.69142000  0.55351000  1
  O  O76  1  0.42234000  0.73885000  0.63653000  1
  O  O77  1  0.56852000  0.95252000  0.88226000  1
  O  O78  1  0.64351000  0.07273000  0.01844000  1
  O  O79  1  0.89564000  0.30386000  0.84018000  1
  O  O80  1  0.42154000  0.14945000  0.96518000  1
  O  O81  1  0.22680000  0.53801000  0.64012000  1
  O  O82  1  0.95617000  0.18911000  0.94637000  1
  O  O83  1  0.57769000  0.24176000  0.86524000  1
  O  O84  1  0.43226000  0.45494000  0.61850000  1
  O  O85  1  0.35655000  0.57368000  0.48036000  1
