# generated using pymatgen
data_H9C13N4O
_symmetry_space_group_name_H-M   'P 1'
_cell_length_a   27.57314039
_cell_length_b   27.57650000
_cell_length_c   44.45890000
_cell_angle_alpha   90.90600000
_cell_angle_beta   89.99999836
_cell_angle_gamma   119.99608998
_symmetry_Int_Tables_number   1
_chemical_formula_structural   H9C13N4O
_chemical_formula_sum   'H108 C156 N48 O12'
_cell_volume   29272.47455042
_cell_formula_units_Z   12
loop_
 _symmetry_equiv_pos_site_id
 _symmetry_equiv_pos_as_xyz
  1  'x, y, z'
loop_
 _atom_site_type_symbol
 _atom_site_label
 _atom_site_symmetry_multiplicity
 _atom_site_fract_x
 _atom_site_fract_y
 _atom_site_fract_z
 _atom_site_occupancy
  C  1  1  0.26963650  0.74551950  0.76870100  1
  C  2  1  0.31544250  0.79330650  0.78283350  1
  C  3  1  0.32582300  0.79826100  0.81421350  1
  C  4  1  0.28864700  0.75375500  0.83233500  1
  C  5  1  0.23999850  0.70726450  0.82025000  1
  C  6  1  0.23093500  0.70463700  0.78885100  1
  C  10  1  0.26471350  0.73739150  0.73648800  1
  C  11  1  0.30904400  0.77175200  0.71657400  1
  C  12  1  0.30859150  0.75896150  0.68563500  1
  C  13  1  0.26111400  0.71083300  0.67383100  1
  C  14  1  0.21374500  0.67815300  0.69142500  1
  C  15  1  0.21639950  0.69223750  0.72232200  1
  C  19  1  0.16532000  0.63542200  0.67690600  1
  C  20  1  0.20168650  0.66462450  0.83914600  1
  C  21  1  0.36997850  0.84631350  0.82831800  1
  C  22  1  0.35373200  0.79298600  0.66666667  1
  C  27  1  0.50361000  0.75672200  0.43562700  1
  C  28  1  0.50690000  0.71247800  0.44988300  1
  C  29  1  0.50145950  0.70389950  0.48130500  1
  C  30  1  0.49228550  0.74106950  0.49926300  1
  C  31  1  0.49262250  0.78800850  0.48691500  1
  C  32  1  0.49936250  0.79549250  0.45552800  1
  C  36  1  0.50114750  0.76027550  0.40343600  1
  C  37  1  0.48983050  0.71432250  0.38371800  1
  C  38  1  0.47800550  0.71359750  0.35273700  1
  C  39  1  0.47978050  0.76156250  0.34075100  1
  C  40  1  0.49573300  0.81022900  0.35824750  1
  C  41  1  0.50635500  0.80869700  0.38921500  1
  C  45  1  0.50286900  0.85837700  0.34359500  1
  C  46  1  0.48719800  0.82709400  0.50536200  1
  C  47  1  0.50695000  0.66144800  0.49552300  1
  C  48  1  0.46493450  0.66681050  0.33390200  1
  C  53  1  0.27687100  0.52146700  0.10096400  1
  C  54  1  0.22919600  0.51872400  0.11518800  1
  C  55  1  0.22507950  0.52369550  0.14670250  1
  C  56  1  0.27044550  0.53159550  0.16482400  1
  C  57  1  0.31681200  0.53008800  0.15252100  1
  C  58  1  0.31862300  0.52411700  0.12101000  1
  C  62  1  0.28413700  0.52484900  0.06881300  1
  C  63  1  0.24953350  0.53540750  0.04917500  1
  C  64  1  0.26144900  0.54764100  0.01840100  1
  C  65  1  0.30893200  0.54764600  0.00650600  1
  C  66  1  0.34201400  0.53283000  0.02382800  1
  C  67  1  0.32869750  0.52135550  0.05453900  1
  C  71  1  0.38459900  0.52740300  0.00929000  1
  C  72  1  0.36004250  0.53401250  0.17120700  1
  C  73  1  0.17699000  0.51860600  0.16090100  1
  C  74  1  0.22731850  0.55948250  0.99972500  1
  C  79  1  0.76675700  0.26892700  0.26989300  1
  C  80  1  0.72286900  0.22044500  0.28364700  1
  C  81  1  0.71339550  0.21629950  0.31501950  1
  C  82  1  0.74963050  0.26234850  0.33346550  1
  C  83  1  0.79635150  0.30994950  0.32163800  1
  C  84  1  0.80459600  0.31182800  0.29022200  1
  C  88  1  0.77047950  0.27587350  0.23779200  1
  C  89  1  0.72489450  0.24110950  0.21800400  1
  C  90  1  0.72400950  0.25279750  0.18726200  1
  C  91  1  0.77147100  0.29991100  0.17555100  1
  C  92  1  0.81993050  0.33286450  0.19302100  1
  C  93  1  0.81852350  0.32009950  0.22379300  1
  C  97  1  0.86781100  0.37465500  0.17845500  1
  C  98  1  0.83377400  0.35445500  0.34071600  1
  C  99  1  0.67086300  0.16779500  0.32871100  1
  C  100  1  0.67759500  0.21869300  0.16840700  1
  C  105  1  0.52984400  0.25961700  0.93646050  1
  C  106  1  0.52620800  0.30484900  0.95011500  1
  C  107  1  0.53128200  0.31594900  0.98146000  1
  C  108  1  0.53941750  0.27979150  0.00004900  1
  C  109  1  0.53902200  0.23167200  0.98841300  1
  C  110  1  0.53315850  0.22197950  0.95697050  1
  C  114  1  0.53373050  0.25451650  0.90435550  1
  C  115  1  0.54349050  0.29858950  0.88439800  1
  C  116  1  0.55653500  0.29824100  0.85370450  1
  C  117  1  0.55816800  0.25111400  0.84217150  1
  C  118  1  0.54360050  0.20386450  0.85973250  1
  C  119  1  0.53151600  0.20643900  0.89042750  1
  C  123  1  0.53871800  0.15566200  0.84529200  1
  C  124  1  0.54514750  0.19499550  0.00783100  1
  C  125  1  0.52667700  0.36005600  0.99503700  1
  C  126  1  0.56725100  0.34311900  0.83474500  1
  C  131  1  0.75348900  0.49553200  0.60452950  1
  C  132  1  0.80228050  0.49976450  0.61820000  1
  C  133  1  0.80741850  0.49426750  0.64943400  1
  C  134  1  0.76219500  0.48494700  0.66786400  1
  C  135  1  0.71428050  0.48436250  0.65620800  1
  C  136  1  0.71140450  0.49088950  0.62490600  1
  C  140  1  0.74554250  0.49210450  0.57239200  1
  C  141  1  0.77975750  0.48122450  0.55243100  1
  C  142  1  0.76704650  0.46823950  0.52156400  1
  C  143  1  0.71944550  0.46821550  0.50989300  1
  C  144  1  0.68718650  0.48412750  0.52754700  1
  C  145  1  0.70089200  0.49581500  0.55845900  1
  C  149  1  0.64536450  0.49058650  0.51294300  1
  C  150  1  0.67032100  0.47672400  0.67542250  1
  C  151  1  0.85600000  0.49919600  0.66298900  1
  C  152  1  0.80079750  0.45606950  0.50255700  1
  C  157  1  0.27709000  0.65583800  0.90458000  1
  C  158  1  0.22320750  0.63928350  0.89315200  1
  C  159  1  0.17637350  0.60416950  0.91073950  1
  C  161  1  0.23609100  0.60252500  0.94837500  1
  C  165  1  0.37716600  0.71704600  0.90166250  1
  C  171  1  0.40513100  0.74981300  0.56977800  1
  C  172  1  0.44109600  0.80494400  0.56018100  1
  C  173  1  0.45011750  0.84975750  0.57956100  1
  C  175  1  0.38883050  0.78603450  0.61524800  1
  C  179  1  0.37142000  0.65102200  0.56348150  1
  C  185  1  0.36771450  0.61704250  0.23757600  1
  C  186  1  0.38491800  0.57986600  0.22650700  1
  C  187  1  0.42005250  0.56894650  0.24480500  1
  C  189  1  0.42080050  0.63094850  0.28234500  1
  C  193  1  0.30726000  0.65663900  0.23330500  1
  C  199  1  0.75570850  0.35725750  0.40641850  1
  C  200  1  0.81053900  0.37754300  0.39566900  1
  C  201  1  0.85592050  0.41501050  0.41416850  1
  C  203  1  0.79312000  0.41189900  0.45130100  1
  C  207  1  0.65560450  0.29571150  0.40099100  1
  C  213  1  0.62724650  0.27090050  0.07473600  1
  C  214  1  0.59173600  0.21731000  0.06201700  1
  C  215  1  0.58173850  0.16992750  0.07850100  1
  C  217  1  0.64143650  0.22866250  0.11755300  1
  C  221  1  0.67201200  0.37205800  0.07250600  1
  C  227  1  0.66668633  0.39477833  0.74024700  1
  C  228  1  0.64687600  0.42933900  0.72905500  1
  C  229  1  0.60906000  0.43766400  0.74671700  1
  C  231  1  0.61113200  0.37839800  0.78394300  1
  C  235  1  0.72848800  0.35629700  0.73617900  1
  C  241  1  0.47782700  0.00823300  0.86658800  1
  C  242  1  0.50047150  0.05405950  0.84697900  1
  C  243  1  0.49609250  0.04126250  0.81578050  1
  C  245  1  0.44033600  0.94433000  0.82499300  1
  C  249  1  0.52325700  0.01062200  0.91135250  1
  C  255  1  0.56026450  0.55446550  0.53384200  1
  C  256  1  0.58391000  0.53110800  0.51434100  1
  C  257  1  0.57731000  0.53565900  0.48310700  1
  C  259  1  0.53597400  0.59177800  0.49227700  1
  C  263  1  0.51438100  0.50843800  0.57747100  1
  C  269  1  0.01650500  0.46291700  0.19944900  1
  C  270  1  0.96951300  0.43830300  0.17994500  1
  C  271  1  0.98057600  0.44523400  0.14872900  1
  C  273  1  0.07821700  0.48854800  0.15773000  1
  C  277  1  0.01631850  0.50830250  0.24417500  1
  C  283  1  0.56359650  0.00695050  0.36552650  1
  C  284  1  0.54169150  0.96020550  0.34564050  1
  C  285  1  0.54710650  0.97163650  0.31450100  1
  C  287  1  0.60180000  0.06909800  0.32448850  1
  C  291  1  0.51563350  0.00564550  0.40904000  1
  C  297  1  0.47305750  0.46881750  0.03164100  1
  C  298  1  0.44900050  0.49027650  0.01161200  1
  C  299  1  0.45667350  0.48481350  0.98051900  1
  C  301  1  0.49871900  0.43001200  0.99062100  1
  C  305  1  0.51705600  0.51618300  0.07627200  1
  C  311  1  0.01808100  0.55001300  0.69924700  1
  C  312  1  0.06359100  0.57297300  0.67920400  1
  C  313  1  0.05030900  0.56576100  0.64810750  1
  C  315  1  0.95372900  0.52583700  0.65842800  1
  C  319  1  0.02138950  0.50548550  0.74276800  1
  H  7  1  0.34220300  0.82655800  0.77032600  1
  H  8  1  0.19740500  0.66872300  0.78085800  1
  H  9  1  0.29492400  0.75739000  0.85516750  1
  H  16  1  0.34535750  0.80465550  0.72463000  1
  H  17  1  0.25910400  0.70163900  0.65127800  1
  H  18  1  0.18097200  0.66897200  0.73431300  1
  H  23  1  0.16637950  0.63050750  0.65411300  1
  H  24  1  0.16296000  0.63470600  0.83155900  1
  H  25  1  0.37319750  0.84767750  0.85132900  1
  H  26  1  0.38519350  0.83159150  0.67359350  1
  H  33  1  0.51492100  0.68605100  0.43739200  1
  H  34  1  0.49533050  0.82752850  0.44722700  1
  H  35  1  0.48994300  0.73645800  0.52211850  1
  H  42  1  0.48432600  0.67772400  0.39205500  1
  H  43  1  0.47295150  0.76259350  0.31816700  1
  H  44  1  0.51969250  0.84495650  0.40124800  1
  H  49  1  0.49702250  0.85612250  0.32079200  1
  H  50  1  0.49632950  0.86521550  0.49726650  1
  H  51  1  0.50456250  0.65915850  0.51851700  1
  H  52  1  0.47064300  0.63478900  0.34080300  1
  H  59  1  0.19542350  0.51183850  0.10262000  1
  H  60  1  0.35447050  0.52697050  0.11292100  1
  H  61  1  0.26743150  0.53374750  0.18771900  1
  H  68  1  0.21713550  0.53921350  0.05743300  1
  H  69  1  0.31768050  0.55502250  0.98408650  1
  H  70  1  0.35198550  0.50876950  0.06629100  1
  H  75  1  0.38901900  0.53326700  0.98658100  1
  H  76  1  0.38926450  0.52474850  0.16316500  1
  H  77  1  0.17657700  0.52068700  0.18394000  1
  H  78  1  0.18899350  0.55268350  0.00649700  1
  H  85  1  0.69721000  0.18611000  0.27079700  1
  H  86  1  0.83638150  0.34841450  0.28227950  1
  H  87  1  0.74411850  0.25940250  0.35628400  1
  H  94  1  0.68857800  0.20922200  0.22617300  1
  H  95  1  0.77240050  0.30823650  0.15310400  1
  H  96  1  0.85457100  0.34333100  0.23582900  1
  H  101  1  0.86535000  0.37870600  0.15577000  1
  H  102  1  0.87168150  0.38510050  0.33315850  1
  H  103  1  0.66776300  0.16735900  0.35170000  1
  H  104  1  0.64625000  0.18033400  0.17494600  1
  H  111  1  0.51877300  0.33065900  0.93725550  1
  H  112  1  0.53700450  0.18911750  0.94926600  1
  H  113  1  0.54187150  0.28668050  0.02285600  1
  H  120  1  0.54644300  0.33479400  0.89232900  1
  H  121  1  0.56583550  0.24918450  0.81975250  1
  H  122  1  0.51958450  0.17118550  0.90244350  1
  H  127  1  0.54540450  0.15695150  0.82262250  1
  H  128  1  0.53855650  0.15680750  0.00054050  1
  H  129  1  0.52864050  0.36397550  0.01804300  1
  H  130  1  0.55910300  0.37404400  0.84130100  1
  H  137  1  0.83616850  0.50830350  0.60541600  1
  H  138  1  0.67456300  0.48613900  0.61700800  1
  H  139  1  0.76589900  0.48210800  0.69060800  1
  H  146  1  0.81187350  0.47680050  0.56049200  1
  H  147  1  0.71048750  0.46061150  0.48735400  1
  H  148  1  0.67797450  0.50865350  0.57067800  1
  H  153  1  0.64069400  0.48380000  0.49018600  1
  H  154  1  0.63886850  0.48328650  0.66825600  1
  H  155  1  0.85742900  0.49687900  0.68594000  1
  H  156  1  0.83956250  0.46372450  0.50919500  1
  H  164  1  0.13674050  0.59170050  0.90327100  1
  H  166  1  0.37756750  0.74546550  0.91918750  1
  H  167  1  0.40821200  0.74178100  0.88486250  1
  H  168  1  0.38882550  0.68812750  0.91137050  1
  H  178  1  0.47595050  0.89026050  0.57340800  1
  H  180  1  0.40072600  0.65167700  0.58024150  1
  H  181  1  0.36663200  0.62150400  0.54554400  1
  H  182  1  0.33054000  0.63649400  0.57373200  1
  H  192  1  0.43323000  0.54213900  0.23755000  1
  H  194  1  0.27894600  0.62990800  0.25069650  1
  H  195  1  0.28249250  0.66224650  0.21604900  1
  H  196  1  0.33668500  0.69770100  0.24301500  1
  H  206  1  0.89620450  0.43045950  0.40715400  1
  H  208  1  0.65325500  0.26976000  0.41986500  1
  H  209  1  0.62578700  0.26877500  0.38372600  1
  H  210  1  0.64388400  0.32636800  0.40842950  1
  H  220  1  0.55592250  0.13048450  0.07006800  1
  H  222  1  0.65163200  0.37590500  0.09274150  1
  H  223  1  0.67591800  0.40352300  0.05663450  1
  H  224  1  0.71397500  0.38011100  0.07817000  1
  H  234  1  0.59417650  0.46275950  0.73942700  1
  H  236  1  0.75395550  0.38014950  0.75562100  1
  H  237  1  0.75585000  0.35321700  0.71950100  1
  H  238  1  0.69766300  0.31400700  0.74294100  1
  H  248  1  0.51086950  0.07178950  0.80006750  1
  H  250  1  0.51751050  0.96873250  0.90783450  1
  H  251  1  0.52189700  0.01758900  0.93546550  1
  H  252  1  0.56448300  0.04190100  0.90324450  1
  H  262  1  0.59326550  0.52023350  0.46742500  1
  H  264  1  0.47832150  0.51395150  0.57347550  1
  H  265  1  0.52106600  0.50962100  0.60169950  1
  H  266  1  0.50524450  0.46736050  0.56881800  1
  H  276  1  0.94913900  0.42864500  0.13307700  1
  H  278  1  0.05788950  0.54443150  0.24057550  1
  H  279  1  0.01075850  0.50131650  0.26830200  1
  H  280  1  0.98437700  0.51750500  0.23609650  1
  H  290  1  0.53286950  0.94039950  0.29860050  1
  H  292  1  0.52081100  0.04707900  0.40537900  1
  H  293  1  0.51597750  0.99985150  0.43322050  1
  H  294  1  0.47502650  0.97350650  0.40005150  1
  H  304  1  0.44025100  0.49876100  0.96456900  1
  H  306  1  0.55331850  0.51064450  0.07308400  1
  H  307  1  0.50932650  0.51571050  0.10034100  1
  H  308  1  0.52647000  0.55697400  0.06781500  1
  H  318  1  0.08062350  0.58130350  0.63212600  1
  H  320  1  0.97953050  0.46934450  0.73921350  1
  H  321  1  0.02866650  0.51293050  0.76693100  1
  H  322  1  0.05267050  0.49603450  0.73370850  1
  N  160  1  0.18387400  0.58729700  0.93812200  1
  N  162  1  0.28106750  0.63523150  0.93136700  1
  N  169  1  0.24889750  0.58575350  0.97374000  1
  N  170  1  0.21989900  0.65717300  0.86574200  1
  N  174  1  0.42451800  0.83937000  0.60676100  1
  N  176  1  0.37912850  0.74285650  0.59658500  1
  N  183  1  0.35825700  0.77090300  0.64033800  1
  N  184  1  0.46336650  0.81321450  0.53257600  1
  N  188  1  0.43659050  0.59409450  0.27242400  1
  N  190  1  0.38794250  0.64237250  0.26471800  1
  N  197  1  0.43807250  0.66174650  0.30776400  1
  N  198  1  0.36895400  0.55845900  0.19857100  1
  N  202  1  0.84626150  0.43076050  0.44167250  1
  N  204  1  0.74942600  0.37671600  0.43349350  1
  N  211  1  0.77833700  0.42806700  0.47655750  1
  N  212  1  0.81680650  0.36195650  0.36784100  1
  N  216  1  0.60617200  0.17664100  0.10605000  1
  N  218  1  0.65183550  0.27418450  0.10166450  1
  N  225  1  0.67161550  0.24100250  0.14297100  1
  N  226  1  0.57081750  0.21544950  0.03449700  1
  N  230  1  0.59271850  0.41273850  0.77392400  1
  N  232  1  0.64662300  0.36950500  0.76690400  1
  N  239  1  0.59512750  0.34838150  0.80906550  1
  N  240  1  0.66444300  0.45121100  0.70176500  1
  N  244  1  0.46539750  0.98749950  0.80580000  1
  N  246  1  0.44710200  0.95539000  0.85510000  1
  N  253  1  0.40347050  0.89356250  0.81324800  1
  N  254  1  0.51824300  0.10585100  0.85893000  1
  N  258  1  0.55481500  0.56635700  0.47310800  1
  N  260  1  0.53884850  0.58526850  0.52236350  1
  N  267  1  0.52185550  0.62793350  0.48057000  1
  N  268  1  0.61644650  0.51230150  0.52653100  1
  N  272  1  0.03385850  0.46883850  0.13863300  1
  N  274  1  0.06878600  0.48537800  0.18785300  1
  N  281  1  0.12871750  0.50331950  0.14587900  1
  N  282  1  0.91840150  0.40483650  0.19201400  1
  N  286  1  0.57763450  0.02501450  0.30495000  1
  N  288  1  0.59424800  0.05935200  0.35448300  1
  N  295  1  0.63810550  0.11962350  0.31324150  1
  N  296  1  0.52320800  0.90888400  0.35743100  1
  N  300  1  0.47985600  0.45406600  0.97102200  1
  N  302  1  0.49517550  0.43793450  0.02062900  1
  N  309  1  0.51261700  0.39289100  0.97940500  1
  N  310  1  0.41491350  0.50798350  0.02315100  1
  N  314  1  0.99649450  0.54372450  0.63873400  1
  N  316  1  0.96516750  0.52907550  0.68838500  1
  N  323  1  0.90297950  0.51272450  0.64738750  1
  N  324  1  0.11562300  0.60619900  0.69084850  1
  O  163  1  0.32330350  0.68709150  0.88705400  1
  O  177  1  0.39213000  0.70529200  0.55055600  1
  O  191  1  0.33647400  0.63129400  0.21943100  1
  O  205  1  0.71065700  0.32297000  0.38816300  1
  O  219  1  0.63924500  0.31773400  0.05850200  1
  O  233  1  0.70155400  0.38390200  0.72276750  1
  O  247  1  0.47929900  0.01583700  0.89711350  1
  O  261  1  0.56438550  0.55271650  0.56440950  1
  O  275  1  0.01066500  0.45848500  0.22998650  1
  O  289  1  0.56076550  0.00070550  0.39603700  1
  O  303  1  0.46768800  0.47143800  0.06211500  1
  O  317  1  0.02618100  0.55508300  0.72974000  1
