# generated using pymatgen
data_VH4C12NO7
_symmetry_space_group_name_H-M   'P 1'
_cell_length_a   7.21941000
_cell_length_b   12.16565000
_cell_length_c   21.27517000
_cell_angle_alpha   90.00005000
_cell_angle_beta   90.25981000
_cell_angle_gamma   89.99943000
_symmetry_Int_Tables_number   1
_chemical_formula_structural   VH4C12NO7
_chemical_formula_sum   'V4 H16 C48 N4 O28'
_cell_volume   1868.55376479
_cell_formula_units_Z   4
loop_
 _symmetry_equiv_pos_site_id
 _symmetry_equiv_pos_as_xyz
  1  'x, y, z'
loop_
 _atom_site_type_symbol
 _atom_site_label
 _atom_site_symmetry_multiplicity
 _atom_site_fract_x
 _atom_site_fract_y
 _atom_site_fract_z
 _atom_site_occupancy
  V  V0  1  0.79556000  0.23809000  0.66173000  1
  V  V1  1  0.20444000  0.76191000  0.33827000  1
  V  V2  1  0.70444000  0.73809000  0.33827000  1
  V  V3  1  0.29556000  0.26191000  0.66173000  1
  H  H4  1  0.89508000  0.76963000  0.94009000  1
  H  H5  1  0.10198000  0.22995000  0.05992000  1
  H  H6  1  0.60391000  0.26976000  0.05991000  1
  H  H7  1  0.39919000  0.72980000  0.94008000  1
  H  H8  1  0.94484000  0.65593000  0.13624000  1
  H  H9  1  0.05636000  0.34419000  0.86376000  1
  H  H10  1  0.55468000  0.15599000  0.86377000  1
  H  H11  1  0.44405000  0.84413000  0.13624000  1
  H  H12  1  0.90986000  0.73708000  0.82936000  1
  H  H13  1  0.08767000  0.26258000  0.17064000  1
  H  H14  1  0.58924000  0.23719000  0.17064000  1
  H  H15  1  0.41335000  0.76245000  0.82936000  1
  H  H16  1  0.91421000  0.70984000  0.04557000  1
  H  H17  1  0.08293000  0.28973000  0.95445000  1
  H  H18  1  0.58498000  0.20996000  0.95444000  1
  H  H19  1  0.41804000  0.78959000  0.04555000  1
  C  C20  1  0.51592000  0.11148000  0.74659000  1
  C  C21  1  0.48409000  0.88851000  0.25341000  1
  C  C22  1  0.98408000  0.61149000  0.25341000  1
  C  C23  1  0.01591000  0.38850000  0.74659000  1
  C  C24  1  0.51532000  0.11331000  0.57434000  1
  C  C25  1  0.48468000  0.88670000  0.42565000  1
  C  C26  1  0.98468000  0.61331000  0.42566000  1
  C  C27  1  0.01532000  0.38670000  0.57435000  1
  C  C28  1  0.00806000  0.46946000  0.79733000  1
  C  C29  1  0.99180000  0.53051000  0.20268000  1
  C  C30  1  0.49191000  0.96946000  0.20267000  1
  C  C31  1  0.50823000  0.03050000  0.79732000  1
  C  C32  1  0.94184000  0.65113000  0.83747000  1
  C  C33  1  0.05636000  0.34862000  0.16254000  1
  C  C34  1  0.55757000  0.15120000  0.16253000  1
  C  C35  1  0.44431000  0.84854000  0.83746000  1
  C  C36  1  0.96636000  0.58104000  0.78598000  1
  C  C37  1  0.03251000  0.41878000  0.21405000  1
  C  C38  1  0.53325000  0.08109000  0.21402000  1
  C  C39  1  0.46793000  0.91872000  0.78595000  1
  C  C40  1  0.02668000  0.43049000  0.85882000  1
  C  C41  1  0.97339000  0.56949000  0.14119000  1
  C  C42  1  0.47349000  0.93046000  0.14118000  1
  C  C43  1  0.52643000  0.06952000  0.85881000  1
  C  C44  1  0.00131000  0.50016000  0.91118000  1
  C  C45  1  0.99768000  0.49968000  0.08884000  1
  C  C46  1  0.49869000  0.00016000  0.08882000  1
  C  C47  1  0.50237000  0.99968000  0.91116000  1
  C  C48  1  0.95798000  0.61190000  0.89924000  1
  C  C49  1  0.04035000  0.38786000  0.10078000  1
  C  C50  1  0.54161000  0.11195000  0.10076000  1
  C  C51  1  0.46015000  0.88780000  0.89922000  1
  C  C52  1  0.01463000  0.46224000  0.97472000  1
  C  C53  1  0.98400000  0.53755000  0.02529000  1
  C  C54  1  0.48556000  0.96222000  0.02527000  1
  C  C55  1  0.51588000  0.03757000  0.97471000  1
  C  C56  1  0.94090000  0.64809000  0.01059000  1
  C  C57  1  0.05703000  0.35161000  0.98942000  1
  C  C58  1  0.55855000  0.14817000  0.98941000  1
  C  C59  1  0.44363000  0.85152000  0.01058000  1
  C  C60  1  0.92894000  0.68412000  0.94893000  1
  C  C61  1  0.06877000  0.31556000  0.05108000  1
  C  C62  1  0.57039000  0.18421000  0.05107000  1
  C  C63  1  0.43202000  0.81545000  0.94892000  1
  C  C64  1  0.99511000  0.53319000  0.47812000  1
  C  C65  1  0.00489000  0.46681000  0.52189000  1
  C  C66  1  0.50489000  0.03320000  0.52188000  1
  C  C67  1  0.49511000  0.96681000  0.47811000  1
  N  N68  1  0.05114000  0.37544000  0.27682000  1
  N  N69  1  0.94744000  0.62429000  0.72320000  1
  N  N70  1  0.44950000  0.87535000  0.72317000  1
  N  N71  1  0.55198000  0.12437000  0.27681000  1
  O  O72  1  0.35446000  0.15232000  0.59572000  1
  O  O73  1  0.64554000  0.84768000  0.40428000  1
  O  O74  1  0.14554000  0.65232000  0.40428000  1
  O  O75  1  0.85446000  0.34768000  0.59572000  1
  O  O76  1  0.68367000  0.14009000  0.72729000  1
  O  O77  1  0.31633000  0.85991000  0.27271000  1
  O  O78  1  0.81633000  0.64009000  0.27271000  1
  O  O79  1  0.18367000  0.35991000  0.72729000  1
  O  O80  1  0.85401000  0.34934000  0.72775000  1
  O  O81  1  0.14599000  0.65066000  0.27225000  1
  O  O82  1  0.64599000  0.84934000  0.27225000  1
  O  O83  1  0.35401000  0.15066000  0.72775000  1
  O  O84  1  0.68417000  0.13942000  0.59619000  1
  O  O85  1  0.31583000  0.86058000  0.40381000  1
  O  O86  1  0.81583000  0.63942000  0.40381000  1
  O  O87  1  0.18417000  0.36058000  0.59619000  1
  O  O88  1  0.52073000  0.31948000  0.66173000  1
  O  O89  1  0.47927000  0.68052000  0.33827000  1
  O  O90  1  0.97927000  0.81948000  0.33827000  1
  O  O91  1  0.02073000  0.18052000  0.66173000  1
  O  O92  1  0.14606000  0.28609000  0.28680000  1
  O  O93  1  0.95960000  0.41822000  0.32333000  1
  O  O94  1  0.85062000  0.71288000  0.71313000  1
  O  O95  1  0.04046000  0.58227000  0.67681000  1
  O  O96  1  0.35506000  0.78582000  0.71320000  1
  O  O97  1  0.54075000  0.91830000  0.67666000  1
  O  O98  1  0.64836000  0.21313000  0.28687000  1
  O  O99  1  0.45921000  0.08219000  0.32320000  1
