# generated using pymatgen
data_CeH9C21(SO2)3
_symmetry_space_group_name_H-M   'P 1'
_cell_length_a   7.90559000
_cell_length_b   14.30482000
_cell_length_c   14.30504000
_cell_angle_alpha   69.54954000
_cell_angle_beta   88.62597000
_cell_angle_gamma   88.62549000
_symmetry_Int_Tables_number   1
_chemical_formula_structural   CeH9C21(SO2)3
_chemical_formula_sum   'Ce2 H18 C42 S6 O12'
_cell_volume   1515.12476283
_cell_formula_units_Z   2
loop_
 _symmetry_equiv_pos_site_id
 _symmetry_equiv_pos_as_xyz
  1  'x, y, z'
loop_
 _atom_site_type_symbol
 _atom_site_label
 _atom_site_symmetry_multiplicity
 _atom_site_fract_x
 _atom_site_fract_y
 _atom_site_fract_z
 _atom_site_occupancy
  Ce  Ce0  1  0.59983000  0.08119000  0.04855000  1
  Ce  Ce1  1  0.09965000  0.04859000  0.08132000  1
  H  H2  1  0.10305000  0.69504000  0.87536000  1
  H  H3  1  0.02861000  0.90474000  0.57867000  1
  H  H4  1  0.86736000  0.60167000  0.65536000  1
  H  H5  1  0.06691000  0.34729000  0.05784000  1
  H  H6  1  0.13889000  0.53619000  0.96341000  1
  H  H7  1  0.38947000  0.09625000  0.69989000  1
  H  H8  1  0.23505000  0.99213000  0.60782000  1
  H  H9  1  0.63617000  0.73419000  0.33351000  1
  H  H10  1  0.71890000  0.64910000  0.52265000  1
  H  H11  1  0.60305000  0.87537000  0.69504000  1
  H  H12  1  0.52861000  0.57868000  0.90473000  1
  H  H13  1  0.36736000  0.65537000  0.60166000  1
  H  H14  1  0.56690000  0.05785000  0.34729000  1
  H  H15  1  0.63889000  0.96342000  0.53618000  1
  H  H16  1  0.88947000  0.69990000  0.09624000  1
  H  H17  1  0.73505000  0.60783000  0.99212000  1
  H  H18  1  0.13617000  0.33351000  0.73418000  1
  H  H19  1  0.21890000  0.52265000  0.64910000  1
  C  C20  1  0.98017000  0.63702000  0.77427000  1
  C  C21  1  0.05819000  0.71187000  0.79988000  1
  C  C22  1  0.07984000  0.80804000  0.72961000  1
  C  C23  1  0.01835000  0.82946000  0.63273000  1
  C  C24  1  0.94082000  0.75603000  0.60511000  1
  C  C25  1  0.92370000  0.65982000  0.67658000  1
  C  C26  1  0.96373000  0.53640000  0.84755000  1
  C  C27  1  0.89539000  0.35784000  0.93858000  1
  C  C28  1  0.01134000  0.39406000  0.98803000  1
  C  C29  1  0.04896000  0.49519000  0.93718000  1
  C  C30  1  0.82488000  0.25803000  0.97039000  1
  C  C31  1  0.16639000  0.88526000  0.75451000  1
  C  C32  1  0.31299000  0.98402000  0.83991000  1
  C  C33  1  0.32291000  0.02718000  0.73664000  1
  C  C34  1  0.23818000  0.97203000  0.68829000  1
  C  C35  1  0.38993000  0.02071000  0.91191000  1
  C  C36  1  0.87595000  0.77794000  0.50508000  1
  C  C37  1  0.79649000  0.85690000  0.32705000  1
  C  C38  1  0.72219000  0.76481000  0.37292000  1
  C  C39  1  0.76795000  0.71983000  0.47336000  1
  C  C40  1  0.76140000  0.92683000  0.22709000  1
  C  C41  1  0.48017000  0.77428000  0.63702000  1
  C  C42  1  0.55819000  0.79989000  0.71186000  1
  C  C43  1  0.57984000  0.72962000  0.80803000  1
  C  C44  1  0.51835000  0.63274000  0.82945000  1
  C  C45  1  0.44082000  0.60512000  0.75602000  1
  C  C46  1  0.42370000  0.67658000  0.65981000  1
  C  C47  1  0.46373000  0.84756000  0.53640000  1
  C  C48  1  0.39539000  0.93858000  0.35783000  1
  C  C49  1  0.51133000  0.98804000  0.39405000  1
  C  C50  1  0.54895000  0.93719000  0.49518000  1
  C  C51  1  0.32488000  0.97040000  0.25802000  1
  C  C52  1  0.66639000  0.75452000  0.88525000  1
  C  C53  1  0.81301000  0.83992000  0.98400000  1
  C  C54  1  0.82291000  0.73664000  0.02718000  1
  C  C55  1  0.73818000  0.68829000  0.97202000  1
  C  C56  1  0.88996000  0.91190000  0.02071000  1
  C  C57  1  0.37595000  0.50508000  0.77794000  1
  C  C58  1  0.29650000  0.32704000  0.85690000  1
  C  C59  1  0.22219000  0.37292000  0.76481000  1
  C  C60  1  0.26795000  0.47336000  0.71983000  1
  C  C61  1  0.26140000  0.22706000  0.92685000  1
  S  S62  1  0.83272000  0.44921000  0.82831000  1
  S  S63  1  0.20115000  0.87445000  0.87685000  1
  S  S64  1  0.92472000  0.88719000  0.40828000  1
  S  S65  1  0.33272000  0.82832000  0.44920000  1
  S  S66  1  0.70115000  0.87686000  0.87444000  1
  S  S67  1  0.42472000  0.40828000  0.88719000  1
  O  O68  1  0.88128000  0.18992000  0.05101000  1
  O  O69  1  0.70460000  0.24016000  0.92193000  1
  O  O70  1  0.50739000  0.08377000  0.88362000  1
  O  O71  1  0.34160000  0.98598000  0.00552000  1
  O  O72  1  0.64800000  0.90707000  0.17571000  1
  O  O73  1  0.84097000  0.01134000  0.19373000  1
  O  O74  1  0.38128000  0.05100000  0.18991000  1
  O  O75  1  0.20459000  0.92193000  0.24016000  1
  O  O76  1  0.00738000  0.88363000  0.08379000  1
  O  O77  1  0.84164000  0.00552000  0.98596000  1
  O  O78  1  0.14797000  0.17571000  0.90709000  1
  O  O79  1  0.34099000  0.19371000  0.01135000  1
