# generated using pymatgen
data_Zn2H19C30O7
_symmetry_space_group_name_H-M   'P 1'
_cell_length_a   14.31434941
_cell_length_b   15.45613000
_cell_length_c   16.29877000
_cell_angle_alpha   88.86219000
_cell_angle_beta   88.77145742
_cell_angle_gamma   74.81124353
_symmetry_Int_Tables_number   1
_chemical_formula_structural   Zn2H19C30O7
_chemical_formula_sum   'Zn8 H76 C120 O28'
_cell_volume   3478.86793136
_cell_formula_units_Z   4
loop_
 _symmetry_equiv_pos_site_id
 _symmetry_equiv_pos_as_xyz
  1  'x, y, z'
loop_
 _atom_site_type_symbol
 _atom_site_label
 _atom_site_symmetry_multiplicity
 _atom_site_fract_x
 _atom_site_fract_y
 _atom_site_fract_z
 _atom_site_occupancy
  C  C1  1  0.00040000  0.21732000  0.00758000  1.0
  C  C3  1  0.00940000  0.42384000  0.20287000  1.0
  C  C5  1  0.02144000  0.40778000  0.35602000  1.0
  C  C7  1  0.04596000  0.39596000  0.12485000  1.0
  C  C9  1  0.03762500  0.63837500  0.04986000  1.0
  C  C11  1  0.04482000  0.37142000  0.27233000  1.0
  C  C13  1  0.05620000  0.57066000  0.91443000  1.0
  C  C14  1  0.05794000  0.73478000  0.16717000  1.0
  C  C17  1  0.07236000  0.39238000  0.49673000  1.0
  C  C19  1  0.07898000  0.64969000  0.13115500  1.0
  C  C21  1  0.08362000  0.74332000  0.24833000  1.0
  C  C23  1  0.09494000  0.39697000  0.41302000  1.0
  C  C25  1  0.09386000  0.58086000  0.99138000  1.0
  C  C27  1  0.10616000  0.49224000  0.86477000  1.0
  C  C29  1  0.11950000  0.31686000  0.11603000  1.0
  C  C31  1  0.11148000  0.28728000  0.26184000  1.0
  C  C33  1  0.13316000  0.66778000  0.29307000  1.0
  C  C35  1  0.14596000  0.39306000  0.55722000  1.0
  C  C37  1  0.13482000  0.57506000  0.17483000  1.0
  C  C39  1  0.14930000  0.26075000  0.18391000  1.0
  C  C41  1  0.97271000  0.67057000  0.74433000  1.0
  C  C43  1  0.16058000  0.58414000  0.25581000  1.0
  C  C45  1  0.38344000  0.45093000  0.61327000  1.0
  C  C46  1  0.49414000  0.32634000  0.93755000  1.0
  C  C47  1  0.51358000  0.17122000  0.63725000  1.0
  C  C48  1  0.33454000  0.17471000  0.91601000  1.0
  C  C49  1  0.51728500  0.89459500  0.13133000  1.0
  C  C50  1  0.58478000  0.66148000  0.41211000  1.0
  C  C51  1  0.73630000  0.53136000  0.06498000  1.0
  C  C52  1  0.86856000  0.52399000  0.35466000  1.0
  C  C53  1  0.86780000  0.69822000  0.10043000  1.0
  C  C54  1  0.65045500  0.88142500  0.44204000  1.0
  C  C55  1  0.96514000  0.62722000  0.89224000  1.0
  C  C56  1  0.90790000  0.68270000  0.95171500  1.0
  C  C57  1  0.94000000  0.68118000  0.03267000  1.0
  C  C58  1  0.92938000  0.63054000  0.80744000  1.0
  C  C59  1  0.84374000  0.60578000  0.79210000  1.0
  C  C60  1  0.80160000  0.62188000  0.71473000  1.0
  C  C61  1  0.84598000  0.66022000  0.65178000  1.0
  C  C62  1  0.93176000  0.68403000  0.66641000  1.0
  C  C63  1  0.92523000  0.43759000  0.38452000  1.0
  C  C64  1  0.97898000  0.38634000  0.52058000  1.0
  C  C65  1  0.90404000  0.41260000  0.46441000  1.0
  C  C66  1  0.96328000  0.34004000  0.59734000  1.0
  C  C67  1  0.98466000  0.24608000  0.60053000  1.0
  C  C68  1  0.97652000  0.20192000  0.67498000  1.0
  C  C69  1  0.94749000  0.25135000  0.74623000  1.0
  C  C70  1  0.92596000  0.34499000  0.74288500  1.0
  C  C71  1  0.93178000  0.38926000  0.66835000  1.0
  C  C72  1  0.52794000  0.61501000  0.46739000  1.0
  C  C73  1  0.43276000  0.61154000  0.44870000  1.0
  C  C74  1  0.38584000  0.55956000  0.49829000  1.0
  C  C75  1  0.43316000  0.50913000  0.56534000  1.0
  C  C76  1  0.52746000  0.51406000  0.58505500  1.0
  C  C77  1  0.57314000  0.56792000  0.53687000  1.0
  C  C78  1  0.58039500  0.46204500  0.65488000  1.0
  C  C79  1  0.59540000  0.50610000  0.72580000  1.0
  C  C80  1  0.65394000  0.45878000  0.78811000  1.0
  C  C81  1  0.69716000  0.36720000  0.78016000  1.0
  C  C82  1  0.68498000  0.32360000  0.70859000  1.0
  C  C83  1  0.62770000  0.37114000  0.64576000  1.0
  C  C84  1  0.38230000  0.66088000  0.37701000  1.0
  C  C85  1  0.32224000  0.74802000  0.38649000  1.0
  C  C86  1  0.29164000  0.80248000  0.31745500  1.0
  C  C87  1  0.31954000  0.76978000  0.23886000  1.0
  C  C88  1  0.37646000  0.68200000  0.22910000  1.0
  C  C89  1  0.40627000  0.62693000  0.29787000  1.0
  C  C90  1  0.67864000  0.47770000  0.02868000  1.0
  C  C91  1  0.71456000  0.38448000  0.01730000  1.0
  C  C92  1  0.65270000  0.33560000  0.98778000  1.0
  C  C93  1  0.55666000  0.37888000  0.96890000  1.0
  C  C94  1  0.52144000  0.47242000  0.98111000  1.0
  C  C95  1  0.58300000  0.52030000  0.01042000  1.0
  C  C96  1  0.42086000  0.52286000  0.96367000  1.0
  C  C97  1  0.40064000  0.56362000  0.88592000  1.0
  C  C98  1  0.32368000  0.64010000  0.87593500  1.0
  C  C99  1  0.27062000  0.68012000  0.94426000  1.0
  C  C100  1  0.29072000  0.64052000  0.02180000  1.0
  C  C101  1  0.35998000  0.55830000  0.03034500  1.0
  C  C102  1  0.81830000  0.33890000  0.02691000  1.0
  C  C103  1  0.84572000  0.26336000  0.07907000  1.0
  C  C104  1  0.93660000  0.20264000  0.06914000  1.0
  C  C106  1  0.97642000  0.29604000  0.96005000  1.0
  C  C107  1  0.88636000  0.35778000  0.97094000  1.0
  C  C108  1  0.35002000  0.10228000  0.97951000  1.0
  C  C109  1  0.36392000  0.01208000  0.95690000  1.0
  C  C110  1  0.41004000  0.94267000  0.01096000  1.0
  C  C111  1  0.43880000  0.96250000  0.08891000  1.0
  C  C112  1  0.40762000  0.05176000  0.11661000  1.0
  C  C113  1  0.36674000  0.12152000  0.06087000  1.0
  C  C114  1  0.41362000  0.07234000  0.20382000  1.0
  C  C115  1  0.34966000  0.04948000  0.26171000  1.0
  C  C116  1  0.35870000  0.06480000  0.34503000  1.0
  C  C117  1  0.43084000  0.10358000  0.37066000  1.0
  C  C118  1  0.49366000  0.12764000  0.31287000  1.0
  C  C119  1  0.48501000  0.11230000  0.22962000  1.0
  C  C120  1  0.32555000  0.99029000  0.87886000  1.0
  C  C121  1  0.38276000  0.98148000  0.80695000  1.0
  C  C122  1  0.34037000  0.98055000  0.73064000  1.0
  C  C123  1  0.24280000  0.98114000  0.72614000  1.0
  C  C124  1  0.18674000  0.98512000  0.79796000  1.0
  C  C125  1  0.22770000  0.99042000  0.87422000  1.0
  C  C126  1  0.59776000  0.10270000  0.60665000  1.0
  C  C127  1  0.63079000  0.11183000  0.52506000  1.0
  C  C128  1  0.65294000  0.03736000  0.47338000  1.0
  C  C129  1  0.63646000  0.95602000  0.50013000  1.0
  C  C130  1  0.61208000  0.94514000  0.58366000  1.0
  C  C131  1  0.60748000  0.01578000  0.63799500  1.0
  C  C132  1  0.57262500  0.86933500  0.61104000  1.0
  C  C133  1  0.49208000  0.85376000  0.57163000  1.0
  C  C134  1  0.44350000  0.79408000  0.60631000  1.0
  C  C135  1  0.47380000  0.75070000  0.68073000  1.0
  C  C136  1  0.55556500  0.76358500  0.71888500  1.0
  C  C137  1  0.60590000  0.82158000  0.68357000  1.0
  C  C138  1  0.63640500  0.19965500  0.49096000  1.0
  C  C139  1  0.72730000  0.21358000  0.47089000  1.0
  C  C140  1  0.73362000  0.28916000  0.42485500  1.0
  C  C141  1  0.64951000  0.35335000  0.40179500  1.0
  C  C142  1  0.55878000  0.34012000  0.42166000  1.0
  C  C143  1  0.55199000  0.26291000  0.46498000  1.0
  H  H1  1  0.02034000  0.43778000  0.07167000  1.0
  H  H3  1  0.00856000  0.20746000  0.54566000  1.0
  H  H5  1  0.99335000  0.12944000  0.67756000  1.0
  H  H7  1  0.01960000  0.79378000  0.13302000  1.0
  H  H9  1  0.02732000  0.30888000  0.91445500  1.0
  H  H11  1  0.03738000  0.69204000  0.75595000  1.0
  H  H13  1  0.06496000  0.80852000  0.27658000  1.0
  H  H15  1  0.06984500  0.16927500  0.99866000  1.0
  H  H17  1  0.11102000  0.98624000  0.79439000  1.0
  H  H19  1  0.13640000  0.24400000  0.31441000  1.0
  H  H21  1  0.15198000  0.29818000  0.05635000  1.0
  H  H23  1  0.96584000  0.71406000  0.61769000  1.0
  H  H25  1  0.15168000  0.67432000  0.35626000  1.0
  H  H27  1  0.20236000  0.19713000  0.17631000  1.0
  H  H29  1  0.23062000  0.25100000  0.73536000  1.0
  H  H30  1  0.38468000  0.42818000  0.79713000  1.0
  H  H31  1  0.78447000  0.78897000  0.25662000  1.0
  H  H32  1  0.58752000  0.64540000  0.20426000  1.0
  H  H33  1  0.83548000  0.72158000  0.93651000  1.0
  H  H34  1  0.16473500  0.53958500  0.00734000  1.0
  H  H35  1  0.73530000  0.60359000  0.70319000  1.0
  H  H36  1  0.81384000  0.67150000  0.59168000  1.0
  H  H37  1  0.80892500  0.57587500  0.84052000  1.0
  H  H38  1  0.15821000  0.51029000  0.14639000  1.0
  H  H39  1  0.20160000  0.52622000  0.28976000  1.0
  H  H40  1  0.16922000  0.38855000  0.39224000  1.0
  H  H41  1  0.82940000  0.42428000  0.48533000  1.0
  H  H42  1  0.95826000  0.48810000  0.20948000  1.0
  H  H43  1  0.91648000  0.46144000  0.66639000  1.0
  H  H44  1  0.90374000  0.38338000  0.79770000  1.0
  H  H45  1  0.94108000  0.21718000  0.80383000  1.0
  H  H46  1  0.31332000  0.55649000  0.48329500  1.0
  H  H47  1  0.64512500  0.57181500  0.55277000  1.0
  H  H48  1  0.24716000  0.87032000  0.32493000  1.0
  H  H49  1  0.29722000  0.81250000  0.18553500  1.0
  H  H50  1  0.40063000  0.65781000  0.16852000  1.0
  H  H51  1  0.45286000  0.55992000  0.28986000  1.0
  H  H52  1  0.30231000  0.77453000  0.44720500  1.0
  H  H53  1  0.56280000  0.57684000  0.73232000  1.0
  H  H54  1  0.66667333  0.49340667  0.84205000  1.0
  H  H55  1  0.62116000  0.33801000  0.58990000  1.0
  H  H56  1  0.72088000  0.25319000  0.70131000  1.0
  H  H57  1  0.74228000  0.33054000  0.82843000  1.0
  H  H58  1  0.68010000  0.26423000  0.97752000  1.0
  H  H59  1  0.55546000  0.59184000  0.02040000  1.0
  H  H60  1  0.95666000  0.14327000  0.10794000  1.0
  H  H63  1  0.86788000  0.41840000  0.93363000  1.0
  H  H64  1  0.79464000  0.24918000  0.12401000  1.0
  H  H65  1  0.44894500  0.54035500  0.83479000  1.0
  H  H66  1  0.30868000  0.67098000  0.81580500  1.0
  H  H67  1  0.37418000  0.52778000  0.09078000  1.0
  H  H68  1  0.25300000  0.67368000  0.07527500  1.0
  H  H69  1  0.21450000  0.74206000  0.93726500  1.0
  H  H70  1  0.42688000  0.87362000  0.99118000  1.0
  H  H71  1  0.35096000  0.19065000  0.08020500  1.0
  H  H72  1  0.38224000  0.98232000  0.67502000  1.0
  H  H73  1  0.21034000  0.97972000  0.66698500  1.0
  H  H74  1  0.18288000  0.99730000  0.92937000  1.0
  H  H75  1  0.45844000  0.98096000  0.80990000  1.0
  H  H76  1  0.29414000  0.01870000  0.24221000  1.0
  H  H77  1  0.31028000  0.04602000  0.38977000  1.0
  H  H78  1  0.53462000  0.13014000  0.18533000  1.0
  H  H79  1  0.54988000  0.15704000  0.33252000  1.0
  H  H80  1  0.43846000  0.11432000  0.43526500  1.0
  H  H81  1  0.67860000  0.04412000  0.41109000  1.0
  H  H82  1  0.58918000  0.00744000  0.70208000  1.0
  H  H83  1  0.80366000  0.29660000  0.40510000  1.0
  H  H84  1  0.65468000  0.41264000  0.36742500  1.0
  H  H85  1  0.49370000  0.38900000  0.40237000  1.0
  H  H86  1  0.48156000  0.25128000  0.47650000  1.0
  H  H87  1  0.79294000  0.16416000  0.48835000  1.0
  H  H88  1  0.46414000  0.89136000  0.51664000  1.0
  H  H89  1  0.38034000  0.78380000  0.57694000  1.0
  H  H90  1  0.66846000  0.83203000  0.71411000  1.0
  H  H91  1  0.57929500  0.72942500  0.77637000  1.0
  H  H92  1  0.43354000  0.70745000  0.70907500  1.0
  O  O1  1  0.12130000  0.42345000  0.63125000  1.0
  O  O3  1  0.12272000  0.50186000  0.78574000  1.0
  O  O5  1  0.14830500  0.41715500  0.90277000  1.0
  O  O7  1  0.41126000  0.32978000  0.97549000  1.0
  O  O8  1  0.51852000  0.28040000  0.86889000  1.0
  O  O9  1  0.27804000  0.28452000  0.71784000  1.0
  O  O10  1  0.42926000  0.16880000  0.61040000  1.0
  O  O11  1  0.39144000  0.16504000  0.85105000  1.0
  O  O12  1  0.52006000  0.22118000  0.70108000  1.0
  O  O13  1  0.26600500  0.24905500  0.92574000  1.0
  O  O14  1  0.23702000  0.36526000  0.53627000  1.0
  O  O15  1  0.33948000  0.39042000  0.80590000  1.0
  O  O16  1  0.29785500  0.48666500  0.64724500  1.0
  O  O17  1  0.41710000  0.36300000  0.61029000  1.0
  O  O18  1  0.73102000  0.61096000  0.03215000  1.0
  O  O19  1  0.76142000  0.51534000  0.14194000  1.0
  O  O20  1  0.75018000  0.74628000  0.28054000  1.0
  O  O21  1  0.88592000  0.59754000  0.38229000  1.0
  O  O22  1  0.87636000  0.63836000  0.15928000  1.0
  O  O23  1  0.79693500  0.52826500  0.30515000  1.0
  O  O24  1  0.78562000  0.75976000  0.09236000  1.0
  O  O25  1  0.69630000  0.80022000  0.46643000  1.0
  O  O26  1  0.61208000  0.89592000  0.36822000  1.0
  O  O27  1  0.63068000  0.68582000  0.19819000  1.0
  O  O28  1  0.59453500  0.85464500  0.08777000  1.0
  O  O29  1  0.54106000  0.73266000  0.36757000  1.0
  O  O30  1  0.51762000  0.88778000  0.21291000  1.0
  O  O31  1  0.67954000  0.63088000  0.40907000  1.0
  Zn  Zn1  1  0.41062000  0.26680000  0.78388000  1.0
  Zn  Zn2  1  0.32110500  0.27347500  0.60198000  1.0
  Zn  Zn3  1  0.22846000  0.41830000  0.72109000  1.0
  Zn  Zn4  1  0.28988000  0.38314000  0.92012000  1.0
  Zn  Zn5  1  0.76428000  0.62186000  0.22143000  1.0
  Zn  Zn6  1  0.78278000  0.71168000  0.39541000  1.0
  Zn  Zn7  1  0.60806000  0.79211000  0.28229000  1.0
  Zn  Zn8  1  0.64980000  0.72240000  0.08249000  1.0
