# generated using pymatgen
data_LaH12C18(N3O2)3
_symmetry_space_group_name_H-M   'P 1'
_cell_length_a   8.55157000
_cell_length_b   12.16960000
_cell_length_c   25.52394000
_cell_angle_alpha   90.08821000
_cell_angle_beta   90.04490000
_cell_angle_gamma   93.02714000
_symmetry_Int_Tables_number   1
_chemical_formula_structural   LaH12C18(N3O2)3
_chemical_formula_sum   'La4 H48 C72 N36 O24'
_cell_volume   2652.54507377
_cell_formula_units_Z   4
loop_
 _symmetry_equiv_pos_site_id
 _symmetry_equiv_pos_as_xyz
  1  'x, y, z'
loop_
 _atom_site_type_symbol
 _atom_site_label
 _atom_site_symmetry_multiplicity
 _atom_site_fract_x
 _atom_site_fract_y
 _atom_site_fract_z
 _atom_site_occupancy
  La  La1  1  0.24535000  0.98431000  0.97798000  1.0
  La  La2  1  0.25332000  0.01546000  0.47742000  1.0
  La  La3  1  0.75465000  0.01569000  0.02202000  1.0
  La  La4  1  0.74668000  0.98454000  0.52257000  1.0
  H  H1  1  0.44173000  0.83797000  0.82118000  1.0
  H  H2  1  0.35505000  0.95271000  0.79344000  1.0
  H  H3  1  0.13809000  0.70035000  0.85681000  1.0
  H  H4  1  0.91073000  0.56741000  0.69218000  1.0
  H  H5  1  0.50719000  0.26697000  0.69984000  1.0
  H  H6  1  0.59177000  0.35667000  0.78202000  1.0
  H  H7  1  0.89099000  0.59848000  0.86035000  1.0
  H  H8  1  0.48862000  0.30205000  0.87182000  1.0
  H  H9  1  0.33616000  0.29099000  0.96469000  1.0
  H  H10  1  0.43632000  0.35862000  0.01760000  1.0
  H  H11  1  0.39714000  0.29441000  0.55718000  1.0
  H  H12  1  0.35119000  0.21300000  0.61281000  1.0
  H  H13  1  0.05767000  0.16227000  0.32084000  1.0
  H  H14  1  0.14365000  0.04773000  0.29245000  1.0
  H  H15  1  0.36206000  0.29992000  0.35691000  1.0
  H  H16  1  0.58805000  0.43242000  0.19207000  1.0
  H  H17  1  0.99152000  0.73348000  0.20010000  1.0
  H  H18  1  0.90845000  0.64321000  0.28182000  1.0
  H  H19  1  0.60964000  0.40195000  0.36022000  1.0
  H  H20  1  0.01213000  0.69856000  0.37199000  1.0
  H  H21  1  0.16441000  0.71035000  0.46492000  1.0
  H  H22  1  0.06573000  0.64165000  0.51762000  1.0
  H  H23  1  0.10181000  0.70514000  0.05739000  1.0
  H  H24  1  0.14827000  0.78704000  0.11301000  1.0
  H  H25  1  0.55826000  0.16202000  0.17881000  1.0
  H  H26  1  0.64495000  0.04729000  0.20655000  1.0
  H  H27  1  0.86191000  0.29965000  0.14318000  1.0
  H  H28  1  0.08927000  0.43259000  0.30782000  1.0
  H  H29  1  0.49281000  0.73303000  0.30016000  1.0
  H  H30  1  0.40823000  0.64333000  0.21798000  1.0
  H  H31  1  0.10900000  0.40152000  0.13965000  1.0
  H  H32  1  0.51137000  0.69795000  0.12817000  1.0
  H  H33  1  0.66383000  0.70901000  0.03530000  1.0
  H  H34  1  0.56368000  0.64138000  0.98239000  1.0
  H  H35  1  0.60285000  0.70559000  0.44282000  1.0
  H  H36  1  0.64880000  0.78700000  0.38719000  1.0
  H  H37  1  0.94233000  0.83773000  0.67916000  1.0
  H  H38  1  0.85634000  0.95227000  0.70755000  1.0
  H  H39  1  0.63794000  0.70008000  0.64309000  1.0
  H  H40  1  0.41194000  0.56758000  0.80792000  1.0
  H  H41  1  0.00847000  0.26652000  0.79989000  1.0
  H  H42  1  0.09154000  0.35679000  0.71817000  1.0
  H  H43  1  0.39035000  0.59805000  0.63978000  1.0
  H  H44  1  0.98787000  0.30144000  0.62801000  1.0
  H  H45  1  0.83558000  0.28965000  0.53508000  1.0
  H  H46  1  0.93427000  0.35835000  0.48237000  1.0
  H  H47  1  0.89819000  0.29486000  0.94261000  1.0
  H  H48  1  0.85172000  0.21296000  0.88698000  1.0
  C  C1  1  0.29448000  0.92245000  0.87380000  1.0
  C  C2  1  0.33244000  0.88206000  0.81957000  1.0
  C  C3  1  0.03713000  0.68228000  0.77507000  1.0
  C  C4  1  0.12704000  0.72494000  0.81636000  1.0
  C  C5  1  0.91828000  0.59163000  0.77603000  1.0
  C  C6  1  0.86391000  0.54013000  0.72981000  1.0
  C  C7  1  0.74604000  0.45538000  0.73165000  1.0
  C  C8  1  0.68024000  0.41002000  0.68270000  1.0
  C  C9  1  0.56961000  0.32424000  0.67399000  1.0
  C  C10  1  0.68569000  0.42043000  0.78043000  1.0
  C  C11  1  0.73868000  0.47203000  0.82680000  1.0
  C  C12  1  0.85444000  0.55764000  0.82414000  1.0
  C  C13  1  0.67308000  0.44282000  0.87809000  1.0
  C  C14  1  0.55987000  0.36317000  0.89307000  1.0
  C  C15  1  0.53147000  0.20487000  0.99550000  1.0
  C  C16  1  0.45185000  0.30977000  0.98184000  1.0
  C  C17  1  0.54409000  0.15782000  0.56697000  1.0
  C  C18  1  0.44878000  0.24892000  0.58950000  1.0
  C  C19  1  0.20337000  0.07528000  0.37292000  1.0
  C  C20  1  0.16657000  0.11766000  0.31908000  1.0
  C  C21  1  0.46278000  0.31741000  0.27517000  1.0
  C  C22  1  0.37293000  0.27496000  0.31645000  1.0
  C  C23  1  0.58165000  0.40824000  0.27596000  1.0
  C  C24  1  0.63541000  0.45968000  0.22971000  1.0
  C  C25  1  0.75330000  0.54453000  0.23154000  1.0
  C  C26  1  0.81868000  0.59021000  0.18266000  1.0
  C  C27  1  0.92930000  0.67608000  0.17415000  1.0
  C  C28  1  0.81449000  0.57945000  0.28031000  1.0
  C  C29  1  0.76214000  0.52802000  0.32669000  1.0
  C  C30  1  0.64616000  0.44250000  0.32401000  1.0
  C  C31  1  0.82812000  0.55745000  0.37801000  1.0
  C  C32  1  0.94108000  0.63735000  0.39314000  1.0
  C  C33  1  0.96892000  0.79539000  0.49638000  1.0
  C  C34  1  0.04906000  0.69093000  0.48211000  1.0
  C  C35  1  0.95505000  0.84214000  0.06706000  1.0
  C  C36  1  0.05045000  0.75107000  0.08969000  1.0
  C  C37  1  0.70551000  0.07755000  0.12620000  1.0
  C  C38  1  0.66756000  0.11794000  0.18042000  1.0
  C  C39  1  0.96286000  0.31772000  0.22492000  1.0
  C  C40  1  0.87296000  0.27505000  0.18364000  1.0
  C  C41  1  0.08171000  0.40837000  0.22397000  1.0
  C  C42  1  0.13609000  0.45987000  0.27019000  1.0
  C  C43  1  0.25395000  0.54462000  0.26835000  1.0
  C  C44  1  0.31975000  0.58997000  0.31730000  1.0
  C  C45  1  0.43039000  0.67576000  0.32600000  1.0
  C  C46  1  0.31431000  0.57957000  0.21956000  1.0
  C  C47  1  0.26132000  0.52797000  0.17319000  1.0
  C  C48  1  0.14555000  0.44236000  0.17586000  1.0
  C  C49  1  0.32691000  0.55718000  0.12191000  1.0
  C  C50  1  0.44013000  0.63683000  0.10693000  1.0
  C  C51  1  0.46852000  0.79513000  0.00450000  1.0
  C  C52  1  0.54814000  0.69023000  0.01816000  1.0
  C  C53  1  0.45590000  0.84218000  0.43303000  1.0
  C  C54  1  0.55121000  0.75107000  0.41049000  1.0
  C  C55  1  0.79662000  0.92472000  0.62707000  1.0
  C  C56  1  0.83342000  0.88233000  0.68091000  1.0
  C  C57  1  0.53721000  0.68259000  0.72482000  1.0
  C  C58  1  0.62707000  0.72504000  0.68354000  1.0
  C  C59  1  0.41835000  0.59176000  0.72404000  1.0
  C  C60  1  0.36458000  0.54032000  0.77029000  1.0
  C  C61  1  0.24669000  0.45547000  0.76845000  1.0
  C  C62  1  0.18132000  0.40979000  0.81733000  1.0
  C  C63  1  0.07069000  0.32392000  0.82585000  1.0
  C  C64  1  0.18550000  0.42054000  0.71968000  1.0
  C  C65  1  0.23785000  0.47198000  0.67330000  1.0
  C  C66  1  0.35384000  0.55750000  0.67598000  1.0
  C  C67  1  0.17187000  0.44254000  0.62199000  1.0
  C  C68  1  0.05892000  0.36265000  0.60686000  1.0
  C  C69  1  0.03107000  0.20461000  0.50362000  1.0
  C  C70  1  0.95093000  0.30907000  0.51789000  1.0
  C  C71  1  0.04494000  0.15786000  0.93293000  1.0
  C  C72  1  0.94954000  0.24892000  0.91031000  1.0
  N  N1  1  0.21128000  0.81143000  0.79546000  1.0
  N  N2  1  0.17911000  0.82260000  0.74347000  1.0
  N  N3  1  0.07387000  0.74356000  0.73136000  1.0
  N  N4  1  0.71668000  0.45697000  0.63480000  1.0
  N  N5  1  0.63501000  0.40565000  0.59771000  1.0
  N  N6  1  0.54380000  0.32491000  0.62140000  1.0
  N  N7  1  0.54553000  0.37678000  0.94574000  1.0
  N  N8  1  0.64500000  0.45946000  0.96340000  1.0
  N  N9  1  0.72104000  0.49982000  0.92247000  1.0
  N  N10  1  0.28863000  0.18826000  0.29551000  1.0
  N  N11  1  0.32096000  0.17675000  0.24354000  1.0
  N  N12  1  0.42613000  0.25570000  0.23148000  1.0
  N  N13  1  0.78212000  0.54341000  0.13467000  1.0
  N  N14  1  0.86377000  0.59474000  0.09770000  1.0
  N  N15  1  0.95516000  0.67540000  0.12155000  1.0
  N  N16  1  0.95543000  0.62392000  0.44582000  1.0
  N  N17  1  0.85618000  0.54111000  0.46333000  1.0
  N  N18  1  0.78033000  0.50051000  0.42232000  1.0
  N  N19  1  0.78872000  0.18857000  0.20454000  1.0
  N  N20  1  0.82088000  0.17740000  0.25653000  1.0
  N  N21  1  0.92613000  0.25644000  0.26864000  1.0
  N  N22  1  0.28332000  0.54303000  0.36519000  1.0
  N  N23  1  0.36498000  0.59434000  0.40228000  1.0
  N  N24  1  0.45620000  0.67509000  0.37859000  1.0
  N  N25  1  0.45446000  0.62322000  0.05426000  1.0
  N  N26  1  0.35499000  0.54053000  0.03660000  1.0
  N  N27  1  0.27896000  0.50017000  0.07753000  1.0
  N  N28  1  0.71136000  0.81174000  0.70449000  1.0
  N  N29  1  0.67903000  0.82325000  0.75645000  1.0
  N  N30  1  0.57386000  0.74430000  0.76851000  1.0
  N  N31  1  0.21787000  0.45659000  0.86533000  1.0
  N  N32  1  0.13622000  0.40526000  0.90230000  1.0
  N  N33  1  0.04484000  0.32459000  0.87844000  1.0
  N  N34  1  0.04456000  0.37608000  0.55418000  1.0
  N  N35  1  0.14382000  0.45889000  0.53666000  1.0
  N  N36  1  0.21966000  0.49949000  0.57767000  1.0
  O  O1  1  0.40630000  0.97277000  0.89898000  1.0
  O  O2  1  0.15829000  0.90506000  0.89420000  1.0
  O  O3  1  0.67939000  0.20513000  0.99721000  1.0
  O  O4  1  0.44509000  0.11733000  0.00562000  1.0
  O  O5  1  0.68769000  0.15540000  0.57683000  1.0
  O  O6  1  0.47463000  0.08383000  0.53686000  1.0
  O  O7  1  0.09281000  0.02170000  0.39696000  1.0
  O  O8  1  0.33810000  0.09466000  0.39423000  1.0
  O  O9  1  0.82096000  0.79501000  0.49731000  1.0
  O  O10  1  0.05483000  0.88271000  0.50784000  1.0
  O  O11  1  0.81166000  0.84470000  0.07682000  1.0
  O  O12  1  0.02473000  0.91593000  0.03695000  1.0
  O  O13  1  0.59369000  0.02723000  0.10101000  1.0
  O  O14  1  0.84170000  0.09494000  0.10579000  1.0
  O  O15  1  0.32060000  0.79487000  0.00278000  1.0
  O  O16  1  0.55490000  0.88267000  0.99438000  1.0
  O  O17  1  0.31231000  0.84460000  0.42317000  1.0
  O  O18  1  0.52536000  0.91616000  0.46313000  1.0
  O  O19  1  0.90718000  0.97830000  0.60303000  1.0
  O  O20  1  0.66190000  0.90533000  0.60576000  1.0
  O  O21  1  0.17904000  0.20499000  0.50269000  1.0
  O  O22  1  0.94517000  0.11729000  0.49216000  1.0
  O  O23  1  0.18833000  0.15530000  0.92318000  1.0
  O  O24  1  0.97527000  0.08407000  0.96304000  1.0
