# generated using pymatgen
data_H9C18N6O
_symmetry_space_group_name_H-M   'P 1'
_cell_length_a   52.52645434
_cell_length_b   52.52645434
_cell_length_c   52.52645434
_cell_angle_alpha   94.75907806
_cell_angle_beta   117.29145019
_cell_angle_gamma   117.29145019
_symmetry_Int_Tables_number   1
_chemical_formula_structural   H9C18N6O
_chemical_formula_sum   'H144 C288 N96 O16'
_cell_volume   106273.94881032
_cell_formula_units_Z   16
loop_
 _symmetry_equiv_pos_site_id
 _symmetry_equiv_pos_as_xyz
  1  'x, y, z'
loop_
 _atom_site_type_symbol
 _atom_site_label
 _atom_site_symmetry_multiplicity
 _atom_site_fract_x
 _atom_site_fract_y
 _atom_site_fract_z
 _atom_site_occupancy
  C  1  1  0.57997800  0.29514350  0.54130550  1
  C  2  1  0.55765600  0.27681200  0.54956700  1
  C  3  1  0.55543150  0.29002300  0.57244450  1
  C  4  1  0.57674000  0.32257850  0.58727750  1
  C  5  1  0.59935800  0.34171100  0.57946900  1
  C  6  1  0.60044750  0.32766200  0.55599350  1
  C  9  1  0.58025750  0.28029300  0.51760750  1
  C  10  1  0.59552750  0.26332100  0.52257250  1
  C  11  1  0.59306700  0.24652850  0.49792550  1
  C  12  1  0.57390650  0.24625700  0.46804250  1
  C  13  1  0.55756500  0.26231250  0.46234750  1
  C  14  1  0.56146650  0.27955200  0.48760250  1
  C  21  1  0.53743300  0.26039700  0.43248800  1
  C  22  1  0.62171000  0.37346650  0.59574750  1
  C  23  1  0.53382550  0.27171750  0.58099200  1
  C  24  1  0.60674350  0.22869000  0.50277950  1
  C  29  1  0.92711500  0.97475800  0.20889200  1
  C  30  1  0.94946450  0.00534050  0.21289500  1
  C  31  1  0.95170300  0.03045250  0.22833050  1
  C  32  1  0.93038950  0.02399300  0.23956950  1
  C  33  1  0.90774350  0.99356850  0.23606500  1
  C  34  1  0.90663150  0.96898850  0.22092400  1
  C  37  1  0.92681550  0.95077100  0.19375250  1
  C  38  1  0.91153600  0.94047000  0.16150900  1
  C  39  1  0.91399900  0.91828850  0.14716850  1
  C  40  1  0.93316200  0.90756400  0.16605200  1
  C  41  1  0.94950900  0.91820650  0.19844950  1
  C  42  1  0.94560800  0.93955500  0.21179700  1
  C  49  1  0.96965150  0.90848300  0.21665950  1
  C  50  1  0.88539250  0.98752400  0.24545950  1
  C  51  1  0.97332450  0.06060450  0.23163700  1
  C  52  1  0.90030400  0.90946350  0.11564950  1
  C  57  1  0.74739050  0.71866550  0.78524800  1
  C  58  1  0.72078450  0.72264250  0.76692200  1
  C  59  1  0.71110800  0.73806200  0.78013800  1
  C  60  1  0.72883100  0.74930200  0.81269600  1
  C  61  1  0.75578600  0.74582900  0.83182400  1
  C  62  1  0.76522550  0.73071200  0.81776650  1
  C  65  1  0.75624450  0.70355000  0.77039150  1
  C  66  1  0.73428700  0.67131500  0.75337300  1
  C  67  1  0.74215500  0.65699850  0.73658250  1
  C  68  1  0.77179900  0.67589550  0.73635850  1
  C  69  1  0.79357050  0.70828600  0.75245950  1
  C  70  1  0.78553950  0.72160600  0.76969350  1
  C  77  1  0.82154600  0.72650900  0.75058800  1
  C  78  1  0.77127550  0.75522550  0.86358300  1
  C  79  1  0.68424650  0.74135100  0.76183250  1
  C  80  1  0.71945350  0.62549700  0.71870150  1
  C  85  1  0.75975550  0.05130100  0.46494850  1
  C  86  1  0.78635550  0.05957500  0.49553250  1
  C  87  1  0.79603500  0.08246850  0.52062850  1
  C  88  1  0.77832200  0.09731100  0.51414700  1
  C  89  1  0.75137700  0.08949400  0.48371800  1
  C  90  1  0.74192750  0.06599300  0.45916050  1
  C  93  1  0.75088400  0.02757600  0.44097800  1
  C  94  1  0.77284900  0.03248550  0.43071550  1
  C  95  1  0.76494650  0.00781050  0.40852300  1
  C  96  1  0.73526800  0.97796050  0.39775450  1
  C  97  1  0.71349600  0.97232250  0.40836450  1
  C  98  1  0.72155000  0.99760250  0.42971850  1
  C  105  1  0.68549750  0.94248700  0.39860550  1
  C  106  1  0.73589100  0.10576650  0.47763050  1
  C  107  1  0.82288600  0.09101400  0.55078100  1
  C  108  1  0.78764150  0.01259050  0.39972800  1
  C  225  1  0.42710800  0.70490350  0.43884950  1
  C  226  1  0.44941200  0.72323000  0.43057000  1
  C  227  1  0.45160500  0.71001450  0.40766850  1
  C  228  1  0.43027850  0.67745850  0.39282800  1
  C  229  1  0.40767550  0.65833000  0.40065250  1
  C  230  1  0.40662600  0.67238600  0.42415700  1
  C  233  1  0.42685700  0.71975700  0.46256800  1
  C  234  1  0.41165250  0.73678500  0.45764250  1
  C  235  1  0.41412450  0.75356200  0.48230850  1
  C  236  1  0.43323050  0.75376450  0.51216800  1
  C  237  1  0.44951050  0.73765700  0.51782450  1
  C  238  1  0.44559800  0.72043250  0.49255250  1
  C  245  1  0.46959400  0.73950950  0.54766550  1
  C  246  1  0.38530800  0.62657300  0.38437900  1
  C  247  1  0.47320450  0.72831950  0.39911600  1
  C  248  1  0.40052150  0.77145550  0.47750500  1
  C  253  1  0.07997650  0.02515250  0.77144500  1
  C  254  1  0.05767050  0.99456750  0.76746100  1
  C  255  1  0.05547450  0.96947400  0.75204450  1
  C  256  1  0.07680350  0.97596350  0.74081700  1
  C  257  1  0.09941250  0.00639450  0.74430300  1
  C  258  1  0.10046050  0.03094700  0.75941050  1
  C  261  1  0.08023500  0.04911950  0.78656450  1
  C  262  1  0.09546300  0.05939800  0.81880000  1
  C  263  1  0.09299000  0.08158050  0.83311950  1
  C  264  1  0.07387200  0.09233400  0.81422700  1
  C  265  1  0.05757900  0.08171450  0.78183850  1
  C  266  1  0.06148750  0.06036350  0.76851000  1
  C  273  1  0.03748500  0.09147000  0.76361900  1
  C  274  1  0.12177900  0.01249450  0.73490950  1
  C  275  1  0.03387450  0.93932100  0.74874750  1
  C  276  1  0.10663250  0.09038850  0.86462600  1
  C  281  1  0.25955900  0.28125650  0.19498450  1
  C  282  1  0.28614950  0.27726250  0.21331400  1
  C  283  1  0.29580800  0.26181950  0.20009850  1
  C  284  1  0.27808000  0.25057000  0.16754200  1
  C  285  1  0.25114050  0.25406000  0.14841150  1
  C  286  1  0.24172100  0.26920350  0.16246550  1
  C  289  1  0.25071800  0.29639200  0.20983500  1
  C  290  1  0.27266150  0.32863550  0.22680400  1
  C  291  1  0.26481250  0.34297750  0.24359600  1
  C  292  1  0.23519750  0.32409400  0.24386650  1
  C  293  1  0.21344050  0.29169700  0.22781250  1
  C  294  1  0.22145400  0.27835200  0.21057700  1
  C  301  1  0.18549200  0.27348500  0.22972400  1
  C  302  1  0.23565500  0.24465500  0.11665500  1
  C  303  1  0.32265800  0.25851450  0.21840250  1
  C  304  1  0.28750850  0.37449150  0.26142900  1
  C  309  1  0.24754100  0.94881600  0.51536200  1
  C  310  1  0.22096150  0.94057350  0.48477600  1
  C  311  1  0.21129150  0.91769800  0.45967050  1
  C  312  1  0.22899550  0.90284650  0.46614300  1
  C  313  1  0.25591550  0.91063300  0.49657150  1
  C  314  1  0.26535100  0.93410900  0.52114200  1
  C  317  1  0.25638700  0.97250650  0.53934450  1
  C  318  1  0.23444650  0.96752600  0.54964850  1
  C  319  1  0.24229600  0.99216800  0.57183900  1
  C  320  1  0.27190950  0.02205350  0.58256900  1
  C  321  1  0.29366300  0.02776000  0.57192500  1
  C  322  1  0.28565250  0.00251200  0.55056750  1
  C  329  1  0.32160500  0.05762200  0.58165800  1
  C  330  1  0.27137400  0.89434050  0.50263750  1
  C  331  1  0.18445200  0.90916550  0.42951650  1
  C  332  1  0.21960350  0.98729550  0.58066700  1
  C  449  1  0.62945150  0.41995000  0.61858650  1
  C  450  1  0.61025050  0.43306800  0.61415350  1
  C  452  1  0.66125600  0.48308600  0.64981900  1
  C  453  1  0.68187550  0.47116700  0.65552850  1
  C  454  1  0.66582350  0.43964650  0.63990700  1
  C  456  1  0.67778800  0.51473400  0.66571800  1
  C  457  1  0.71198000  0.57813850  0.69831350  1
  C  458  1  0.73109400  0.56490150  0.70284150  1
  C  461  1  0.71427800  0.53329500  0.68676800  1
  C  465  1  0.67561600  0.55845900  0.67680100  1
  C  469  1  0.87771900  0.00253000  0.28427100  1
  C  470  1  0.89682650  0.01676450  0.31664700  1
  C  472  1  0.84586700  0.00195050  0.31555250  1
  C  473  1  0.82535700  0.98760750  0.28295950  1
  C  474  1  0.84143350  0.98803800  0.26751750  1
  C  476  1  0.82931250  0.00132250  0.33064500  1
  C  477  1  0.79508350  0.99976200  0.35980750  1
  C  478  1  0.77606950  0.98572200  0.32740150  1
  C  481  1  0.79290900  0.98645750  0.31263650  1
  C  485  1  0.83135300  0.01403500  0.37656700  1
  C  489  1  0.79484250  0.79391950  0.91008000  1
  C  490  1  0.81206500  0.82619800  0.92312400  1
  C  492  1  0.82677700  0.82526300  0.97322200  1
  C  493  1  0.80949600  0.79276550  0.96138450  1
  C  494  1  0.79357850  0.77729000  0.92986150  1
  C  496  1  0.84255100  0.84038750  0.00487450  1
  C  497  1  0.87342700  0.86961600  0.06829600  1
  C  498  1  0.85599650  0.83730300  0.05513550  1
  C  501  1  0.84043400  0.82250350  0.02352250  1
  C  505  1  0.87489600  0.88625650  0.04852850  1
  C  509  1  0.71227650  0.12864900  0.49273250  1
  C  510  1  0.69493000  0.12437100  0.50768100  1
  C  512  1  0.68034300  0.15985650  0.49214450  1
  C  513  1  0.69776350  0.16540900  0.47705150  1
  C  514  1  0.71367700  0.14980100  0.47748900  1
  C  516  1  0.66456700  0.17573300  0.49149500  1
  C  517  1  0.63369900  0.20828250  0.48985750  1
  C  518  1  0.65126550  0.21266100  0.47509550  1
  C  521  1  0.66682500  0.19660900  0.47585500  1
  C  525  1  0.63208450  0.18693500  0.50489850  1
  C  529  1  0.37750250  0.58007400  0.36145050  1
  C  530  1  0.39674450  0.56704200  0.36560250  1
  C  532  1  0.34571000  0.51693000  0.33025700  1
  C  533  1  0.32504150  0.52875450  0.32484000  1
  C  534  1  0.34108550  0.56027950  0.34043700  1
  C  536  1  0.32918750  0.48527750  0.31438900  1
  C  537  1  0.29500450  0.42185400  0.28186450  1
  C  538  1  0.27584250  0.43500100  0.27761550  1
  C  541  1  0.29265050  0.46661500  0.29365650  1
  C  545  1  0.33141800  0.44163700  0.30306600  1
  C  549  1  0.12959000  0.99736900  0.69622300  1
  C  550  1  0.11035200  0.98227750  0.66394950  1
  C  552  1  0.16138900  0.99795650  0.66488050  1
  C  553  1  0.18205300  0.01320250  0.69737350  1
  C  554  1  0.16600700  0.01276400  0.71285100  1
  C  556  1  0.17791500  0.99860800  0.64975400  1
  C  557  1  0.21210300  0.00025600  0.62052100  1
  C  558  1  0.23126200  0.01516550  0.65283150  1
  C  561  1  0.21445100  0.01440400  0.66763300  1
  C  565  1  0.17569350  0.98506250  0.60388700  1
  C  569  1  0.21204850  0.20593300  0.07016950  1
  C  570  1  0.19465250  0.17363400  0.05708950  1
  C  572  1  0.18013750  0.17459550  0.00703400  1
  C  573  1  0.19760300  0.20711550  0.01891450  1
  C  574  1  0.21350850  0.22258800  0.05043450  1
  C  576  1  0.16438200  0.15947600  0.97538600  1
  C  577  1  0.13355650  0.13025650  0.91198000  1
  C  578  1  0.15116150  0.16258950  0.92517700  1
  C  581  1  0.16670250  0.17738400  0.95678450  1
  C  585  1  0.13188850  0.11359200  0.93169850  1
  C  589  1  0.29508300  0.87156050  0.48758250  1
  C  590  1  0.31281750  0.87612850  0.47298200  1
  C  592  1  0.32696950  0.84031350  0.48815800  1
  C  593  1  0.30914500  0.83445950  0.50288650  1
  C  594  1  0.29325450  0.85008900  0.50245550  1
  C  596  1  0.34271250  0.82440750  0.48879200  1
  C  597  1  0.37349250  0.79178850  0.49037700  1
  C  598  1  0.35553750  0.78711950  0.50478900  1
  C  601  1  0.34001550  0.80320250  0.50404900  1
  C  605  1  0.37553950  0.81345850  0.47571600  1
  C  769  1  0.48828750  0.26222100  0.39870950  1
  C  770  1  0.46236750  0.26372150  0.39923600  1
  C  772  1  0.43611900  0.26188050  0.34752950  1
  C  773  1  0.46154300  0.26046000  0.34563700  1
  C  774  1  0.48759000  0.26064100  0.37134600  1
  C  776  1  0.41020400  0.26171650  0.32168850  1
  C  777  1  0.35895300  0.26148750  0.26969250  1
  C  778  1  0.38480300  0.26002150  0.26882650  1
  C  781  1  0.41053450  0.26012650  0.29477200  1
  C  785  1  0.36010200  0.26321200  0.29720100  1
  C  789  1  0.01882000  0.92385800  0.26761400  1
  C  790  1  0.04475300  0.95030850  0.29502850  1
  C  792  1  0.07099050  0.92484250  0.31943600  1
  C  793  1  0.04555000  0.89752050  0.29260050  1
  C  794  1  0.01949950  0.89718250  0.26673800  1
  C  796  1  0.09690950  0.92491550  0.34518400  1
  C  797  1  0.14817300  0.92417400  0.39619600  1
  C  798  1  0.12229650  0.89744700  0.36889150  1
  C  801  1  0.09656500  0.89766250  0.34326850  1
  C  805  1  0.14703250  0.95053800  0.39677150  1
  C  809  1  0.85717950  0.77747050  0.75243000  1
  C  810  1  0.85816450  0.80489500  0.75390750  1
  C  812  1  0.90805150  0.82927550  0.75209700  1
  C  813  1  0.90851600  0.80242850  0.75070350  1
  C  814  1  0.88297550  0.77657550  0.75088400  1
  C  816  1  0.93374200  0.85501300  0.75193100  1
  C  817  1  0.98552700  0.90600400  0.75169500  1
  C  818  1  0.98491900  0.87868550  0.75025250  1
  C  821  1  0.95907100  0.85307550  0.75036450  1
  C  825  1  0.95973850  0.90659750  0.75339600  1
  C  829  1  0.64988700  0.90869800  0.41395300  1
  C  830  1  0.64893000  0.90917950  0.44040550  1
  C  832  1  0.59901500  0.85749600  0.41488800  1
  C  833  1  0.59851750  0.85565200  0.38756050  1
  C  834  1  0.62405900  0.88137300  0.38724800  1
  C  836  1  0.57332900  0.83163900  0.41493700  1
  C  837  1  0.52156350  0.77960850  0.41415700  1
  C  838  1  0.52212550  0.77879600  0.38742350  1
  C  841  1  0.54797100  0.80475600  0.38765900  1
  C  845  1  0.54737000  0.80709000  0.44054500  1
  C  849  1  0.64797850  0.73839400  0.71053350  1
  C  850  1  0.64687750  0.73670300  0.68304850  1
  C  852  1  0.59674600  0.73815100  0.65851100  1
  C  853  1  0.59636650  0.73970500  0.68540150  1
  C  854  1  0.62208900  0.73981650  0.71136150  1
  C  856  1  0.57084250  0.73798500  0.63265250  1
  C  857  1  0.51870800  0.73765750  0.58145050  1
  C  858  1  0.51935250  0.73919400  0.60878850  1
  C  861  1  0.54538200  0.73936800  0.63450800  1
  C  865  1  0.54466150  0.73619050  0.58096100  1
  C  869  1  0.85912250  0.07596700  0.58410350  1
  C  870  1  0.86021250  0.04957750  0.58352200  1
  C  872  1  0.91034850  0.07517350  0.63509700  1
  C  873  1  0.91074800  0.10245350  0.63702050  1
  C  874  1  0.88503250  0.10269400  0.61140450  1
  C  876  1  0.93624500  0.07521750  0.66083850  1
  C  877  1  0.98836200  0.07614250  0.71265550  1
  C  878  1  0.98774250  0.10284800  0.71353450  1
  C  881  1  0.96171750  0.10253950  0.68767500  1
  C  885  1  0.96240250  0.04969650  0.68524000  1
  C  889  1  0.48550550  0.22042550  0.56599300  1
  C  890  1  0.45972050  0.19291800  0.53963150  1
  C  892  1  0.43373850  0.16843000  0.56524650  1
  C  893  1  0.45906600  0.19534300  0.59249500  1
  C  894  1  0.48491150  0.22128600  0.59271250  1
  C  896  1  0.40805800  0.14258800  0.56531800  1
  C  897  1  0.35721300  0.09140800  0.56630000  1
  C  898  1  0.38299700  0.11877050  0.59296950  1
  C  901  1  0.40852950  0.14447950  0.59263300  1
  C  905  1  0.35818700  0.09088400  0.53985400  1
  C  909  1  0.02163850  0.09391950  0.22866100  1
  C  910  1  0.04744200  0.09335500  0.22696600  1
  C  912  1  0.07338650  0.14493600  0.22841550  1
  C  913  1  0.04803400  0.14684150  0.22996350  1
  C  914  1  0.02219600  0.12121300  0.23006900  1
  C  916  1  0.09906450  0.17069000  0.22825250  1
  C  917  1  0.14990700  0.22252400  0.22792300  1
  C  918  1  0.12408850  0.22338750  0.22945100  1
  C  921  1  0.09856200  0.19751800  0.22963000  1
  C  925  1  0.14895850  0.19511700  0.22645550  1
  H  7  1  0.54279650  0.25329800  0.53862850  1
  H  8  1  0.57618050  0.33255400  0.60448250  1
  H  15  1  0.57078150  0.23324300  0.44985550  1
  H  16  1  0.54966800  0.29118550  0.48403550  1
  H  19  1  0.61021200  0.35237700  0.53326500  1
  H  20  1  0.59768000  0.24690200  0.55374800  1
  H  25  1  0.54236150  0.25612650  0.41707600  1
  H  26  1  0.64571450  0.38389500  0.60098450  1
  H  27  1  0.53742350  0.28097350  0.60061400  1
  H  28  1  0.60715400  0.21949400  0.51863000  1
  H  35  1  0.96432850  0.00925050  0.20424700  1
  H  36  1  0.93096000  0.04176550  0.25010550  1
  H  43  1  0.93628650  0.89250500  0.15615750  1
  H  44  1  0.95742350  0.94779350  0.23523200  1
  H  47  1  0.89681300  0.93647750  0.23584450  1
  H  48  1  0.90937950  0.96949850  0.14294900  1
  H  53  1  0.96471750  0.88814100  0.20745850  1
  H  54  1  0.86132050  0.96886150  0.23180000  1
  H  55  1  0.96974550  0.07663700  0.23730850  1
  H  56  1  0.89982750  0.92488400  0.10603250  1
  H  63  1  0.70820850  0.71399300  0.74340750  1
  H  64  1  0.72159400  0.75982400  0.82267300  1
  H  71  1  0.77698350  0.66602000  0.72334750  1
  H  72  1  0.80075550  0.74503350  0.78135800  1
  H  75  1  0.81267650  0.74569000  0.84248650  1
  H  76  1  0.68668150  0.65274300  0.73689950  1
  H  81  1  0.83269100  0.71730600  0.74633100  1
  H  82  1  0.77656200  0.74168900  0.87401400  1
  H  83  1  0.67385700  0.74698100  0.77107900  1
  H  84  1  0.69439800  0.61590450  0.70944550  1
  H  91  1  0.79892300  0.04862800  0.49945900  1
  H  92  1  0.78556050  0.11452600  0.53190750  1
  H  99  1  0.73006450  0.95975300  0.38269050  1
  H  100  1  0.70633550  0.99407050  0.43792900  1
  H  103  1  0.69447850  0.04328600  0.42668750  1
  H  104  1  0.82047200  0.06356550  0.45975850  1
  H  109  1  0.67431750  0.92709300  0.37824150  1
  H  110  1  0.73064100  0.11094450  0.45882750  1
  H  111  1  0.83328150  0.11065200  0.56679950  1
  H  112  1  0.81271650  0.02829050  0.41522700  1
  H  231  1  0.46428500  0.74674400  0.44151600  1
  H  232  1  0.43081650  0.66748050  0.37560600  1
  H  239  1  0.43636600  0.76676950  0.53036850  1
  H  240  1  0.45735200  0.70876100  0.49609500  1
  H  243  1  0.39687700  0.64765500  0.44687900  1
  H  244  1  0.40957700  0.75328800  0.42653200  1
  H  249  1  0.46463750  0.74374700  0.56306450  1
  H  250  1  0.36134250  0.61614550  0.37923900  1
  H  251  1  0.46958050  0.71907600  0.37947550  1
  H  252  1  0.40024500  0.78076400  0.46174800  1
  H  259  1  0.04279900  0.99063650  0.77610450  1
  H  260  1  0.07626400  0.95820700  0.73029700  1
  H  267  1  0.07074300  0.10739700  0.82410800  1
  H  268  1  0.04971450  0.05214550  0.74508100  1
  H  271  1  0.11021400  0.06342900  0.74444500  1
  H  272  1  0.09757050  0.03036150  0.83736700  1
  H  277  1  0.04243650  0.11182200  0.77281950  1
  H  278  1  0.14574100  0.03132700  0.74844200  1
  H  279  1  0.03749300  0.92330350  0.74311750  1
  H  280  1  0.10701950  0.07494000  0.87422850  1
  H  287  1  0.29873000  0.28591950  0.23682950  1
  H  288  1  0.28530450  0.24003050  0.15756400  1
  H  295  1  0.23002500  0.33398800  0.25687800  1
  H  296  1  0.20624650  0.25491900  0.19894250  1
  H  299  1  0.19427850  0.25425550  0.13775700  1
  H  300  1  0.32025400  0.34719750  0.24322050  1
  H  305  1  0.17436450  0.28269100  0.23401050  1
  H  306  1  0.23041700  0.25821050  0.10622250  1
  H  307  1  0.33301850  0.25285100  0.20914350  1
  H  308  1  0.31255000  0.38409950  0.27059850  1
  H  315  1  0.20839950  0.95152450  0.48085900  1
  H  316  1  0.22176400  0.88564350  0.44837550  1
  H  323  1  0.27708000  0.04023450  0.59763650  1
  H  324  1  0.30084950  0.00608700  0.54233050  1
  H  327  1  0.31278500  0.95681450  0.55365350  1
  H  328  1  0.18685700  0.93634100  0.52062000  1
  H  333  1  0.33274200  0.07303000  0.60199900  1
  H  334  1  0.27649800  0.88904450  0.52136850  1
  H  335  1  0.17408950  0.88955100  0.41348550  1
  H  336  1  0.19456650  0.97139650  0.56525000  1
  H  455  1  0.68078150  0.43109000  0.64445450  1
  H  459  1  0.58389300  0.41981600  0.59921200  1
  H  464  1  0.75745250  0.57826600  0.71808450  1
  H  466  1  0.66034100  0.56664100  0.67210600  1
  H  475  1  0.82657400  0.97805700  0.24397100  1
  H  479  1  0.92312550  0.02777100  0.32981050  1
  H  484  1  0.74977600  0.97501550  0.31435450  1
  H  486  1  0.84652750  0.02417350  0.40005800  1
  H  495  1  0.78072850  0.75379800  0.92136850  1
  H  499  1  0.81349050  0.83926900  0.90981350  1
  H  504  1  0.85438300  0.82434100  0.06856200  1
  H  506  1  0.88751050  0.90968550  0.05664400  1
  H  515  1  0.72663350  0.15423950  0.46694500  1
  H  519  1  0.69339750  0.10955200  0.51923150  1
  H  524  1  0.65297550  0.22777600  0.46383450  1
  H  526  1  0.61936750  0.18235500  0.51562150  1
  H  535  1  0.32607950  0.56876250  0.33610000  1
  H  539  1  0.42312800  0.58035950  0.38031750  1
  H  544  1  0.24945100  0.42156450  0.26259950  1
  H  546  1  0.34674250  0.43353450  0.30754600  1
  H  555  1  0.18100700  0.02342350  0.73633950  1
  H  559  1  0.08396900  0.97061700  0.65088100  1
  H  564  1  0.25765300  0.02653900  0.66579000  1
  H  566  1  0.16037100  0.97422100  0.58045900  1
  H  575  1  0.22649400  0.24609150  0.05896150  1
  H  579  1  0.19308500  0.16054500  0.07036800  1
  H  584  1  0.15292000  0.17556800  0.91178500  1
  H  586  1  0.11913700  0.09014900  0.92355000  1
  H  595  1  0.27999950  0.84543600  0.51272450  1
  H  599  1  0.31465700  0.89118200  0.46169900  1
  H  604  1  0.35351350  0.77176800  0.51577450  1
  H  606  1  0.38856350  0.81826000  0.46527450  1
  H  775  1  0.50606400  0.25982100  0.37006700  1
  H  779  1  0.46187150  0.26504700  0.41853250  1
  H  784  1  0.38527200  0.25923850  0.24953950  1
  H  786  1  0.34216000  0.26456750  0.29905050  1
  H  795  1  0.00101050  0.87742450  0.24745000  1
  H  799  1  0.04526000  0.97010600  0.29684900  1
  H  804  1  0.12181600  0.87768500  0.36764300  1
  H  806  1  0.16498350  0.97033150  0.41606500  1
  H  815  1  0.88342300  0.75727650  0.75007550  1
  H  819  1  0.84018600  0.80672700  0.75520800  1
  H  824  1  0.00343250  0.87742750  0.74949400  1
  H  826  1  0.95925250  0.92589850  0.75473400  1
  H  835  1  0.62358650  0.88012600  0.36749050  1
  H  839  1  0.66693150  0.92844650  0.46022500  1
  H  844  1  0.50359700  0.75953300  0.36764600  1
  H  846  1  0.54788300  0.80890250  0.46034550  1
  H  855  1  0.62158800  0.74057400  0.73063300  1
  H  859  1  0.66484900  0.73537800  0.68122800  1
  H  864  1  0.50085650  0.73999200  0.61004250  1
  H  866  1  0.54520000  0.73490200  0.56168700  1
  H  875  1  0.88554750  0.12247200  0.61265550  1
  H  879  1  0.84223300  0.02978050  0.56422950  1
  H  884  1  0.00625100  0.12260250  0.73282250  1
  H  886  1  0.96185250  0.02987700  0.68341850  1
  H  895  1  0.50341300  0.24057600  0.61246800  1
  H  899  1  0.45922450  0.19107250  0.51984000  1
  H  904  1  0.38345800  0.12004400  0.61272200  1
  H  906  1  0.34021650  0.07159000  0.52005950  1
  H  915  1  0.00366850  0.12245000  0.23081950  1
  H  919  1  0.04795750  0.07406900  0.22563950  1
  H  924  1  0.12360650  0.24266800  0.23023750  1
  H  926  1  0.16695050  0.19330800  0.22516050  1
  N  451  1  0.62638550  0.46358050  0.62945900  1
  N  460  1  0.66004650  0.52808150  0.66157700  1
  N  462  1  0.73199600  0.51992750  0.69084850  1
  N  463  1  0.71669050  0.49058550  0.67609500  1
  N  467  1  0.61216400  0.38974500  0.60329200  1
  N  468  1  0.72942750  0.60826750  0.71425400  1
  N  471  1  0.88066450  0.01593750  0.33099600  1
  N  480  1  0.84694500  0.01438650  0.36177950  1
  N  482  1  0.77529750  0.97334900  0.28150450  1
  N  483  1  0.79062350  0.97389450  0.26749100  1
  N  487  1  0.89502300  0.00452150  0.27137450  1
  N  488  1  0.77762700  0.99826350  0.37247450  1
  N  491  1  0.82729200  0.84058400  0.95363900  1
  N  500  1  0.85972050  0.87144000  0.01814750  1
  N  502  1  0.82330500  0.79145450  0.01022950  1
  N  503  1  0.80869150  0.77741150  0.98088200  1
  N  507  1  0.77991750  0.78100000  0.87986850  1
  N  508  1  0.88764750  0.88230200  0.09843350  1
  N  511  1  0.67970150  0.13965850  0.50683800  1
  N  520  1  0.64726650  0.17173250  0.50526100  1
  N  522  1  0.68408400  0.20054700  0.46205000  1
  N  523  1  0.69869650  0.18581350  0.46261800  1
  N  527  1  0.72720300  0.11336550  0.49473950  1
  N  528  1  0.61947450  0.22419650  0.48832400  1
  N  531  1  0.38061750  0.53652550  0.35032300  1
  N  540  1  0.34697800  0.47202000  0.31826400  1
  N  542  1  0.27488500  0.47989650  0.28984350  1
  N  543  1  0.29018550  0.50924450  0.30457000  1
  N  547  1  0.39479200  0.61028450  0.37673450  1
  N  548  1  0.27755850  0.39171700  0.26595450  1
  N  551  1  0.12648100  0.98312400  0.64956300  1
  N  560  1  0.16012950  0.98469900  0.61870550  1
  N  562  1  0.23221150  0.02835100  0.69867950  1
  N  563  1  0.21690800  0.02778100  0.71272300  1
  N  567  1  0.11229750  0.99535950  0.70914100  1
  N  568  1  0.22955300  0.00179700  0.60783200  1
  N  571  1  0.17943950  0.15925300  0.02657650  1
  N  580  1  0.14704800  0.12840600  0.96207800  1
  N  582  1  0.18399850  0.20845150  0.97011600  1
  N  583  1  0.19859550  0.22249200  0.99945950  1
  N  587  1  0.22696500  0.21885400  0.10037700  1
  N  588  1  0.11936300  0.11757400  0.88184900  1
  N  591  1  0.32801600  0.86081500  0.47381300  1
  N  600  1  0.36038650  0.82868600  0.47536550  1
  N  602  1  0.32238300  0.79898750  0.51751550  1
  N  603  1  0.30780250  0.81374850  0.51696300  1
  N  607  1  0.28017750  0.88686000  0.48558350  1
  N  608  1  0.38767650  0.77584400  0.49188250  1
  N  771  1  0.43756000  0.26347650  0.37414750  1
  N  780  1  0.38513000  0.26321850  0.32183750  1
  N  782  1  0.43590400  0.25890400  0.29494700  1
  N  783  1  0.45999200  0.25905850  0.31896950  1
  N  787  1  0.51192050  0.26306550  0.42437300  1
  N  788  1  0.33427500  0.26252750  0.24695050  1
  N  791  1  0.06956550  0.95002700  0.31959050  1
  N  800  1  0.12199950  0.95014600  0.37175350  1
  N  802  1  0.07117850  0.87246150  0.31668500  1
  N  803  1  0.04708800  0.87239650  0.29275450  1
  N  807  1  0.99517700  0.92588600  0.24483400  1
  N  808  1  0.17284350  0.92610450  0.42191800  1
  N  811  1  0.88302350  0.82944750  0.75366500  1
  N  820  1  0.93509900  0.88158900  0.75340600  1
  N  822  1  0.95766650  0.82648250  0.74916800  1
  N  823  1  0.93378800  0.80256150  0.74932550  1
  N  827  1  0.83233750  0.75469000  0.75325550  1
  N  828  1  0.00931900  0.93171200  0.75273100  1
  N  831  1  0.62407000  0.88407850  0.44009850  1
  N  840  1  0.57200300  0.83174150  0.44017150  1
  N  842  1  0.54934400  0.80497950  0.36245650  1
  N  843  1  0.57321900  0.82901500  0.36241100  1
  N  847  1  0.67473550  0.93436350  0.41601500  1
  N  848  1  0.49777000  0.75685550  0.41607250  1
  N  851  1  0.62185700  0.73669000  0.65839800  1
  N  860  1  0.56945450  0.73643050  0.60606200  1
  N  862  1  0.54688700  0.74073500  0.66115500  1
  N  863  1  0.57096350  0.74089000  0.68518950  1
  N  867  1  0.67265450  0.73736550  0.73329100  1
  N  868  1  0.49510900  0.73684450  0.55578650  1
  N  871  1  0.88522850  0.04994550  0.60853300  1
  N  880  1  0.93761750  0.05000650  0.66068300  1
  N  882  1  0.96023450  0.12769200  0.68752850  1
  N  883  1  0.93616350  0.12765100  0.66360250  1
  N  887  1  0.83446000  0.07405450  0.55839050  1
  N  888  1  0.01196800  0.07408050  0.73543750  1
  N  891  1  0.43508850  0.16828150  0.54002300  1
  N  900  1  0.38303450  0.11597400  0.54013750  1
  N  902  1  0.43379950  0.17114550  0.61775400  1
  N  903  1  0.45767000  0.19516600  0.61768900  1
  N  907  1  0.50928800  0.24316900  0.56405800  1
  N  908  1  0.33239400  0.06574300  0.56426700  1
  N  911  1  0.07206550  0.11837650  0.22695300  1
  N  920  1  0.12411300  0.17055000  0.22669700  1
  N  922  1  0.07326450  0.19735050  0.23098900  1
  N  923  1  0.04939800  0.17341450  0.23114350  1
  N  927  1  0.99785350  0.06819700  0.22761550  1
  N  928  1  0.17471700  0.24530900  0.22706800  1
  O  17  1  0.62227250  0.34518900  0.54811150  1
  O  18  1  0.61399450  0.26445950  0.55179000  1
  O  45  1  0.88476950  0.93928650  0.21660500  1
  O  46  1  0.89306700  0.95122350  0.14419150  1
  O  73  1  0.79064650  0.72642550  0.83528400  1
  O  74  1  0.70617750  0.65397500  0.75446650  1
  O  101  1  0.71651300  0.05809750  0.42945250  1
  O  102  1  0.80099350  0.06166950  0.44150200  1
  O  241  1  0.38482050  0.65486750  0.43206100  1
  O  242  1  0.39323100  0.73571300  0.42844800  1
  O  269  1  0.12227000  0.06065850  0.76370650  1
  O  270  1  0.11390150  0.04862850  0.83613300  1
  O  297  1  0.21631400  0.27350400  0.14494300  1
  O  298  1  0.30073850  0.34595450  0.22566200  1
  O  325  1  0.29073750  0.94196550  0.55084800  1
  O  326  1  0.20637350  0.93830250  0.53889300  1
