# generated using pymatgen
data_Zn2P2H16C13(NO3)2
_symmetry_space_group_name_H-M   'P 1'
_cell_length_a   9.33891000
_cell_length_b   9.99534000
_cell_length_c   24.08083000
_cell_angle_alpha   90.00000000
_cell_angle_beta   90.00000000
_cell_angle_gamma   90.00000000
_symmetry_Int_Tables_number   1
_chemical_formula_structural   Zn2P2H16C13(NO3)2
_chemical_formula_sum   'Zn8 P8 H64 C52 N8 O24'
_cell_volume   2247.83905959
_cell_formula_units_Z   4
loop_
 _symmetry_equiv_pos_site_id
 _symmetry_equiv_pos_as_xyz
  1  'x, y, z'
loop_
 _atom_site_type_symbol
 _atom_site_label
 _atom_site_symmetry_multiplicity
 _atom_site_fract_x
 _atom_site_fract_y
 _atom_site_fract_z
 _atom_site_occupancy
  Zn  Zn0  1  0.49541000  0.88440000  0.97917000  1
  Zn  Zn1  1  0.36961000  0.87747000  0.50776000  1
  Zn  Zn2  1  0.00459000  0.11561000  0.47917000  1
  Zn  Zn3  1  0.13039000  0.12253000  0.00776000  1
  Zn  Zn4  1  0.50459000  0.38440000  0.52083000  1
  Zn  Zn5  1  0.63040000  0.37747000  0.99224000  1
  Zn  Zn6  1  0.99541000  0.61561000  0.02083000  1
  Zn  Zn7  1  0.86961000  0.62253000  0.49224000  1
  P  P8  1  0.72395000  0.65840000  0.94180000  1
  P  P9  1  0.41862000  0.16580000  0.93316000  1
  P  P10  1  0.77605000  0.34160000  0.44181000  1
  P  P11  1  0.08138000  0.83421000  0.43316000  1
  P  P12  1  0.27605000  0.15840000  0.55819000  1
  P  P13  1  0.58138000  0.66580000  0.56684000  1
  P  P14  1  0.22395000  0.84160000  0.05819000  1
  P  P15  1  0.91862000  0.33420000  0.06684000  1
  H  H16  1  0.76890000  0.84612000  0.04497000  1
  H  H17  1  0.87172000  0.93507000  0.13305000  1
  H  H18  1  0.51204000  0.20772000  0.14099000  1
  H  H19  1  0.42554000  0.10903000  0.05276000  1
  H  H20  1  0.86375000  0.11220000  0.20576000  1
  H  H21  1  0.73191000  0.23876000  0.20238000  1
  H  H22  1  0.55140000  0.07733000  0.24426000  1
  H  H23  1  0.68766000  0.95750000  0.25140000  1
  H  H24  1  0.69065000  0.23825000  0.30388000  1
  H  H25  1  0.82801000  0.11910000  0.31236000  1
  H  H26  1  0.81687000  0.96567000  0.38914000  1
  H  H27  1  0.67853000  0.86900000  0.46770000  1
  H  H28  1  0.30515000  0.06057000  0.41719000  1
  H  H29  1  0.42912000  0.16501000  0.33647000  1
  H  H30  1  0.81030000  0.68367000  0.89519000  1
  H  H31  1  0.38094000  0.21927000  0.88123000  1
  H  H32  1  0.73111000  0.15389000  0.54497000  1
  H  H33  1  0.62829000  0.06493000  0.63305000  1
  H  H34  1  0.98797000  0.79228000  0.64099000  1
  H  H35  1  0.07446000  0.89097000  0.55276000  1
  H  H36  1  0.63625000  0.88780000  0.70576000  1
  H  H37  1  0.76809000  0.76124000  0.70237000  1
  H  H38  1  0.94861000  0.92267000  0.74426000  1
  H  H39  1  0.81235000  0.04250000  0.75140000  1
  H  H40  1  0.80935000  0.76176000  0.80388000  1
  H  H41  1  0.67199000  0.88091000  0.81236000  1
  H  H42  1  0.68313000  0.03433000  0.88913000  1
  H  H43  1  0.82147000  0.13101000  0.96770000  1
  H  H44  1  0.19485000  0.93943000  0.91719000  1
  H  H45  1  0.07088000  0.83499000  0.83647000  1
  H  H46  1  0.68970000  0.31633000  0.39519000  1
  H  H47  1  0.11906000  0.78074000  0.38123000  1
  H  H48  1  0.23111000  0.34611000  0.45503000  1
  H  H49  1  0.12828000  0.43507000  0.36695000  1
  H  H50  1  0.48796000  0.70772000  0.35901000  1
  H  H51  1  0.57446000  0.60903000  0.44724000  1
  H  H52  1  0.13625000  0.61220000  0.29424000  1
  H  H53  1  0.26809000  0.73876000  0.29762000  1
  H  H54  1  0.44860000  0.57733000  0.25574000  1
  H  H55  1  0.31234000  0.45750000  0.24860000  1
  H  H56  1  0.30935000  0.73825000  0.19612000  1
  H  H57  1  0.17199000  0.61910000  0.18763000  1
  H  H58  1  0.18313000  0.46567000  0.11086000  1
  H  H59  1  0.32147000  0.36899000  0.03230000  1
  H  H60  1  0.69485000  0.56058000  0.08281000  1
  H  H61  1  0.57088000  0.66501000  0.16353000  1
  H  H62  1  0.18970000  0.18367000  0.60481000  1
  H  H63  1  0.61906000  0.71927000  0.61877000  1
  H  H64  1  0.26890000  0.65389000  0.95502000  1
  H  H65  1  0.37172000  0.56493000  0.86695000  1
  H  H66  1  0.01204000  0.29228000  0.85901000  1
  H  H67  1  0.92555000  0.39097000  0.94723000  1
  H  H68  1  0.36375000  0.38780000  0.79424000  1
  H  H69  1  0.23191000  0.26124000  0.79762000  1
  H  H70  1  0.05140000  0.42267000  0.75574000  1
  H  H71  1  0.18766000  0.54250000  0.74860000  1
  H  H72  1  0.19065000  0.26176000  0.69612000  1
  H  H73  1  0.32801000  0.38090000  0.68763000  1
  H  H74  1  0.31687000  0.53433000  0.61086000  1
  H  H75  1  0.17853000  0.63101000  0.53230000  1
  H  H76  1  0.80515000  0.43943000  0.58281000  1
  H  H77  1  0.92913000  0.33499000  0.66352000  1
  H  H78  1  0.31030000  0.81633000  0.10481000  1
  H  H79  1  0.88094000  0.28073000  0.11877000  1
  C  C80  1  0.71571000  0.92559000  0.06818000  1
  C  C81  1  0.77081000  0.97546000  0.11772000  1
  C  C82  1  0.69763000  0.07680000  0.14617000  1
  C  C83  1  0.57192000  0.12636000  0.12189000  1
  C  C84  1  0.52288000  0.07264000  0.07230000  1
  C  C85  1  0.74823000  0.12981000  0.20123000  1
  C  C86  1  0.66742000  0.06582000  0.25042000  1
  C  C87  1  0.71215000  0.13009000  0.30596000  1
  C  C88  1  0.63391000  0.07158000  0.35490000  1
  C  C89  1  0.70318000  0.98787000  0.39294000  1
  C  C90  1  0.62740000  0.93462000  0.43749000  1
  C  C91  1  0.41834000  0.04231000  0.40921000  1
  C  C92  1  0.48832000  0.09861000  0.36403000  1
  C  C93  1  0.78429000  0.07441000  0.56817000  1
  C  C94  1  0.72919000  0.02454000  0.61772000  1
  C  C95  1  0.80238000  0.92320000  0.64617000  1
  C  C96  1  0.92808000  0.87364000  0.62189000  1
  C  C97  1  0.97712000  0.92737000  0.57230000  1
  C  C98  1  0.75177000  0.87020000  0.70123000  1
  C  C99  1  0.83258000  0.93419000  0.75042000  1
  C  C100  1  0.78786000  0.86991000  0.80596000  1
  C  C101  1  0.86609000  0.92842000  0.85490000  1
  C  C102  1  0.79683000  0.01213000  0.89294000  1
  C  C103  1  0.87260000  0.06538000  0.93749000  1
  C  C104  1  0.08166000  0.95769000  0.90921000  1
  C  C105  1  0.01168000  0.90139000  0.86402000  1
  C  C106  1  0.28429000  0.42559000  0.43182000  1
  C  C107  1  0.22919000  0.47546000  0.38228000  1
  C  C108  1  0.30238000  0.57681000  0.35383000  1
  C  C109  1  0.42808000  0.62636000  0.37811000  1
  C  C110  1  0.47712000  0.57264000  0.42770000  1
  C  C111  1  0.25177000  0.62981000  0.29877000  1
  C  C112  1  0.33258000  0.56582000  0.24958000  1
  C  C113  1  0.28786000  0.63010000  0.19404000  1
  C  C114  1  0.36609000  0.57159000  0.14510000  1
  C  C115  1  0.29682000  0.48787000  0.10706000  1
  C  C116  1  0.37260000  0.43462000  0.06250000  1
  C  C117  1  0.58166000  0.54231000  0.09079000  1
  C  C118  1  0.51168000  0.59861000  0.13597000  1
  C  C119  1  0.21571000  0.57441000  0.93182000  1
  C  C120  1  0.27081000  0.52454000  0.88228000  1
  C  C121  1  0.19763000  0.42320000  0.85383000  1
  C  C122  1  0.07192000  0.37364000  0.87811000  1
  C  C123  1  0.02288000  0.42736000  0.92769000  1
  C  C124  1  0.24823000  0.37020000  0.79877000  1
  C  C125  1  0.16742000  0.43419000  0.74958000  1
  C  C126  1  0.21215000  0.36991000  0.69404000  1
  C  C127  1  0.13391000  0.42842000  0.64510000  1
  C  C128  1  0.20318000  0.51214000  0.60705000  1
  C  C129  1  0.12740000  0.56538000  0.56250000  1
  C  C130  1  0.91835000  0.45769000  0.59079000  1
  C  C131  1  0.98832000  0.40139000  0.63597000  1
  N  N132  1  0.59226000  0.97211000  0.04600000  1
  N  N133  1  0.48656000  0.96043000  0.44542000  1
  N  N134  1  0.90774000  0.02790000  0.54600000  1
  N  N135  1  0.01344000  0.03957000  0.94542000  1
  N  N136  1  0.40774000  0.47211000  0.45400000  1
  N  N137  1  0.51345000  0.46043000  0.05458000  1
  N  N138  1  0.09226000  0.52790000  0.95400000  1
  N  N139  1  0.98656000  0.53958000  0.55457000  1
  O  O140  1  0.59330000  0.75104000  0.93583000  1
  O  O141  1  0.42894000  0.01379000  0.92239000  1
  O  O142  1  0.81352000  0.69305000  0.99389000  1
  O  O143  1  0.68599000  0.50911000  0.93622000  1
  O  O144  1  0.30048000  0.20675000  0.97449000  1
  O  O145  1  0.56422000  0.22564000  0.94942000  1
  O  O146  1  0.90670000  0.24897000  0.43583000  1
  O  O147  1  0.07106000  0.98621000  0.42239000  1
  O  O148  1  0.68648000  0.30696000  0.49389000  1
  O  O149  1  0.81402000  0.49089000  0.43622000  1
  O  O150  1  0.19952000  0.79325000  0.47450000  1
  O  O151  1  0.93578000  0.77437000  0.44942000  1
  O  O152  1  0.40670000  0.25104000  0.56417000  1
  O  O153  1  0.57106000  0.51380000  0.57761000  1
  O  O154  1  0.18648000  0.19305000  0.50611000  1
  O  O155  1  0.31402000  0.00911000  0.56377000  1
  O  O156  1  0.69952000  0.70675000  0.52550000  1
  O  O157  1  0.43578000  0.72564000  0.55057000  1
  O  O158  1  0.09330000  0.74897000  0.06417000  1
  O  O159  1  0.92894000  0.48621000  0.07761000  1
  O  O160  1  0.31352000  0.80696000  0.00611000  1
  O  O161  1  0.18598000  0.99089000  0.06378000  1
  O  O162  1  0.80048000  0.29325000  0.02550000  1
  O  O163  1  0.06422000  0.27437000  0.05057000  1
