# generated using pymatgen
data_H24C43(N2O3)4
_symmetry_space_group_name_H-M   'P 1'
_cell_length_a   22.40036501
_cell_length_b   22.40036501
_cell_length_c   27.67705347
_cell_angle_alpha   113.87069668
_cell_angle_beta   113.87069668
_cell_angle_gamma   90.00000000
_symmetry_Int_Tables_number   1
_chemical_formula_structural   H24C43(N2O3)4
_chemical_formula_sum   'H48 C86 N16 O24'
_cell_volume   11388.56698690
_cell_formula_units_Z   2
loop_
 _symmetry_equiv_pos_site_id
 _symmetry_equiv_pos_as_xyz
  1  'x, y, z'
loop_
 _atom_site_type_symbol
 _atom_site_label
 _atom_site_symmetry_multiplicity
 _atom_site_fract_x
 _atom_site_fract_y
 _atom_site_fract_z
 _atom_site_occupancy
  C  1  1  0.69562500  0.99913450  0.78762150  1
  C  2  1  0.73913350  0.04423300  0.78642650  1
  C  3  1  0.64479575  0.06066075  0.70816750  1
  C  4  1  0.59822325  0.01628475  0.70700650  1
  C  5  1  0.53046150  0.00398100  0.66514100  1
  C  6  1  0.50998075  0.03515425  0.62703450  1
  C  7  1  0.55840800  0.07815500  0.62972300  1
  C  8  1  0.62475175  0.09137125  0.67015900  1
  C  9  1  0.80783675  0.06193975  0.82447350  1
  C  10  1  0.83474650  0.03609900  0.86499450  1
  C  11  1  0.79412475  0.99071625  0.86775300  1
  C  12  1  0.72487325  0.97328725  0.82956650  1
  C  13  1  0.58638000  0.00477900  0.78750350  1
  C  14  1  0.54160375  0.95845125  0.78619650  1
  C  15  1  0.55787500  0.86383100  0.70801750  1
  C  16  1  0.60338750  0.90708850  0.70699800  1
  C  17  1  0.53997600  0.79511900  0.66998900  1
  C  18  1  0.56608875  0.76793725  0.62970150  1
  C  19  1  0.61185450  0.80831750  0.62711050  1
  C  20  1  0.62944250  0.87758400  0.66524600  1
  C  21  1  0.59899525  0.07255825  0.82943850  1
  C  22  1  0.56780175  0.09327775  0.86752400  1
  C  23  1  0.52436675  0.04509725  0.86467000  1
  C  24  1  0.51081650  0.97874750  0.82413950  1
  C  37  1  0.62090800  0.98182300  0.74728750  1
  C  38  1  0.52522100  0.88684650  0.74700300  1
  C  41  1  0.71640200  0.07668950  0.74726950  1
  C  44  1  0.82473800  0.96997450  0.91279600  1
  C  45  1  0.44416875  0.02111475  0.58210750  1
  C  46  1  0.63300775  0.77742975  0.58239150  1
  C  47  1  0.58214625  0.15909125  0.91253250  1
  C  205  1  0.40535250  0.21553700  0.20729700  1
  C  206  1  0.45398200  0.17495700  0.21148900  1
  C  207  1  0.42754050  0.14861100  0.28268200  1
  C  208  1  0.38707875  0.19735375  0.28691550  1
  C  209  1  0.35020100  0.20272700  0.31949150  1
  C  210  1  0.34391900  0.15477900  0.33926200  1
  C  211  1  0.38633525  0.10818975  0.33602400  1
  C  212  1  0.42942700  0.10697000  0.31025600  1
  C  213  1  0.49569425  0.17304925  0.18397650  1
  C  214  1  0.49464525  0.21619825  0.15829200  1
  C  215  1  0.44819825  0.25877925  0.15514550  1
  C  216  1  0.40016050  0.25250550  0.17482850  1
  C  217  1  0.29657600  0.20840450  0.20722900  1
  C  218  1  0.25215350  0.25318750  0.21147850  1
  C  219  1  0.34981525  0.35066975  0.28283500  1
  C  220  1  0.39446725  0.30612625  0.28703950  1
  C  221  1  0.37556775  0.41987275  0.31046050  1
  C  222  1  0.44444575  0.44437675  0.33627750  1
  C  223  1  0.49007050  0.40098000  0.33948400  1
  C  224  1  0.46393150  0.33326550  0.31967400  1
  C  225  1  0.26928225  0.13896825  0.17459050  1
  C  226  1  0.20155750  0.11303350  0.15492800  1
  C  227  1  0.15827950  0.15876400  0.15817750  1
  C  228  1  0.18291400  0.22760150  0.18388250  1
  C  241  1  0.37086775  0.23185275  0.24711500  1
  C  242  1  0.27660700  0.32637600  0.24716000  1
  C  245  1  0.46512950  0.13733300  0.24706400  1
  C  248  1  0.45767800  0.31646750  0.14662200  1
  C  249  1  0.28635150  0.14565550  0.34803500  1
  C  250  1  0.55637800  0.41886050  0.34815900  1
  C  251  1  0.18361200  0.04677650  0.14633300  1
  C  409  1  0.94157525  0.97233575  0.97180700  1
  C  410  1  0.00323250  0.99558550  0.97563200  1
  C  411  1  0.06275375  0.01307775  0.02794350  1
  C  412  1  0.06301550  0.00750400  0.07701050  1
  C  413  1  0.00134700  0.98553100  0.07364800  1
  C  415  1  0.94173200  0.96872000  0.02160650  1
  C  427  1  0.52453700  0.21578000  0.97171700  1
  C  428  1  0.46680000  0.19648300  0.97572300  1
  C  429  1  0.45977900  0.23143100  0.02811400  1
  C  430  1  0.50862825  0.28615425  0.07704000  1
  C  431  1  0.56682625  0.30464725  0.07347400  1
  C  433  1  0.57425000  0.26924300  0.02138300  1
  C  445  1  0.63043550  0.66053500  0.52323000  1
  C  446  1  0.60657550  0.59882800  0.51895600  1
  C  447  1  0.58933050  0.53943750  0.46659200  1
  C  448  1  0.59588225  0.53936975  0.41796800  1
  C  449  1  0.61845650  0.60109500  0.42176600  1
  C  451  1  0.63495900  0.66058200  0.47383750  1
  C  463  1  0.38756450  0.07896200  0.52298950  1
  C  464  1  0.40706525  0.13641225  0.51869800  1
  C  465  1  0.37183325  0.14344925  0.46636000  1
  C  466  1  0.31668125  0.09485875  0.41773250  1
  C  467  1  0.29799250  0.03691500  0.42155800  1
  C  469  1  0.33364400  0.02950150  0.47362000  1
  H  25  1  0.50309150  0.05732600  0.89303150  1
  H  26  1  0.47937750  0.94503650  0.82364850  1
  H  27  1  0.50643600  0.76432250  0.67029300  1
  H  28  1  0.54981458  0.71830908  0.60130200  1
  H  29  1  0.66146775  0.90708325  0.66236600  1
  H  30  1  0.63172775  0.10731075  0.83252150  1
  H  31  1  0.49553575  0.97152675  0.66215750  1
  H  32  1  0.54635225  0.09937075  0.60132250  1
  H  33  1  0.65863575  0.12249625  0.67052750  1
  H  34  1  0.69519100  0.94158000  0.83258450  1
  H  35  1  0.83880875  0.09521025  0.82406000  1
  H  36  1  0.88435325  0.05229125  0.89344200  1
  H  39  1  0.53846725  0.86022525  0.77435300  1
  H  40  1  0.47128100  0.87313150  0.71949350  1
  H  42  1  0.74294300  0.06298800  0.71985000  1
  H  43  1  0.73043300  0.13065900  0.77465100  1
  H  229  1  0.10944525  0.14333025  0.14648750  1
  H  230  1  0.15058225  0.25939825  0.18823750  1
  H  231  1  0.34387025  0.45230625  0.30618100  1
  H  232  1  0.46000225  0.49318625  0.34797900  1
  H  233  1  0.49604975  0.30079375  0.32063000  1
  H  234  1  0.30170225  0.10679475  0.17362600  1
  H  235  1  0.31906475  0.23618275  0.32045900  1
  H  236  1  0.38250825  0.07105525  0.34770500  1
  H  237  1  0.45684250  0.07025950  0.30591050  1
  H  238  1  0.36679175  0.28373675  0.17384350  1
  H  239  1  0.53231525  0.14552125  0.18824650  1
  H  240  1  0.53184150  0.21999650  0.14667550  1
  H  243  1  0.25850400  0.34878000  0.21663350  1
  H  244  1  0.25422400  0.34457800  0.27769900  1
  H  246  1  0.51803825  0.14962775  0.27762600  1
  H  247  1  0.45270025  0.08442575  0.21646950  1
  H  414  1  0.10698325  0.02584375  0.02854800  1
  H  416  1  0.89844325  0.94985575  0.01909550  1
  H  424  1  0.89036150  0.93005350  0.88370800  1
  H  426  1  0.12075825  0.97069675  0.12957650  1
  H  432  1  0.41617750  0.21940900  0.02881400  1
  H  434  1  0.61497025  0.28548775  0.01873500  1
  H  442  1  0.48745475  0.16986275  0.88356750  1
  H  444  1  0.50351550  0.37558800  0.12953300  1
  H  450  1  0.57620875  0.49515025  0.46572750  1
  H  452  1  0.65422425  0.70392375  0.47669150  1
  H  460  1  0.67194050  0.71139050  0.61130200  1
  H  462  1  0.63302475  0.48160725  0.36574350  1
  H  468  1  0.38407250  0.18685650  0.46546150  1
  H  470  1  0.31728900  0.98899300  0.47647600  1
  H  478  1  0.43435075  0.11614225  0.61108450  1
  H  480  1  0.22724725  0.10015275  0.36540000  1
  N  417  1  0.00091925  0.97950125  0.12250050  1
  N  418  1  0.00479400  0.99981600  0.92643050  1
  N  423  1  0.88410200  0.94977750  0.91949200  1
  N  425  1  0.12173025  0.00897525  0.12117600  1
  N  435  1  0.61614875  0.35960475  0.12217950  1
  N  436  1  0.41598125  0.14300925  0.92664400  1
  N  441  1  0.52951225  0.18590675  0.91933800  1
  N  443  1  0.49419750  0.32893950  0.12124300  1
  N  453  1  0.62541550  0.60170750  0.37334150  1
  N  454  1  0.60139625  0.59710125  0.56774400  1
  N  459  1  0.65268350  0.71787200  0.57561050  1
  N  461  1  0.59447375  0.48069225  0.37380200  1
  N  471  1  0.24263950  0.98781850  0.37314800  1
  N  472  1  0.46107725  0.18691875  0.56743800  1
  N  477  1  0.41787975  0.07399775  0.57534100  1
  N  479  1  0.27385650  0.10927750  0.37351900  1
  O  48  1  0.42841475  0.96162875  0.53474500  1
  O  49  1  0.81295075  0.00226775  0.96026300  1
  O  50  1  0.60095875  0.78929475  0.53492500  1
  O  51  1  0.64132650  0.17371750  0.95995250  1
  O  252  1  0.23097875  0.16098625  0.31453700  1
  O  253  1  0.44225525  0.37178475  0.18009400  1
  O  254  1  0.57832700  0.36990300  0.31485250  1
  O  255  1  0.23249750  0.02494800  0.17983300  1
  O  419  1  0.96618100  0.01663350  0.14247600  1
  O  420  1  0.03971875  0.96200325  0.90739450  1
  O  421  1  0.02690000  0.05827900  0.93868250  1
  O  422  1  0.97908025  0.92056025  0.10922250  1
  O  437  1  0.67090400  0.34250300  0.14212700  1
  O  438  1  0.36198550  0.16176250  0.90767500  1
  O  439  1  0.40625500  0.09688900  0.93904200  1
  O  440  1  0.62457200  0.40513450  0.10871050  1
  O  455  1  0.58878725  0.63667825  0.35326050  1
  O  456  1  0.63867075  0.56190225  0.58688050  1
  O  457  1  0.54262800  0.57519950  0.55488200  1
  O  458  1  0.68462725  0.62340975  0.38724000  1
  O  473  1  0.25925450  0.93280700  0.35305850  1
  O  474  1  0.44297350  0.24126550  0.58662550  1
  O  475  1  0.50691125  0.19594575  0.55448850  1
  O  476  1  0.19736775  0.97993575  0.38707050  1
