# generated using pymatgen
data_Zn2H34C43N2O15
_symmetry_space_group_name_H-M   'P 1'
_cell_length_a   9.92559000
_cell_length_b   10.76301000
_cell_length_c   13.10227000
_cell_angle_alpha   89.41901000
_cell_angle_beta   71.36759000
_cell_angle_gamma   89.54782000
_symmetry_Int_Tables_number   1
_chemical_formula_structural   Zn2H34C43N2O15
_chemical_formula_sum   'Zn2 H34 C43 N2 O15'
_cell_volume   1326.25958061
_cell_formula_units_Z   1
loop_
 _symmetry_equiv_pos_site_id
 _symmetry_equiv_pos_as_xyz
  1  'x, y, z'
loop_
 _atom_site_type_symbol
 _atom_site_label
 _atom_site_symmetry_multiplicity
 _atom_site_fract_x
 _atom_site_fract_y
 _atom_site_fract_z
 _atom_site_occupancy
  Zn  Zn0  1  0.34688000  0.49998000  0.49999000  1
  Zn  Zn1  1  0.65312000  0.50002000  0.50001000  1
  H  H2  1  0.24094000  0.80711000  0.44272000  1
  H  H3  1  0.17949000  0.37230000  0.37423000  1
  H  H4  1  0.91155000  0.46982000  0.95328000  1
  H  H5  1  0.40952000  0.50159000  0.17768000  1
  H  H6  1  0.08880000  0.36539000  0.03042000  1
  H  H7  1  0.02393000  0.64667000  0.16105000  1
  H  H8  1  0.88979000  0.70238000  0.10620000  1
  H  H9  1  0.03036000  0.59896000  0.02975000  1
  H  H10  1  0.82780000  0.03161000  0.52630000  1
  H  H11  1  0.84040000  0.19858000  0.52349000  1
  H  H12  1  0.95921000  0.10909000  0.41778000  1
  H  H13  1  0.01645000  0.90512000  0.53602000  1
  H  H14  1  0.60550000  0.66151000  0.85532000  1
  H  H15  1  0.54500000  0.77796000  0.77654000  1
  H  H16  1  0.55077000  0.81276000  0.90811000  1
  H  H17  1  0.00065000  0.26116000  0.91388000  1
  H  H18  1  0.16768000  0.20108000  0.82349000  1
  H  H19  1  0.02997000  0.25505000  0.77270000  1
  H  H20  1  0.39843000  0.21580000  0.12579000  1
  H  H21  1  0.22483000  0.17751000  0.11432000  1
  H  H22  1  0.24374000  0.20954000  0.24283000  1
  H  H23  1  0.48037000  0.19363000  0.75916000  1
  H  H24  1  0.00925000  0.10011000  0.63679000  1
  H  H25  1  0.64018000  0.12641000  0.67293000  1
  H  H26  1  0.62275000  0.14498000  0.81160000  1
  H  H27  1  0.79211000  0.95198000  0.25272000  1
  H  H28  1  0.72218000  0.79389000  0.27417000  1
  H  H29  1  0.90464000  0.82499000  0.26197000  1
  H  H30  1  0.23059000  0.20053000  0.63166000  1
  H  H31  1  0.92974000  0.37322000  0.37300000  1
  H  H32  1  0.69542000  0.66743000  0.64124000  1
  H  H33  1  0.00965000  0.78081000  0.77463000  1
  H  H34  1  0.18344000  0.65877000  0.64768000  1
  H  H35  1  0.84104000  0.38858000  0.80535000  1
  C  C36  1  0.50244000  0.73945000  0.48961000  1
  C  C37  1  0.37930000  0.43311000  0.81447000  1
  C  C38  1  0.24351000  0.88881000  0.48918000  1
  C  C39  1  0.42318000  0.47966000  0.70175000  1
  C  C40  1  0.11383000  0.94711000  0.53878000  1
  C  C41  1  0.11013000  0.05696000  0.59408000  1
  C  C42  1  0.23723000  0.11434000  0.58952000  1
  C  C43  1  0.37004000  0.06084000  0.53110000  1
  C  C44  1  0.37203000  0.93879000  0.49649000  1
  C  C45  1  0.50224000  0.87236000  0.47235000  1
  C  C46  1  0.63180000  0.93598000  0.44445000  1
  C  C47  1  0.44253000  0.41935000  0.97840000  1
  C  C48  1  0.63128000  0.06381000  0.45658000  1
  C  C49  1  0.50028000  0.12599000  0.50235000  1
  C  C50  1  0.79964000  0.65464000  0.64427000  1
  C  C51  1  0.49926000  0.25977000  0.50322000  1
  C  C52  1  0.83713000  0.72571000  0.72063000  1
  C  C53  1  0.97710000  0.72282000  0.71967000  1
  C  C54  1  0.07758000  0.64972000  0.64631000  1
  C  C55  1  0.04135000  0.57352000  0.57254000  1
  C  C56  1  0.89732000  0.57461000  0.57204000  1
  C  C57  1  0.95864000  0.43019000  0.43023000  1
  C  C58  1  0.48283000  0.41186000  0.86579000  1
  C  C59  1  0.10145000  0.42988000  0.43060000  1
  C  C60  1  0.57828000  0.50293000  0.29578000  1
  C  C61  1  0.80206000  0.47114000  0.00365000  1
  C  C62  1  0.62443000  0.49685000  0.17811000  1
  C  C63  1  0.23622000  0.40721000  0.87268000  1
  C  C64  1  0.19753000  0.38736000  0.98439000  1
  C  C65  1  0.29796000  0.39462000  0.03816000  1
  C  C66  1  0.95703000  0.62074000  0.11117000  1
  C  C67  1  0.84824000  0.11521000  0.47291000  1
  C  C68  1  0.60615000  0.76160000  0.83320000  1
  C  C69  1  0.55044000  0.44576000  0.02425000  1
  C  C70  1  0.08270000  0.27273000  0.83384000  1
  C  C71  1  0.28234000  0.23605000  0.15638000  1
  C  C72  1  0.59737000  0.18871000  0.74238000  1
  C  C73  1  0.79455000  0.86125000  0.29379000  1
  C  C74  1  0.69525000  0.44160000  0.95975000  1
  C  C75  1  0.73136000  0.40262000  0.85339000  1
  C  C76  1  0.62510000  0.37717000  0.80914000  1
  C  C77  1  0.51818000  0.48280000  0.13054000  1
  C  C78  1  0.76835000  0.49815000  0.11348000  1
  N  N79  1  0.85686000  0.50120000  0.50099000  1
  N  N80  1  0.14245000  0.50128000  0.50102000  1
  O  O81  1  0.38531000  0.68322000  0.50000000  1
  O  O82  1  0.75644000  0.12899000  0.41031000  1
  O  O83  1  0.74526000  0.80910000  0.79002000  1
  O  O84  1  0.13733000  0.39504000  0.81907000  1
  O  O85  1  0.25444000  0.36362000  0.14640000  1
  O  O86  1  0.66021000  0.30720000  0.71612000  1
  O  O87  1  0.76050000  0.87401000  0.40602000  1
  O  O88  1  0.61464000  0.68325000  0.50001000  1
  O  O89  1  0.32840000  0.49995000  0.65361000  1
  O  O90  1  0.55773000  0.49997000  0.65362000  1
  O  O91  1  0.38536000  0.31675000  0.49999000  1
  O  O92  1  0.61469000  0.31678000  0.50000000  1
  O  O93  1  0.44227000  0.50003000  0.34638000  1
  O  O94  1  0.67160000  0.50005000  0.34639000  1
  O  O95  1  0.87443000  0.51671000  0.15944000  1
