# generated using pymatgen
data_ZnH6C7O4
_symmetry_space_group_name_H-M   'P 1'
_cell_length_a   15.81410000
_cell_length_b   17.10315000
_cell_length_c   18.45765000
_cell_angle_alpha   90.01717000
_cell_angle_beta   89.99548000
_cell_angle_gamma   89.98928000
_symmetry_Int_Tables_number   1
_chemical_formula_structural   ZnH6C7O4
_chemical_formula_sum   'Zn16 H96 C112 O64'
_cell_volume   4992.25733093
_cell_formula_units_Z   16
loop_
 _symmetry_equiv_pos_site_id
 _symmetry_equiv_pos_as_xyz
  1  'x, y, z'
loop_
 _atom_site_type_symbol
 _atom_site_label
 _atom_site_symmetry_multiplicity
 _atom_site_fract_x
 _atom_site_fract_y
 _atom_site_fract_z
 _atom_site_occupancy
  Zn  Zn1  1  0.43119000  0.82743000  0.64553000  1.0
  Zn  Zn2  1  0.47601000  0.67286000  0.59458000  1.0
  Zn  Zn3  1  0.06884000  0.17258000  0.14635000  1.0
  Zn  Zn4  1  0.02410000  0.32711000  0.09408000  1.0
  Zn  Zn5  1  0.56890000  0.32748000  0.85342000  1.0
  Zn  Zn6  1  0.52420000  0.17295000  0.90593000  1.0
  Zn  Zn7  1  0.93134000  0.67254000  0.35444000  1.0
  Zn  Zn8  1  0.97596000  0.82718000  0.40537000  1.0
  Zn  Zn9  1  0.56881000  0.17257000  0.35447000  1.0
  Zn  Zn10  1  0.52400000  0.32714000  0.40542000  1.0
  Zn  Zn11  1  0.93116000  0.82742000  0.85366000  1.0
  Zn  Zn12  1  0.97590000  0.67289000  0.90592000  1.0
  Zn  Zn13  1  0.43110000  0.67252000  0.14658000  1.0
  Zn  Zn14  1  0.47581000  0.82705000  0.09407000  1.0
  Zn  Zn15  1  0.06866000  0.32746000  0.64556000  1.0
  Zn  Zn16  1  0.02404000  0.17282000  0.59463000  1.0
  H  H1  1  0.46380000  0.79610000  0.36735000  1.0
  H  H2  1  0.53554000  0.71700000  0.36435000  1.0
  H  H3  1  0.59792000  0.93582000  0.26002000  1.0
  H  H4  1  0.50079000  0.92589000  0.30554000  1.0
  H  H5  1  0.73542000  0.94219000  0.33051000  1.0
  H  H6  1  0.73358000  0.93698000  0.42602000  1.0
  H  H7  1  0.67412000  0.72317000  0.43474000  1.0
  H  H8  1  0.69794000  0.80668000  0.48828000  1.0
  H  H9  1  0.59571000  0.92152000  0.49305000  1.0
  H  H10  1  0.49875000  0.91738000  0.44603000  1.0
  H  H11  1  0.70147000  0.81993000  0.25401000  1.0
  H  H12  1  0.67613000  0.73118000  0.29880000  1.0
  H  H13  1  0.03637000  0.20380000  0.86791000  1.0
  H  H14  1  0.96439000  0.28274000  0.86508000  1.0
  H  H15  1  0.90225000  0.06447000  0.75992000  1.0
  H  H16  1  0.99936000  0.07392000  0.80555000  1.0
  H  H17  1  0.76447000  0.05765000  0.83040000  1.0
  H  H18  1  0.76644000  0.06298000  0.92588000  1.0
  H  H19  1  0.82619000  0.27657000  0.93486000  1.0
  H  H20  1  0.80174000  0.19306000  0.98823000  1.0
  H  H21  1  0.90421000  0.07775000  0.99304000  1.0
  H  H22  1  0.00121000  0.08207000  0.94603000  1.0
  H  H23  1  0.79927000  0.17987000  0.75399000  1.0
  H  H24  1  0.82423000  0.26873000  0.79888000  1.0
  H  H25  1  0.53637000  0.29617000  0.13210000  1.0
  H  H26  1  0.46442000  0.21722000  0.13493000  1.0
  H  H27  1  0.40224000  0.43553000  0.24010000  1.0
  H  H28  1  0.49937000  0.42600000  0.19445000  1.0
  H  H29  1  0.26449000  0.44239000  0.16964000  1.0
  H  H30  1  0.26643000  0.43707000  0.07414000  1.0
  H  H31  1  0.32614000  0.22345000  0.06517000  1.0
  H  H32  1  0.30173000  0.30692000  0.01178000  1.0
  H  H33  1  0.40417000  0.42221000  0.00697000  1.0
  H  H34  1  0.50120000  0.41788000  0.05394000  1.0
  H  H35  1  0.29924000  0.32010000  0.24604000  1.0
  H  H36  1  0.32421000  0.23127000  0.20111000  1.0
  H  H37  1  0.96371000  0.70393000  0.63272000  1.0
  H  H38  1  0.03548000  0.78298000  0.63569000  1.0
  H  H39  1  0.09792000  0.56414000  0.73996000  1.0
  H  H40  1  0.00077000  0.57405000  0.69447000  1.0
  H  H41  1  0.23542000  0.55779000  0.66944000  1.0
  H  H42  1  0.23357000  0.56299000  0.57393000  1.0
  H  H43  1  0.17394000  0.77679000  0.56526000  1.0
  H  H44  1  0.19780000  0.69328000  0.51168000  1.0
  H  H45  1  0.09565000  0.57847000  0.50693000  1.0
  H  H46  1  0.99870000  0.58257000  0.55399000  1.0
  H  H47  1  0.20144000  0.67999000  0.74593000  1.0
  H  H48  1  0.17603000  0.76876000  0.70117000  1.0
  H  H49  1  0.53620000  0.20390000  0.63266000  1.0
  H  H50  1  0.46447000  0.28300000  0.63565000  1.0
  H  H51  1  0.40208000  0.06419000  0.73999000  1.0
  H  H52  1  0.49922000  0.07411000  0.69446000  1.0
  H  H53  1  0.26458000  0.05781000  0.66949000  1.0
  H  H54  1  0.26642000  0.06302000  0.57398000  1.0
  H  H55  1  0.32588000  0.27683000  0.56526000  1.0
  H  H56  1  0.30206000  0.19332000  0.51172000  1.0
  H  H57  1  0.40429000  0.07848000  0.50695000  1.0
  H  H58  1  0.50125000  0.08262000  0.55397000  1.0
  H  H59  1  0.29853000  0.18007000  0.74600000  1.0
  H  H60  1  0.32388000  0.26882000  0.70120000  1.0
  H  H61  1  0.96363000  0.79620000  0.13209000  1.0
  H  H62  1  0.03561000  0.71726000  0.13492000  1.0
  H  H63  1  0.09775000  0.93553000  0.24008000  1.0
  H  H64  1  0.00064000  0.92608000  0.19445000  1.0
  H  H65  1  0.23553000  0.94235000  0.16961000  1.0
  H  H66  1  0.23356000  0.93702000  0.07413000  1.0
  H  H67  1  0.17382000  0.72343000  0.06515000  1.0
  H  H68  1  0.19827000  0.80694000  0.01177000  1.0
  H  H69  1  0.09580000  0.92225000  0.00696000  1.0
  H  H70  1  0.99879000  0.91793000  0.05397000  1.0
  H  H71  1  0.20074000  0.82013000  0.24601000  1.0
  H  H72  1  0.17577000  0.73127000  0.20112000  1.0
  H  H73  1  0.46363000  0.70383000  0.86790000  1.0
  H  H74  1  0.53558000  0.78278000  0.86508000  1.0
  H  H75  1  0.59777000  0.56447000  0.75991000  1.0
  H  H76  1  0.50064000  0.57400000  0.80555000  1.0
  H  H77  1  0.73552000  0.55761000  0.83036000  1.0
  H  H78  1  0.73357000  0.56293000  0.92586000  1.0
  H  H79  1  0.67386000  0.77655000  0.93483000  1.0
  H  H80  1  0.69828000  0.69307000  0.98822000  1.0
  H  H81  1  0.59584000  0.57779000  0.99304000  1.0
  H  H82  1  0.49880000  0.58212000  0.94607000  1.0
  H  H83  1  0.70076000  0.67989000  0.75396000  1.0
  H  H84  1  0.67579000  0.76873000  0.79889000  1.0
  H  H85  1  0.03629000  0.29607000  0.36729000  1.0
  H  H86  1  0.96452000  0.21702000  0.36431000  1.0
  H  H87  1  0.90208000  0.43586000  0.26005000  1.0
  H  H88  1  0.99923000  0.42595000  0.30553000  1.0
  H  H89  1  0.76458000  0.44221000  0.33056000  1.0
  H  H90  1  0.76643000  0.43701000  0.42607000  1.0
  H  H91  1  0.82606000  0.22321000  0.43475000  1.0
  H  H92  1  0.80220000  0.30672000  0.48832000  1.0
  H  H93  1  0.90435000  0.42153000  0.49307000  1.0
  H  H94  1  0.00131000  0.41743000  0.44601000  1.0
  H  H95  1  0.79857000  0.32001000  0.25407000  1.0
  H  H96  1  0.82397000  0.23124000  0.29883000  1.0
  C  C1  1  0.53102000  0.77198000  0.50233000  1.0
  C  C2  1  0.57305000  0.81098000  0.43784000  1.0
  C  C3  1  0.53131000  0.78089000  0.36728000  1.0
  C  C4  1  0.57516000  0.81895000  0.30182000  1.0
  C  C5  1  0.56768000  0.90883000  0.30708000  1.0
  C  C6  1  0.60905000  0.93832000  0.37701000  1.0
  C  C7  1  0.70324000  0.91487000  0.37675000  1.0
  C  C8  1  0.71182000  0.82556000  0.37185000  1.0
  C  C9  1  0.66768000  0.78699000  0.43787000  1.0
  C  C10  1  0.56574000  0.90054000  0.44314000  1.0
  C  C11  1  0.66976000  0.79502000  0.30164000  1.0
  C  C12  1  0.53547000  0.79235000  0.23061000  1.0
  C  C13  1  0.60432000  0.02780000  0.38357000  1.0
  C  C14  1  0.80432000  0.80048000  0.37428000  1.0
  C  C15  1  0.96858000  0.22785000  0.00280000  1.0
  C  C16  1  0.92689000  0.18851000  0.93820000  1.0
  C  C17  1  0.96884000  0.21887000  0.86784000  1.0
  C  C18  1  0.92527000  0.18106000  0.80222000  1.0
  C  C19  1  0.93253000  0.09119000  0.80711000  1.0
  C  C20  1  0.89095000  0.06147000  0.87680000  1.0
  C  C21  1  0.79674000  0.08504000  0.87657000  1.0
  C  C22  1  0.78827000  0.17439000  0.87168000  1.0
  C  C23  1  0.83226000  0.21271000  0.93793000  1.0
  C  C24  1  0.93420000  0.09890000  0.94320000  1.0
  C  C25  1  0.83070000  0.20491000  0.80170000  1.0
  C  C26  1  0.96510000  0.20790000  0.73122000  1.0
  C  C27  1  0.89563000  0.97197000  0.88249000  1.0
  C  C28  1  0.69570000  0.19956000  0.87327000  1.0
  C  C29  1  0.46873000  0.27213000  0.99722000  1.0
  C  C30  1  0.42688000  0.31146000  0.06179000  1.0
  C  C31  1  0.46884000  0.28108000  0.13214000  1.0
  C  C32  1  0.42528000  0.31889000  0.19779000  1.0
  C  C33  1  0.43253000  0.40875000  0.19291000  1.0
  C  C34  1  0.39097000  0.43850000  0.12322000  1.0
  C  C35  1  0.29674000  0.41500000  0.12345000  1.0
  C  C36  1  0.28826000  0.32563000  0.12835000  1.0
  C  C37  1  0.33222000  0.28729000  0.06210000  1.0
  C  C38  1  0.43419000  0.40104000  0.05680000  1.0
  C  C39  1  0.33071000  0.29508000  0.19832000  1.0
  C  C40  1  0.46517000  0.29207000  0.26879000  1.0
  C  C41  1  0.39559000  0.52800000  0.11751000  1.0
  C  C42  1  0.19573000  0.30031000  0.12669000  1.0
  C  C43  1  0.03108000  0.72808000  0.49759000  1.0
  C  C44  1  0.07293000  0.68898000  0.56216000  1.0
  C  C45  1  0.03122000  0.71910000  0.63275000  1.0
  C  C46  1  0.07510000  0.68099000  0.69818000  1.0
  C  C47  1  0.06767000  0.59112000  0.69290000  1.0
  C  C48  1  0.10906000  0.56165000  0.62297000  1.0
  C  C49  1  0.20325000  0.58514000  0.62320000  1.0
  C  C50  1  0.21174000  0.67445000  0.62810000  1.0
  C  C51  1  0.16751000  0.71298000  0.56210000  1.0
  C  C52  1  0.06569000  0.59942000  0.55687000  1.0
  C  C53  1  0.16968000  0.70492000  0.69834000  1.0
  C  C54  1  0.03543000  0.70764000  0.76939000  1.0
  C  C55  1  0.10433000  0.47218000  0.61640000  1.0
  C  C56  1  0.30422000  0.69965000  0.62574000  1.0
  C  C57  1  0.46898000  0.22802000  0.49767000  1.0
  C  C58  1  0.42696000  0.18902000  0.56216000  1.0
  C  C59  1  0.46869000  0.21911000  0.63273000  1.0
  C  C60  1  0.42484000  0.18105000  0.69818000  1.0
  C  C61  1  0.43232000  0.09117000  0.69292000  1.0
  C  C62  1  0.39096000  0.06168000  0.62299000  1.0
  C  C63  1  0.29677000  0.08513000  0.62325000  1.0
  C  C64  1  0.28818000  0.17444000  0.62815000  1.0
  C  C65  1  0.33232000  0.21301000  0.56214000  1.0
  C  C66  1  0.43426000  0.09946000  0.55686000  1.0
  C  C67  1  0.33024000  0.20498000  0.69837000  1.0
  C  C68  1  0.46453000  0.20765000  0.76940000  1.0
  C  C69  1  0.39569000  0.97220000  0.61643000  1.0
  C  C70  1  0.19568000  0.19952000  0.62573000  1.0
  C  C71  1  0.03142000  0.77215000  0.99720000  1.0
  C  C72  1  0.07312000  0.81149000  0.06180000  1.0
  C  C73  1  0.03116000  0.78113000  0.13216000  1.0
  C  C74  1  0.07473000  0.81893000  0.19778000  1.0
  C  C75  1  0.06748000  0.90881000  0.19289000  1.0
  C  C76  1  0.10905000  0.93853000  0.12320000  1.0
  C  C77  1  0.20326000  0.91496000  0.12343000  1.0
  C  C78  1  0.21174000  0.82561000  0.12832000  1.0
  C  C79  1  0.16775000  0.78729000  0.06207000  1.0
  C  C80  1  0.06580000  0.90110000  0.05680000  1.0
  C  C81  1  0.16930000  0.79508000  0.19830000  1.0
  C  C82  1  0.03490000  0.79210000  0.26878000  1.0
  C  C83  1  0.10438000  0.02803000  0.11751000  1.0
  C  C84  1  0.30431000  0.80044000  0.12673000  1.0
  C  C85  1  0.53127000  0.72787000  0.00279000  1.0
  C  C86  1  0.57312000  0.68855000  0.93821000  1.0
  C  C87  1  0.53117000  0.71892000  0.86786000  1.0
  C  C88  1  0.57473000  0.68111000  0.80221000  1.0
  C  C89  1  0.56747000  0.59125000  0.80709000  1.0
  C  C90  1  0.60904000  0.56150000  0.87679000  1.0
  C  C91  1  0.70326000  0.58500000  0.87655000  1.0
  C  C92  1  0.71174000  0.67437000  0.87165000  1.0
  C  C93  1  0.66778000  0.71271000  0.93790000  1.0
  C  C94  1  0.56581000  0.59896000  0.94320000  1.0
  C  C95  1  0.66930000  0.70492000  0.80168000  1.0
  C  C96  1  0.53483000  0.70793000  0.73121000  1.0
  C  C97  1  0.60442000  0.47200000  0.88249000  1.0
  C  C98  1  0.80428000  0.69969000  0.87332000  1.0
  C  C99  1  0.96892000  0.27192000  0.50242000  1.0
  C  C100  1  0.92708000  0.31102000  0.43784000  1.0
  C  C101  1  0.96879000  0.28090000  0.36725000  1.0
  C  C102  1  0.92490000  0.31901000  0.30182000  1.0
  C  C103  1  0.93233000  0.40888000  0.30711000  1.0
  C  C104  1  0.89094000  0.43835000  0.37703000  1.0
  C  C105  1  0.79675000  0.41486000  0.37680000  1.0
  C  C106  1  0.78826000  0.32555000  0.37190000  1.0
  C  C107  1  0.83249000  0.28702000  0.43790000  1.0
  C  C108  1  0.93432000  0.40059000  0.44313000  1.0
  C  C109  1  0.83032000  0.29508000  0.30167000  1.0
  C  C110  1  0.96457000  0.29236000  0.23061000  1.0
  C  C111  1  0.89567000  0.52782000  0.38360000  1.0
  C  C112  1  0.69578000  0.30035000  0.37426000  1.0
  O  O1  1  0.50916000  0.81297000  0.55665000  1.0
  O  O2  1  0.52085000  0.69703000  0.49995000  1.0
  O  O3  1  0.49149000  0.73038000  0.22891000  1.0
  O  O4  1  0.54972000  0.83708000  0.17547000  1.0
  O  O5  1  0.56618000  0.06363000  0.32993000  1.0
  O  O6  1  0.63598000  0.06290000  0.43601000  1.0
  O  O7  1  0.85873000  0.85307000  0.39291000  1.0
  O  O8  1  0.82138000  0.72978000  0.35967000  1.0
  O  O9  1  0.98977000  0.18743000  0.05783000  1.0
  O  O10  1  0.97926000  0.30247000  0.99976000  1.0
  O  O11  1  0.00910000  0.26979000  0.72934000  1.0
  O  O12  1  0.95053000  0.16302000  0.67623000  1.0
  O  O13  1  0.93386000  0.93642000  0.82875000  1.0
  O  O14  1  0.86345000  0.93649000  0.93458000  1.0
  O  O15  1  0.64117000  0.14712000  0.89138000  1.0
  O  O16  1  0.67887000  0.27012000  0.85825000  1.0
  O  O17  1  0.49016000  0.31248000  0.94223000  1.0
  O  O18  1  0.47918000  0.19748000  0.00018000  1.0
  O  O19  1  0.50929000  0.23029000  0.27070000  1.0
  O  O20  1  0.45052000  0.33695000  0.32383000  1.0
  O  O21  1  0.43389000  0.56353000  0.17125000  1.0
  O  O22  1  0.36345000  0.56353000  0.06541000  1.0
  O  O23  1  0.14111000  0.35268000  0.10856000  1.0
  O  O24  1  0.17892000  0.22976000  0.14178000  1.0
  O  O25  1  0.00906000  0.68693000  0.44337000  1.0
  O  O26  1  0.02100000  0.80286000  0.49982000  1.0
  O  O27  1  0.99146000  0.76960000  0.77113000  1.0
  O  O28  1  0.04976000  0.66287000  0.82451000  1.0
  O  O29  1  0.06614000  0.43640000  0.67005000  1.0
  O  O30  1  0.13611000  0.43709000  0.56402000  1.0
  O  O31  1  0.35874000  0.64730000  0.60709000  1.0
  O  O32  1  0.32098000  0.77029000  0.64028000  1.0
  O  O33  1  0.49085000  0.18704000  0.44336000  1.0
  O  O34  1  0.47915000  0.30299000  0.50006000  1.0
  O  O35  1  0.50852000  0.26961000  0.77108000  1.0
  O  O36  1  0.45027000  0.16293000  0.82453000  1.0
  O  O37  1  0.43383000  0.93638000  0.67008000  1.0
  O  O38  1  0.36402000  0.93710000  0.56400000  1.0
  O  O39  1  0.14127000  0.14693000  0.60708000  1.0
  O  O40  1  0.17863000  0.27021000  0.64035000  1.0
  O  O41  1  0.01023000  0.81259000  0.94220000  1.0
  O  O42  1  0.02074000  0.69752000  0.00023000  1.0
  O  O43  1  0.99089000  0.73021000  0.27069000  1.0
  O  O44  1  0.04945000  0.83697000  0.32378000  1.0
  O  O45  1  0.06613000  0.06359000  0.17124000  1.0
  O  O46  1  0.13654000  0.06352000  0.06542000  1.0
  O  O47  1  0.35884000  0.85288000  0.10863000  1.0
  O  O48  1  0.32114000  0.72987000  0.14175000  1.0
  O  O49  1  0.50984000  0.68753000  0.05780000  1.0
  O  O50  1  0.52082000  0.80251000  0.99984000  1.0
  O  O51  1  0.49072000  0.76972000  0.72931000  1.0
  O  O52  1  0.54946000  0.66307000  0.67618000  1.0
  O  O53  1  0.56611000  0.43647000  0.82876000  1.0
  O  O54  1  0.63655000  0.43648000  0.93461000  1.0
  O  O55  1  0.85890000  0.64733000  0.89144000  1.0
  O  O56  1  0.82108000  0.77025000  0.85824000  1.0
  O  O57  1  0.99094000  0.31308000  0.55663000  1.0
  O  O58  1  0.97899000  0.19714000  0.50019000  1.0
  O  O59  1  0.00854000  0.23040000  0.22887000  1.0
  O  O60  1  0.95026000  0.33712000  0.17550000  1.0
  O  O61  1  0.93386000  0.56360000  0.32994000  1.0
  O  O62  1  0.86389000  0.56292000  0.43597000  1.0
  O  O63  1  0.64125000  0.35271000  0.39292000  1.0
  O  O64  1  0.67901000  0.22969000  0.35971000  1.0
