# generated using pymatgen
data_CdH7C12(NO2)3
_symmetry_space_group_name_H-M   'P 1'
_cell_length_a   7.52062000
_cell_length_b   14.27539000
_cell_length_c   21.24901000
_cell_angle_alpha   90.16633000
_cell_angle_beta   90.03775000
_cell_angle_gamma   89.25495000
_symmetry_Int_Tables_number   1
_chemical_formula_structural   CdH7C12(NO2)3
_chemical_formula_sum   'Cd4 H28 C48 N12 O24'
_cell_volume   2281.08618983
_cell_formula_units_Z   4
loop_
 _symmetry_equiv_pos_site_id
 _symmetry_equiv_pos_as_xyz
  1  'x, y, z'
loop_
 _atom_site_type_symbol
 _atom_site_label
 _atom_site_symmetry_multiplicity
 _atom_site_fract_x
 _atom_site_fract_y
 _atom_site_fract_z
 _atom_site_occupancy
  Cd  Cd0  1  0.52303000  0.10999000  0.93326000  1
  Cd  Cd1  1  0.51602000  0.89346000  0.06624000  1
  Cd  Cd2  1  0.51895000  0.60859000  0.56610000  1
  Cd  Cd3  1  0.50291000  0.39142000  0.43420000  1
  H  H4  1  0.19570000  0.22657000  0.98152000  1
  H  H5  1  0.18905000  0.97308000  0.88547000  1
  H  H6  1  0.18819000  0.76819000  0.02341000  1
  H  H7  1  0.18270000  0.03201000  0.10622000  1
  H  H8  1  0.85124000  0.72741000  0.51541000  1
  H  H9  1  0.84824000  0.47609000  0.61278000  1
  H  H10  1  0.83588000  0.27158000  0.48445000  1
  H  H11  1  0.82788000  0.52254000  0.38593000  1
  H  H12  1  0.84751000  0.76615000  0.02724000  1
  H  H13  1  0.84296000  0.03298000  0.10511000  1
  H  H14  1  0.85514000  0.22961000  0.98357000  1
  H  H15  1  0.84930000  0.97701000  0.88625000  1
  H  H16  1  0.17658000  0.27036000  0.48169000  1
  H  H17  1  0.16756000  0.52449000  0.38768000  1
  H  H18  1  0.19164000  0.72666000  0.51846000  1
  H  H19  1  0.18809000  0.47386000  0.61480000  1
  H  H20  1  0.40680000  0.18442000  0.60025000  1
  H  H21  1  0.56925000  0.44597000  0.68304000  1
  H  H22  1  0.56459000  0.37195000  0.78928000  1
  H  H23  1  0.60824000  0.81492000  0.39898000  1
  H  H24  1  0.43404000  0.55567000  0.31633000  1
  H  H25  1  0.44094000  0.62892000  0.21017000  1
  H  H26  1  0.41557000  0.68138000  0.89876000  1
  H  H27  1  0.56685000  0.94588000  0.81852000  1
  H  H28  1  0.56293000  0.87385000  0.71169000  1
  H  H29  1  0.40115000  0.31906000  0.10174000  1
  H  H30  1  0.58677000  0.05715000  0.18035000  1
  H  H31  1  0.58111000  0.12825000  0.28696000  1
  C  C32  1  0.11655000  0.17075000  0.96108000  1
  C  C33  1  0.11347000  0.02974000  0.90772000  1
  C  C34  1  0.10960000  0.82662000  0.04205000  1
  C  C35  1  0.10692000  0.97376000  0.08734000  1
  C  C36  1  0.92823000  0.67124000  0.53745000  1
  C  C37  1  0.92659000  0.53118000  0.59141000  1
  C  C38  1  0.91124000  0.32753000  0.46263000  1
  C  C39  1  0.90642000  0.46749000  0.40855000  1
  C  C40  1  0.92390000  0.82593000  0.04352000  1
  C  C41  1  0.92142000  0.97393000  0.08748000  1
  C  C42  1  0.93090000  0.17244000  0.96193000  1
  C  C43  1  0.92781000  0.03188000  0.90806000  1
  C  C44  1  0.09688000  0.32708000  0.46152000  1
  C  C45  1  0.09193000  0.46810000  0.40869000  1
  C  C46  1  0.11381000  0.67039000  0.53874000  1
  C  C47  1  0.11219000  0.52997000  0.59226000  1
  C  C48  1  0.48042000  0.23815000  0.75523000  1
  C  C49  1  0.42940000  0.18812000  0.70133000  1
  C  C50  1  0.44057000  0.22584000  0.64143000  1
  C  C51  1  0.49489000  0.31892000  0.63447000  1
  C  C52  1  0.53467000  0.37253000  0.68798000  1
  C  C53  1  0.52996000  0.33168000  0.74760000  1
  C  C54  1  0.49815000  0.19217000  0.81834000  1
  C  C55  1  0.51024000  0.35795000  0.56945000  1
  C  C56  1  0.53570000  0.76141000  0.24373000  1
  C  C57  1  0.58613000  0.81121000  0.29783000  1
  C  C58  1  0.57350000  0.77368000  0.35782000  1
  C  C59  1  0.51664000  0.68114000  0.36477000  1
  C  C60  1  0.47288000  0.62845000  0.31125000  1
  C  C61  1  0.48009000  0.66882000  0.25156000  1
  C  C62  1  0.52823000  0.80603000  0.17981000  1
  C  C63  1  0.50308000  0.64052000  0.42941000  1
  C  C64  1  0.48342000  0.73854000  0.74405000  1
  C  C65  1  0.43623000  0.68717000  0.79768000  1
  C  C66  1  0.44750000  0.72390000  0.85807000  1
  C  C67  1  0.49735000  0.81752000  0.86609000  1
  C  C68  1  0.53500000  0.87213000  0.81304000  1
  C  C69  1  0.53085000  0.83230000  0.75292000  1
  C  C70  1  0.49609000  0.69473000  0.67972000  1
  C  C71  1  0.50859000  0.85666000  0.93146000  1
  C  C72  1  0.48056000  0.26215000  0.25587000  1
  C  C73  1  0.42457000  0.31273000  0.20259000  1
  C  C74  1  0.43843000  0.27654000  0.14207000  1
  C  C75  1  0.49990000  0.18423000  0.13336000  1
  C  C76  1  0.54616000  0.13018000  0.18612000  1
  C  C77  1  0.53963000  0.16959000  0.24640000  1
  C  C78  1  0.49175000  0.30569000  0.32034000  1
  C  C79  1  0.51490000  0.14703000  0.06753000  1
  N  N80  1  0.20631000  0.09832000  0.93528000  1
  N  N81  1  0.19952000  0.90112000  0.06319000  1
  N  N82  1  0.83620000  0.60085000  0.56294000  1
  N  N83  1  0.81755000  0.39845000  0.43693000  1
  N  N84  1  0.83139000  0.90062000  0.06472000  1
  N  N85  1  0.83800000  0.10225000  0.93628000  1
  N  N86  1  0.18563000  0.39860000  0.43601000  1
  N  N87  1  0.20428000  0.59874000  0.56492000  1
  N  N88  1  0.35044000  0.09448000  0.70692000  1
  N  N89  1  0.66461000  0.90492000  0.29281000  1
  N  N90  1  0.35808000  0.59337000  0.79154000  1
  N  N91  1  0.33703000  0.40533000  0.20881000  1
  O  O92  1  0.54466000  0.10587000  0.81955000  1
  O  O93  1  0.47193000  0.24182000  0.86729000  1
  O  O94  1  0.22295000  0.08743000  0.74352000  1
  O  O95  1  0.60010000  0.96775000  0.32662000  1
  O  O96  1  0.41964000  0.52986000  0.82519000  1
  O  O97  1  0.38416000  0.46783000  0.17210000  1
  O  O98  1  0.49077000  0.89371000  0.17736000  1
  O  O99  1  0.55410000  0.75474000  0.13173000  1
  O  O100  1  0.79411000  0.91270000  0.25712000  1
  O  O101  1  0.41103000  0.03128000  0.67270000  1
  O  O102  1  0.53455000  0.39215000  0.32373000  1
  O  O103  1  0.46371000  0.25449000  0.36792000  1
  O  O104  1  0.21596000  0.41274000  0.24825000  1
  O  O105  1  0.53656000  0.60732000  0.67642000  1
  O  O106  1  0.47203000  0.74616000  0.63184000  1
  O  O107  1  0.22968000  0.58664000  0.75528000  1
  O  O108  1  0.54519000  0.44418000  0.56149000  1
  O  O109  1  0.49005000  0.30085000  0.52358000  1
  O  O110  1  0.45584000  0.55583000  0.43577000  1
  O  O111  1  0.53671000  0.69478000  0.47593000  1
  O  O112  1  0.52811000  0.94433000  0.93979000  1
  O  O113  1  0.49913000  0.79923000  0.97739000  1
  O  O114  1  0.54429000  0.05998000  0.05756000  1
  O  O115  1  0.49961000  0.20562000  0.02242000  1
