# generated using pymatgen
data_V4H36(C2O)25
_symmetry_space_group_name_H-M   'P 1'
_cell_length_a   6.94095000
_cell_length_b   13.64721000
_cell_length_c   20.40274000
_cell_angle_alpha   102.13139000
_cell_angle_beta   89.55801000
_cell_angle_gamma   89.66912000
_symmetry_Int_Tables_number   1
_chemical_formula_structural   V4H36(C2O)25
_chemical_formula_sum   'V4 H36 C50 O25'
_cell_volume   1889.37187421
_cell_formula_units_Z   1
loop_
 _symmetry_equiv_pos_site_id
 _symmetry_equiv_pos_as_xyz
  1  'x, y, z'
loop_
 _atom_site_type_symbol
 _atom_site_label
 _atom_site_symmetry_multiplicity
 _atom_site_fract_x
 _atom_site_fract_y
 _atom_site_fract_z
 _atom_site_occupancy
  V  V0  1  0.06468000  0.48820000  0.49778000  1
  V  V1  1  0.56401000  0.51180000  0.50222000  1
  V  V2  1  0.64817000  0.01180000  0.00222000  1
  V  V3  1  0.14881000  0.98807000  0.99782000  1
  H  H4  1  0.87675000  0.83658000  0.48042000  1
  H  H5  1  0.88975000  0.96509000  0.41392000  1
  H  H6  1  0.83498000  0.60684000  0.30427000  1
  H  H7  1  0.82784000  0.56887000  0.20087000  1
  H  H8  1  0.82634000  0.53082000  0.08173000  1
  H  H9  1  0.87112000  0.97076000  0.18330000  1
  H  H10  1  0.14211000  0.68162000  0.69276000  1
  H  H11  1  0.70377000  0.71532000  0.69987000  1
  H  H12  1  0.15714000  0.79948000  0.80156000  1
  H  H13  1  0.71495000  0.79637000  0.80210000  1
  H  H14  1  0.06553000  0.19120000  0.19676000  1
  H  H15  1  0.50575000  0.18731000  0.20537000  1
  H  H16  1  0.08887000  0.26347000  0.31938000  1
  H  H17  1  0.30765000  0.16237000  0.52019000  1
  H  H18  1  0.27001000  0.99018000  0.69742000  1
  H  H19  1  0.28406000  0.03511000  0.58853000  1
  H  H20  1  0.37336000  0.39187000  0.69549000  1
  H  H21  1  0.42186000  0.33067000  0.98181000  1
  H  H22  1  0.28099000  0.03429000  0.81799000  1
  H  H23  1  0.59664000  0.39932000  0.29902000  1
  H  H24  1  0.59923000  0.02125000  0.35229000  1
  H  H25  1  0.60710000  0.07950000  0.28031000  1
  H  H26  1  0.75423000  0.23001000  0.34814000  1
  H  H27  1  0.54226000  0.19832000  0.39120000  1
  H  H28  1  0.77823000  0.16960000  0.41868000  1
  H  H29  1  0.76250000  0.30902000  0.74919000  1
  H  H30  1  0.83562000  0.40019000  0.82284000  1
  H  H31  1  0.84647000  0.53077000  0.75344000  1
  H  H32  1  0.00524000  0.42621000  0.72126000  1
  H  H33  1  0.77823000  0.43767000  0.68058000  1
  H  H34  1  0.51706000  0.48529000  0.97163000  1
  H  H35  1  0.92743000  0.51314000  0.97090000  1
  H  H36  1  0.12476000  0.59726000  0.00143000  1
  H  H37  1  0.10409000  0.67177000  0.90200000  1
  H  H38  1  0.13157000  0.53717000  0.87706000  1
  H  H39  1  0.89847000  0.59499000  0.87223000  1
  C  C40  1  0.34906000  0.38759000  0.38539000  1
  C  C41  1  0.34585000  0.36202000  0.56483000  1
  C  C42  1  0.83960000  0.61651000  0.61329000  1
  C  C43  1  0.84340000  0.63742000  0.43493000  1
  C  C44  1  0.87671000  0.88760000  0.38799000  1
  C  C45  1  0.85272000  0.71418000  0.39497000  1
  C  C46  1  0.85520000  0.68404000  0.07033000  1
  C  C47  1  0.83965000  0.60847000  0.10711000  1
  C  C48  1  0.83872000  0.63177000  0.17691000  1
  C  C49  1  0.85019000  0.73221000  0.21302000  1
  C  C50  1  0.85896000  0.80946000  0.17586000  1
  C  C51  1  0.85367000  0.75835000  0.28467000  1
  C  C52  1  0.86593000  0.86108000  0.31755000  1
  C  C53  1  0.86581000  0.93633000  0.27991000  1
  C  C54  1  0.86607000  0.91032000  0.21019000  1
  C  C55  1  0.84609000  0.68592000  0.32511000  1
  C  C56  1  0.86972000  0.81465000  0.42629000  1
  C  C57  1  0.86002000  0.78449000  0.10474000  1
  C  C58  1  0.00525000  0.71148000  0.71458000  1
  C  C59  1  0.84207000  0.68585000  0.67974000  1
  C  C60  1  0.01414000  0.77965000  0.78213000  1
  C  C61  1  0.85909000  0.81603000  0.81986000  1
  C  C62  1  0.20669000  0.21049000  0.21806000  1
  C  C63  1  0.36514000  0.17501000  0.18261000  1
  C  C64  1  0.21419000  0.26946000  0.28838000  1
  C  C65  1  0.35974000  0.33099000  0.31451000  1
  C  C66  1  0.31141000  0.11218000  0.61303000  1
  C  C67  1  0.35219000  0.28461000  0.60462000  1
  C  C68  1  0.41248000  0.31288000  0.92759000  1
  C  C69  1  0.46474000  0.38473000  0.89099000  1
  C  C70  1  0.46804000  0.35912000  0.82074000  1
  C  C71  1  0.39283000  0.26538000  0.78609000  1
  C  C72  1  0.35236000  0.19122000  0.82415000  1
  C  C73  1  0.36771000  0.24037000  0.71486000  1
  C  C74  1  0.32866000  0.13948000  0.68304000  1
  C  C75  1  0.30180000  0.06704000  0.72129000  1
  C  C76  1  0.30855000  0.09285000  0.79073000  1
  C  C77  1  0.37022000  0.31263000  0.67426000  1
  C  C78  1  0.32450000  0.18429000  0.57403000  1
  C  C79  1  0.36549000  0.21562000  0.89492000  1
  C  C80  1  0.36747000  0.13772000  0.93484000  1
  C  C81  1  0.36431000  0.11385000  0.11394000  1
  C  C82  1  0.86931000  0.86264000  0.06523000  1
  C  C83  1  0.87278000  0.88403000  0.88654000  1
  C  C84  1  0.68350000  0.07196000  0.32672000  1
  C  C85  1  0.69041000  0.17399000  0.37409000  1
  C  C86  1  0.75469000  0.38958000  0.77497000  1
  C  C87  1  0.85225000  0.44992000  0.72967000  1
  C  C88  1  0.98729000  0.58905000  0.97282000  1
  C  C89  1  0.03333000  0.59883000  0.90150000  1
  O  O90  1  0.50686000  0.40061000  0.55076000  1
  O  O91  1  0.18022000  0.40540000  0.41322000  1
  O  O92  1  0.00450000  0.59939000  0.44924000  1
  O  O93  1  0.17749000  0.38871000  0.54803000  1
  O  O94  1  0.00175000  0.58258000  0.58501000  1
  O  O95  1  0.50961000  0.41742000  0.41499000  1
  O  O96  1  0.33742000  0.56363000  0.51198000  1
  O  O97  1  0.67171000  0.59460000  0.58678000  1
  O  O98  1  0.67444000  0.61129000  0.45197000  1
  O  O99  1  0.84114000  0.43637000  0.48802000  1
  O  O100  1  0.20323000  0.08269000  0.08498000  1
  O  O101  1  0.53550000  0.11131000  0.95196000  1
  O  O102  1  0.71108000  0.91739000  0.91500000  1
  O  O103  1  0.53263000  0.09463000  0.08677000  1
  O  O104  1  0.70819000  0.90059000  0.05077000  1
  O  O105  1  0.20612000  0.09949000  0.94921000  1
  O  O106  1  0.37536000  0.93643000  0.98801000  1
  O  O107  1  0.03824000  0.88861000  0.04806000  1
  O  O108  1  0.04112000  0.90529000  0.91325000  1
  O  O109  1  0.87175000  0.06357000  0.01199000  1
  O  O110  1  0.51165000  0.34686000  0.27373000  1
  O  O111  1  0.87356000  0.03655000  0.31103000  1
  O  O112  1  0.56220000  0.42338000  0.78740000  1
  O  O113  1  0.52642000  0.47883000  0.92238000  1
  O  O114  1  0.84926000  0.66302000  0.00071000  1
