# generated using pymatgen
data_SrH4(C2O)4
_symmetry_space_group_name_H-M   'P 1'
_cell_length_a   6.89700000
_cell_length_b   12.18640000
_cell_length_c   18.51600000
_cell_angle_alpha   90.00000000
_cell_angle_beta   90.00000000
_cell_angle_gamma   90.00000000
_symmetry_Int_Tables_number   1
_chemical_formula_structural   SrH4(C2O)4
_chemical_formula_sum   'Sr4 H16 C32 O16'
_cell_volume   1556.26240841
_cell_formula_units_Z   4
loop_
 _symmetry_equiv_pos_site_id
 _symmetry_equiv_pos_as_xyz
  1  'x, y, z'
loop_
 _atom_site_type_symbol
 _atom_site_label
 _atom_site_symmetry_multiplicity
 _atom_site_fract_x
 _atom_site_fract_y
 _atom_site_fract_z
 _atom_site_occupancy
  Sr  Sr1  1  0.25000000  0.08464000  0.51764000  1.0
  Sr  Sr2  1  0.75000000  0.41536000  0.01764000  1.0
  Sr  Sr3  1  0.75000000  0.91536000  0.48236000  1.0
  Sr  Sr4  1  0.25000000  0.58464000  0.98236000  1.0
  H  H1  1  0.95730000  0.83790000  0.32570000  1.0
  H  H2  1  0.95810000  0.75680000  0.21190000  1.0
  H  H3  1  0.04270000  0.66210000  0.82570000  1.0
  H  H4  1  0.04190000  0.74320000  0.71190000  1.0
  H  H5  1  0.45730000  0.16210000  0.67430000  1.0
  H  H6  1  0.45810000  0.24320000  0.78810000  1.0
  H  H7  1  0.54270000  0.33790000  0.17430000  1.0
  H  H8  1  0.54190000  0.25680000  0.28810000  1.0
  H  H9  1  0.04270000  0.16210000  0.67430000  1.0
  H  H10  1  0.04190000  0.24320000  0.78810000  1.0
  H  H11  1  0.95730000  0.33790000  0.17430000  1.0
  H  H12  1  0.95810000  0.25680000  0.28810000  1.0
  H  H13  1  0.54270000  0.83790000  0.32570000  1.0
  H  H14  1  0.54190000  0.75680000  0.21190000  1.0
  H  H15  1  0.45730000  0.66210000  0.82570000  1.0
  H  H16  1  0.45810000  0.74320000  0.71190000  1.0
  C  C1  1  0.07710000  0.82120000  0.30280000  1.0
  C  C2  1  0.07780000  0.77310000  0.23490000  1.0
  C  C3  1  0.92290000  0.67880000  0.80280000  1.0
  C  C4  1  0.92220000  0.72690000  0.73490000  1.0
  C  C5  1  0.57710000  0.17880000  0.69720000  1.0
  C  C6  1  0.57780000  0.22690000  0.76510000  1.0
  C  C7  1  0.42290000  0.32120000  0.19720000  1.0
  C  C8  1  0.42220000  0.27310000  0.26510000  1.0
  C  C9  1  0.92290000  0.17880000  0.69720000  1.0
  C  C10  1  0.92220000  0.22690000  0.76510000  1.0
  C  C11  1  0.07710000  0.32120000  0.19720000  1.0
  C  C12  1  0.07780000  0.27310000  0.26510000  1.0
  C  C13  1  0.42290000  0.82120000  0.30280000  1.0
  C  C14  1  0.42220000  0.77310000  0.23490000  1.0
  C  C15  1  0.57710000  0.67880000  0.80280000  1.0
  C  C16  1  0.57780000  0.72690000  0.73490000  1.0
  C  C17  1  0.25000000  0.89920000  0.41070000  1.0
  C  C18  1  0.25000000  0.84510000  0.33750000  1.0
  C  C19  1  0.25000000  0.69940000  0.12560000  1.0
  C  C20  1  0.25000000  0.74850000  0.20000000  1.0
  C  C21  1  0.75000000  0.60080000  0.91070000  1.0
  C  C22  1  0.75000000  0.65490000  0.83750000  1.0
  C  C23  1  0.75000000  0.80060000  0.62560000  1.0
  C  C24  1  0.75000000  0.75150000  0.70000000  1.0
  C  C25  1  0.75000000  0.10080000  0.58930000  1.0
  C  C26  1  0.75000000  0.15490000  0.66250000  1.0
  C  C27  1  0.75000000  0.30060000  0.87440000  1.0
  C  C28  1  0.75000000  0.25150000  0.80000000  1.0
  C  C29  1  0.25000000  0.39920000  0.08930000  1.0
  C  C30  1  0.25000000  0.34510000  0.16250000  1.0
  C  C31  1  0.25000000  0.19940000  0.37440000  1.0
  C  C32  1  0.25000000  0.24850000  0.30000000  1.0
  O  O1  1  0.09060000  0.92340000  0.43946000  1.0
  O  O2  1  0.09040000  0.68030000  0.09550000  1.0
  O  O3  1  0.90940000  0.57660000  0.93946000  1.0
  O  O4  1  0.90960000  0.81970000  0.59550000  1.0
  O  O5  1  0.59060000  0.07660000  0.56054000  1.0
  O  O6  1  0.59040000  0.31970000  0.90450000  1.0
  O  O7  1  0.40940000  0.42340000  0.06054000  1.0
  O  O8  1  0.40960000  0.18030000  0.40450000  1.0
  O  O9  1  0.90940000  0.07660000  0.56054000  1.0
  O  O10  1  0.90960000  0.31970000  0.90450000  1.0
  O  O11  1  0.09060000  0.42340000  0.06054000  1.0
  O  O12  1  0.09040000  0.18030000  0.40450000  1.0
  O  O13  1  0.40940000  0.92340000  0.43946000  1.0
  O  O14  1  0.40960000  0.68030000  0.09550000  1.0
  O  O15  1  0.59060000  0.57660000  0.93946000  1.0
  O  O16  1  0.59040000  0.81970000  0.59550000  1.0
