# generated using pymatgen
data_H3C6N2O3
_symmetry_space_group_name_H-M   'P 1'
_cell_length_a   10.03153333
_cell_length_b   22.02067500
_cell_length_c   22.02065000
_cell_angle_alpha   119.99988733
_cell_angle_beta   90.00000000
_cell_angle_gamma   90.00000000
_symmetry_Int_Tables_number   1
_chemical_formula_structural   H3C6N2O3
_chemical_formula_sum   'H18 C36 N12 O18'
_cell_volume   4212.68713883
_cell_formula_units_Z   6
loop_
 _symmetry_equiv_pos_site_id
 _symmetry_equiv_pos_as_xyz
  1  'x, y, z'
loop_
 _atom_site_type_symbol
 _atom_site_label
 _atom_site_symmetry_multiplicity
 _atom_site_fract_x
 _atom_site_fract_y
 _atom_site_fract_z
 _atom_site_occupancy
  C  1  1  0.09808300  0.63954700  0.37795200  1
  C  2  1  0.09938400  0.71335850  0.40783450  1
  C  3  1  0.09833700  0.74638300  0.36680400  1
  C  4  1  0.09938400  0.70244150  0.29298750  1
  C  5  1  0.09817800  0.62838150  0.25996250  1
  C  6  1  0.09939500  0.59848700  0.30389400  1
  C  10  1  0.07787100  0.60910200  0.42087500  1
  C  11  1  0.07792300  0.58546100  0.18659600  1
  C  12  1  0.07823600  0.81975750  0.39725950  1
  C  16  1  0.91195600  0.34848100  0.60892300  1
  C  17  1  0.91298450  0.28037250  0.60032050  1
  C  18  1  0.91199100  0.26828850  0.65775550  1
  C  19  1  0.91300900  0.32780100  0.72586400  1
  C  20  1  0.91189600  0.39732150  0.73795350  1
  C  21  1  0.91293900  0.40591800  0.67844100  1
  C  25  1  0.91904300  0.35847100  0.55003600  1
  C  26  1  0.91901800  0.45621550  0.80682850  1
  C  27  1  0.91927700  0.19940600  0.64774500  1
  C  31  1  0.01829000  0.57522200  0.07492300  1
  C  32  1  0.08058500  0.58011500  0.02009600  1
  C  33  1  0.03340300  0.54186800  0.95114700  1
  C  34  1  0.91894800  0.49879450  0.93405450  1
  C  35  1  0.84700500  0.49912150  0.99010450  1
  C  38  1  0.89514900  0.53823450  0.06051550  1
  C  49  1  0.01821000  0.50763000  0.43110700  1
  C  50  1  0.08046300  0.44788050  0.42615350  1
  C  51  1  0.03320900  0.41709550  0.46431250  1
  C  52  1  0.91878900  0.44308600  0.50741700  1
  C  53  1  0.84686600  0.49884150  0.50713950  1
  C  56  1  0.89501000  0.53014700  0.46803400  1
  C  67  1  0.01852400  0.93136750  0.49872550  1
  C  68  1  0.08069900  0.98617200  0.55850900  1
  C  69  1  0.03337300  0.05510750  0.58927850  1
  C  70  1  0.91893500  0.07217200  0.56325300  1
  C  71  1  0.84699600  0.01610900  0.50754100  1
  C  74  1  0.89520300  0.94571200  0.47626100  1
  H  7  1  0.09101600  0.72519150  0.26257850  1
  H  8  1  0.09063200  0.54534900  0.28114800  1
  H  9  1  0.09102600  0.74377350  0.46099450  1
  H  22  1  0.91950200  0.32002650  0.76777850  1
  H  23  1  0.91935800  0.45561300  0.68622300  1
  H  24  1  0.91953600  0.23846000  0.55063200  1
  H  36  1  0.09170800  0.54126450  0.91281650  1
  H  37  1  0.16862600  0.60686350  0.02892150  1
  H  46  1  0.82682400  0.41488300  0.85718600  1
  H  48  1  0.13632300  0.64784850  0.15014450  1
  H  54  1  0.09146900  0.37932350  0.46485650  1
  H  55  1  0.16843600  0.42989500  0.39935400  1
  H  64  1  0.82673600  0.45012900  0.59134500  1
  H  66  1  0.13625700  0.51030700  0.35850500  1
  H  72  1  0.09193700  0.09347750  0.62679050  1
  H  73  1  0.16902600  0.97745350  0.57627650  1
  H  82  1  0.82698500  0.14900850  0.55607350  1
  H  84  1  0.13696600  0.85616500  0.49598300  1
  N  39  1  0.72593700  0.46062450  0.97249250  1
  N  40  1  0.81790800  0.54966750  0.11935050  1
  N  45  1  0.88479700  0.45363950  0.86550350  1
  N  47  1  0.07609800  0.60915550  0.13996450  1
  N  57  1  0.72577000  0.51968850  0.54561950  1
  N  58  1  0.81784400  0.57767950  0.45676250  1
  N  63  1  0.88466700  0.41968300  0.55257000  1
  N  65  1  0.07608300  0.53879350  0.39725350  1
  N  75  1  0.72583900  0.03370300  0.48671400  1
  N  76  1  0.81807600  0.88687100  0.42875800  1
  N  81  1  0.88489100  0.14071500  0.58655300  1
  N  83  1  0.07641700  0.86635450  0.46759450  1
  O  13  1  0.06210700  0.51533000  0.15969900  1
  O  14  1  0.06194200  0.65235050  0.49099450  1
  O  15  1  0.06231200  0.84666800  0.35404100  1
  O  28  1  0.94505600  0.52019550  0.81457350  1
  O  29  1  0.94483200  0.30221650  0.48602650  1
  O  30  1  0.94500100  0.19170500  0.70403800  1
  O  41  1  0.62327100  0.49708800  0.99858200  1
  O  42  1  0.78442300  0.49528550  0.12037450  1
  O  43  1  0.72838500  0.40939750  0.98263650  1
  O  44  1  0.71852200  0.58828250  0.12965250  1
  O  59  1  0.62312200  0.50933650  0.50914950  1
  O  60  1  0.78450300  0.63305300  0.51121400  1
  O  61  1  0.72818600  0.58103000  0.59689300  1
  O  62  1  0.71838600  0.54947750  0.41816850  1
  O  77  1  0.62325800  0.00757550  0.49711450  1
  O  78  1  0.78466300  0.88590900  0.37337600  1
  O  79  1  0.72816000  0.02359000  0.42535500  1
  O  80  1  0.71867000  0.87647650  0.45698850  1
