# generated using pymatgen
data_ZnH15C23N2O5
_symmetry_space_group_name_H-M   'P 1'
_cell_length_a   14.41054000
_cell_length_b   14.41077000
_cell_length_c   16.25386000
_cell_angle_alpha   101.92007000
_cell_angle_beta   101.88125000
_cell_angle_gamma   117.19125000
_symmetry_Int_Tables_number   1
_chemical_formula_structural   ZnH15C23N2O5
_chemical_formula_sum   'Zn4 H60 C92 N8 O20'
_cell_volume   2757.24418682
_cell_formula_units_Z   4
loop_
 _symmetry_equiv_pos_site_id
 _symmetry_equiv_pos_as_xyz
  1  'x, y, z'
loop_
 _atom_site_type_symbol
 _atom_site_label
 _atom_site_symmetry_multiplicity
 _atom_site_fract_x
 _atom_site_fract_y
 _atom_site_fract_z
 _atom_site_occupancy
  Zn  Zn1  1  0.40752000  0.43489000  0.63936000  1.0
  Zn  Zn2  1  0.56512000  0.59250000  0.86060000  1.0
  Zn  Zn3  1  0.59248000  0.56512000  0.36064000  1.0
  Zn  Zn4  1  0.43488000  0.40751000  0.13940000  1.0
  H  H1  1  0.69016000  0.37908000  0.62185000  1.0
  H  H2  1  0.78858000  0.27399000  0.61407000  1.0
  H  H3  1  0.52575000  0.00947000  0.65926000  1.0
  H  H4  1  0.42777000  0.11437000  0.66523000  1.0
  H  H5  1  0.77409000  0.07117000  0.79127000  1.0
  H  H6  1  0.69756000  0.89323000  0.82626000  1.0
  H  H7  1  0.50744000  0.70656000  0.54685000  1.0
  H  H8  1  0.58287000  0.88341000  0.51263000  1.0
  H  H9  1  0.38600000  0.50752000  0.48217000  1.0
  H  H10  1  0.28832000  0.42126000  0.31715000  1.0
  H  H11  1  0.10833000  0.10655000  0.35415000  1.0
  H  H12  1  0.21540000  0.20605000  0.51959000  1.0
  H  H13  1  0.16004000  0.25943000  0.18657000  1.0
  H  H14  1  0.07662000  0.92120000  0.09738000  1.0
  H  H15  1  0.99154000  0.16580000  0.06871000  1.0
  H  H16  1  0.62090000  0.30985000  0.87815000  1.0
  H  H17  1  0.72600000  0.21144000  0.88594000  1.0
  H  H18  1  0.99055000  0.47425000  0.84075000  1.0
  H  H19  1  0.88564000  0.57221000  0.83476000  1.0
  H  H20  1  0.92888000  0.22595000  0.70874000  1.0
  H  H21  1  0.10682000  0.30248000  0.67373000  1.0
  H  H22  1  0.29342000  0.49255000  0.95316000  1.0
  H  H23  1  0.11655000  0.41713000  0.98740000  1.0
  H  H24  1  0.49252000  0.61405000  0.01788000  1.0
  H  H25  1  0.57876000  0.71170000  0.18291000  1.0
  H  H26  1  0.89345000  0.89166000  0.14583000  1.0
  H  H27  1  0.79397000  0.78461000  0.98038000  1.0
  H  H28  1  0.74060000  0.83998000  0.31348000  1.0
  H  H29  1  0.07879000  0.92333000  0.40255000  1.0
  H  H30  1  0.83424000  0.00848000  0.43139000  1.0
  H  H31  1  0.30984000  0.62093000  0.37815000  1.0
  H  H32  1  0.21142000  0.72602000  0.38593000  1.0
  H  H33  1  0.47425000  0.99054000  0.34074000  1.0
  H  H34  1  0.57223000  0.88564000  0.33477000  1.0
  H  H35  1  0.22591000  0.92884000  0.20873000  1.0
  H  H36  1  0.30244000  0.10678000  0.17374000  1.0
  H  H37  1  0.49256000  0.29345000  0.45315000  1.0
  H  H38  1  0.41713000  0.11660000  0.48737000  1.0
  H  H39  1  0.61400000  0.49249000  0.51783000  1.0
  H  H40  1  0.71168000  0.57875000  0.68286000  1.0
  H  H41  1  0.89167000  0.89346000  0.64585000  1.0
  H  H42  1  0.78460000  0.79396000  0.48041000  1.0
  H  H43  1  0.83996000  0.74058000  0.81343000  1.0
  H  H44  1  0.92338000  0.07881000  0.90262000  1.0
  H  H45  1  0.00846000  0.83421000  0.93130000  1.0
  H  H46  1  0.37910000  0.69016000  0.12185000  1.0
  H  H47  1  0.27400000  0.78857000  0.11406000  1.0
  H  H48  1  0.00945000  0.52576000  0.15925000  1.0
  H  H49  1  0.11436000  0.42780000  0.16524000  1.0
  H  H50  1  0.07112000  0.77406000  0.29126000  1.0
  H  H51  1  0.89318000  0.69753000  0.32627000  1.0
  H  H52  1  0.70658000  0.50746000  0.04684000  1.0
  H  H53  1  0.88345000  0.58288000  0.01260000  1.0
  H  H54  1  0.50748000  0.38596000  0.98212000  1.0
  H  H55  1  0.42124000  0.28831000  0.81709000  1.0
  H  H56  1  0.10655000  0.10835000  0.85418000  1.0
  H  H57  1  0.20603000  0.21540000  0.01962000  1.0
  H  H58  1  0.25940000  0.16003000  0.68652000  1.0
  H  H59  1  0.92121000  0.07668000  0.59745000  1.0
  H  H60  1  0.16576000  0.99153000  0.56861000  1.0
  C  C1  1  0.55250000  0.25298000  0.64399000  1.0
  C  C2  1  0.65463000  0.29806000  0.62962000  1.0
  C  C3  1  0.70955000  0.24004000  0.62516000  1.0
  C  C4  1  0.66292000  0.13614000  0.63606000  1.0
  C  C5  1  0.56136000  0.08995000  0.65082000  1.0
  C  C6  1  0.50712000  0.14881000  0.65450000  1.0
  C  C7  1  0.48985000  0.31092000  0.64489000  1.0
  C  C8  1  0.68183000  0.98486000  0.65054000  1.0
  C  C9  1  0.71606000  0.99042000  0.73909000  1.0
  C  C10  1  0.67320000  0.89206000  0.75799000  1.0
  C  C11  1  0.59713000  0.78953000  0.68893000  1.0
  C  C12  1  0.56562000  0.78616000  0.60021000  1.0
  C  C13  1  0.60807000  0.88407000  0.58062000  1.0
  C  C14  1  0.55084000  0.68472000  0.71028000  1.0
  C  C15  1  0.32286000  0.41951000  0.45148000  1.0
  C  C16  1  0.26703000  0.37081000  0.35948000  1.0
  C  C17  1  0.18937000  0.25603000  0.32260000  1.0
  C  C18  1  0.16824000  0.19556000  0.38108000  1.0
  C  C19  1  0.22685000  0.25020000  0.47222000  1.0
  C  C20  1  0.13939000  0.20304000  0.22506000  1.0
  C  C21  1  0.04079000  0.05037000  0.09409000  1.0
  C  C22  1  0.04267000  0.95491000  0.05419000  1.0
  C  C23  1  0.99606000  0.09391000  0.03846000  1.0
  C  C24  1  0.74702000  0.44750000  0.85601000  1.0
  C  C25  1  0.70193000  0.34538000  0.87038000  1.0
  C  C26  1  0.75995000  0.29046000  0.87485000  1.0
  C  C27  1  0.86386000  0.33709000  0.86396000  1.0
  C  C28  1  0.91005000  0.43864000  0.84918000  1.0
  C  C29  1  0.85120000  0.49287000  0.84549000  1.0
  C  C30  1  0.68907000  0.51014000  0.85510000  1.0
  C  C31  1  0.01516000  0.31818000  0.84949000  1.0
  C  C32  1  0.00962000  0.28397000  0.76092000  1.0
  C  C33  1  0.10797000  0.32683000  0.74201000  1.0
  C  C34  1  0.21049000  0.40289000  0.81107000  1.0
  C  C35  1  0.21383000  0.43438000  0.89981000  1.0
  C  C36  1  0.11592000  0.39194000  0.91940000  1.0
  C  C37  1  0.31530000  0.44918000  0.78972000  1.0
  C  C38  1  0.58052000  0.67718000  0.04855000  1.0
  C  C39  1  0.62922000  0.73299000  0.14056000  1.0
  C  C40  1  0.74399000  0.81064000  0.17742000  1.0
  C  C41  1  0.80445000  0.83176000  0.11891000  1.0
  C  C42  1  0.74982000  0.77317000  0.02777000  1.0
  C  C43  1  0.79700000  0.86061000  0.27497000  1.0
  C  C44  1  0.94964000  0.95919000  0.40591000  1.0
  C  C45  1  0.04508000  0.95730000  0.44577000  1.0
  C  C46  1  0.90613000  0.00395000  0.46159000  1.0
  C  C47  1  0.44750000  0.74703000  0.35602000  1.0
  C  C48  1  0.34537000  0.70195000  0.37039000  1.0
  C  C49  1  0.29045000  0.75997000  0.37484000  1.0
  C  C50  1  0.33708000  0.86387000  0.36395000  1.0
  C  C51  1  0.43864000  0.91006000  0.34918000  1.0
  C  C52  1  0.49288000  0.85120000  0.34550000  1.0
  C  C53  1  0.51015000  0.68909000  0.35511000  1.0
  C  C54  1  0.31817000  0.01515000  0.34946000  1.0
  C  C55  1  0.28395000  0.00959000  0.26091000  1.0
  C  C56  1  0.32680000  0.10795000  0.24201000  1.0
  C  C57  1  0.40287000  0.21048000  0.31107000  1.0
  C  C58  1  0.43438000  0.21385000  0.39979000  1.0
  C  C59  1  0.39193000  0.11594000  0.41938000  1.0
  C  C60  1  0.44916000  0.31529000  0.28973000  1.0
  C  C61  1  0.67714000  0.58050000  0.54852000  1.0
  C  C62  1  0.73297000  0.62920000  0.64053000  1.0
  C  C63  1  0.81063000  0.74398000  0.67740000  1.0
  C  C64  1  0.83176000  0.80445000  0.61892000  1.0
  C  C65  1  0.77315000  0.74981000  0.52778000  1.0
  C  C66  1  0.86061000  0.79697000  0.77494000  1.0
  C  C67  1  0.95921000  0.94964000  0.90591000  1.0
  C  C68  1  0.95733000  0.04510000  0.94581000  1.0
  C  C69  1  0.00394000  0.90611000  0.96154000  1.0
  C  C70  1  0.25298000  0.55251000  0.14399000  1.0
  C  C71  1  0.29807000  0.65463000  0.12962000  1.0
  C  C72  1  0.24005000  0.70955000  0.12515000  1.0
  C  C73  1  0.13614000  0.66292000  0.13604000  1.0
  C  C74  1  0.08995000  0.56137000  0.15082000  1.0
  C  C75  1  0.14880000  0.50714000  0.15451000  1.0
  C  C76  1  0.31093000  0.48987000  0.14491000  1.0
  C  C77  1  0.98484000  0.68183000  0.15051000  1.0
  C  C78  1  0.99039000  0.71604000  0.23908000  1.0
  C  C79  1  0.89203000  0.67318000  0.25799000  1.0
  C  C80  1  0.78951000  0.59712000  0.18893000  1.0
  C  C81  1  0.78617000  0.56563000  0.10019000  1.0
  C  C82  1  0.88408000  0.60807000  0.08060000  1.0
  C  C83  1  0.68470000  0.55083000  0.21028000  1.0
  C  C84  1  0.41948000  0.32283000  0.95145000  1.0
  C  C85  1  0.37078000  0.26702000  0.85944000  1.0
  C  C86  1  0.25601000  0.18937000  0.82258000  1.0
  C  C87  1  0.19555000  0.16825000  0.88109000  1.0
  C  C88  1  0.25018000  0.22684000  0.97223000  1.0
  C  C89  1  0.20300000  0.13940000  0.72504000  1.0
  C  C90  1  0.05036000  0.04082000  0.59409000  1.0
  C  C91  1  0.95492000  0.04271000  0.55423000  1.0
  C  C92  1  0.09388000  0.99606000  0.53841000  1.0
  N  N1  1  0.30417000  0.36065000  0.50736000  1.0
  N  N2  1  0.08266000  0.09608000  0.18776000  1.0
  N  N3  1  0.63938000  0.69587000  0.99265000  1.0
  N  N4  1  0.90392000  0.91730000  0.31223000  1.0
  N  N5  1  0.69583000  0.63936000  0.49265000  1.0
  N  N6  1  0.91734000  0.90393000  0.81224000  1.0
  N  N7  1  0.36062000  0.30414000  0.00736000  1.0
  N  N8  1  0.09608000  0.08271000  0.68777000  1.0
  O  O1  1  0.72304000  0.08394000  0.63153000  1.0
  O  O2  1  0.53663000  0.41086000  0.64188000  1.0
  O  O3  1  0.39193000  0.26255000  0.64649000  1.0
  O  O4  1  0.47826000  0.59439000  0.64576000  1.0
  O  O5  1  0.58843000  0.69473000  0.79191000  1.0
  O  O6  1  0.91609000  0.27701000  0.86855000  1.0
  O  O7  1  0.58914000  0.46337000  0.85811000  1.0
  O  O8  1  0.73744000  0.60806000  0.85348000  1.0
  O  O9  1  0.40562000  0.52175000  0.85423000  1.0
  O  O10  1  0.30529000  0.41159000  0.70807000  1.0
  O  O11  1  0.27696000  0.91607000  0.36847000  1.0
  O  O12  1  0.46337000  0.58915000  0.35812000  1.0
  O  O13  1  0.60807000  0.73746000  0.35351000  1.0
  O  O14  1  0.52174000  0.40562000  0.35424000  1.0
  O  O15  1  0.41157000  0.30528000  0.20809000  1.0
  O  O16  1  0.08391000  0.72300000  0.13146000  1.0
  O  O17  1  0.41086000  0.53664000  0.14189000  1.0
  O  O18  1  0.26256000  0.39195000  0.14652000  1.0
  O  O19  1  0.59438000  0.47826000  0.14577000  1.0
  O  O20  1  0.69472000  0.58842000  0.29193000  1.0
