# generated using pymatgen
data_HoH3(C3O2)3
_symmetry_space_group_name_H-M   'P 1'
_cell_length_a   10.28229000
_cell_length_b   10.28820000
_cell_length_c   14.36494000
_cell_angle_alpha   90.01003000
_cell_angle_beta   89.95856000
_cell_angle_gamma   89.72572000
_symmetry_Int_Tables_number   1
_chemical_formula_structural   HoH3(C3O2)3
_chemical_formula_sum   'Ho4 H12 C36 O24'
_cell_volume   1519.59538641
_cell_formula_units_Z   4
loop_
 _symmetry_equiv_pos_site_id
 _symmetry_equiv_pos_as_xyz
  1  'x, y, z'
loop_
 _atom_site_type_symbol
 _atom_site_label
 _atom_site_symmetry_multiplicity
 _atom_site_fract_x
 _atom_site_fract_y
 _atom_site_fract_z
 _atom_site_occupancy
  Ho  Ho0  1  0.14236000  0.85424000  0.70585000  1
  Ho  Ho1  1  0.85818000  0.14574000  0.20595000  1
  Ho  Ho2  1  0.14572000  0.14200000  0.45594000  1
  Ho  Ho3  1  0.86059000  0.85799000  0.95602000  1
  H  H4  1  0.54655000  0.08056000  0.44244000  1
  H  H5  1  0.54615000  0.92339000  0.72067000  1
  H  H6  1  0.90846000  0.99579000  0.58020000  1
  H  H7  1  0.45740000  0.91896000  0.94197000  1
  H  H8  1  0.45589000  0.07587000  0.22051000  1
  H  H9  1  0.09472000  0.00474000  0.07904000  1
  H  H10  1  0.91884000  0.54661000  0.19243000  1
  H  H11  1  0.07658000  0.54537000  0.47046000  1
  H  H12  1  0.00428000  0.90776000  0.32998000  1
  H  H13  1  0.08200000  0.45280000  0.69167000  1
  H  H14  1  0.92489000  0.45540000  0.97008000  1
  H  H15  1  0.99554000  0.09237000  0.82999000  1
  C  C16  1  0.80980000  0.91001000  0.74191000  1
  C  C17  1  0.59964000  0.04567000  0.50300000  1
  C  C18  1  0.81046000  0.08519000  0.41858000  1
  C  C19  1  0.59928000  0.95653000  0.65967000  1
  C  C20  1  0.53167000  0.00149000  0.58137000  1
  C  C21  1  0.73528000  0.95512000  0.65921000  1
  C  C22  1  0.73583000  0.04329000  0.50234000  1
  C  C23  1  0.38669000  0.00181000  0.58147000  1
  C  C24  1  0.80295000  0.99783000  0.58050000  1
  C  C25  1  0.19279000  0.08982000  0.24140000  1
  C  C26  1  0.40427000  0.95401000  0.00255000  1
  C  C27  1  0.19359000  0.91514000  0.91786000  1
  C  C28  1  0.40362000  0.04291000  0.15916000  1
  C  C29  1  0.47205000  0.99785000  0.08109000  1
  C  C30  1  0.26752000  0.04480000  0.15851000  1
  C  C31  1  0.26806000  0.95687000  0.00165000  1
  C  C32  1  0.61729000  0.99750000  0.08129000  1
  C  C33  1  0.20027000  0.00241000  0.07965000  1
  C  C34  1  0.09031000  0.80817000  0.49169000  1
  C  C35  1  0.95380000  0.59924000  0.25305000  1
  C  C36  1  0.91503000  0.80961000  0.16849000  1
  C  C37  1  0.04329000  0.59851000  0.40947000  1
  C  C38  1  0.99787000  0.53109000  0.33141000  1
  C  C39  1  0.04496000  0.73441000  0.40895000  1
  C  C40  1  0.95646000  0.73523000  0.25241000  1
  C  C41  1  0.99747000  0.38625000  0.33150000  1
  C  C42  1  0.00211000  0.80232000  0.33036000  1
  C  C43  1  0.91050000  0.19229000  0.99166000  1
  C  C44  1  0.04707000  0.40027000  0.75238000  1
  C  C45  1  0.08502000  0.18893000  0.66831000  1
  C  C46  1  0.95778000  0.40185000  0.90909000  1
  C  C47  1  0.00383000  0.46873000  0.83092000  1
  C  C48  1  0.95535000  0.26600000  0.90869000  1
  C  C49  1  0.04351000  0.26424000  0.75186000  1
  C  C50  1  0.00575000  0.61352000  0.83146000  1
  C  C51  1  0.99785000  0.19778000  0.83009000  1
  O  O52  1  0.33023000  0.91978000  0.63414000  1
  O  O53  1  0.74901000  0.09812000  0.34170000  1
  O  O54  1  0.33095000  0.08481000  0.52835000  1
  O  O55  1  0.93255000  0.10371000  0.42620000  1
  O  O56  1  0.75162000  0.90205000  0.82030000  1
  O  O57  1  0.92991000  0.88304000  0.73155000  1
  O  O58  1  0.67343000  0.07989000  0.13404000  1
  O  O59  1  0.25378000  0.90229000  0.84057000  1
  O  O60  1  0.67386000  0.91490000  0.02843000  1
  O  O61  1  0.07150000  0.89633000  0.92603000  1
  O  O62  1  0.25261000  0.09817000  0.31931000  1
  O  O63  1  0.07235000  0.11601000  0.23165000  1
  O  O64  1  0.07949000  0.32936000  0.38434000  1
  O  O65  1  0.90241000  0.74771000  0.09170000  1
  O  O66  1  0.91486000  0.33091000  0.27833000  1
  O  O67  1  0.89686000  0.93179000  0.17583000  1
  O  O68  1  0.09877000  0.74799000  0.56953000  1
  O  O69  1  0.11665000  0.92818000  0.48189000  1
  O  O70  1  0.92277000  0.67054000  0.88367000  1
  O  O71  1  0.09790000  0.24974000  0.59124000  1
  O  O72  1  0.09029000  0.66868000  0.77962000  1
  O  O73  1  0.10351000  0.06684000  0.67614000  1
  O  O74  1  0.90163000  0.25239000  0.06950000  1
  O  O75  1  0.88516000  0.07208000  0.98198000  1
