# generated using pymatgen
data_H24C47(N4O3)2
_symmetry_space_group_name_H-M   'P 1'
_cell_length_a   34.28060000
_cell_length_b   34.28060000
_cell_length_c   62.08310000
_cell_angle_alpha   90.00000000
_cell_angle_beta   90.00000000
_cell_angle_gamma   90.00000000
_symmetry_Int_Tables_number   1
_chemical_formula_structural   H24C47(N4O3)2
_chemical_formula_sum   'H192 C376 N64 O48'
_cell_volume   72957.54701179
_cell_formula_units_Z   8
loop_
 _symmetry_equiv_pos_site_id
 _symmetry_equiv_pos_as_xyz
  1  'x, y, z'
loop_
 _atom_site_type_symbol
 _atom_site_label
 _atom_site_symmetry_multiplicity
 _atom_site_fract_x
 _atom_site_fract_y
 _atom_site_fract_z
 _atom_site_occupancy
  H  25  1  0.20467100  0.23736100  0.08261100  1
  H  26  1  0.21685200  0.25505800  0.11924000  1
  H  27  1  0.21686600  0.27251300  0.15802900  1
  H  28  1  0.20473000  0.29020300  0.19466200  1
  H  29  1  0.08278300  0.28416300  0.18331100  1
  H  30  1  0.08273600  0.24317000  0.09404300  1
  H  31  1  0.09912300  0.34710300  0.13511400  1
  H  32  1  0.97766200  0.36946000  0.13647500  1
  H  33  1  0.96515300  0.30078300  0.13826400  1
  H  34  1  0.09910500  0.18026700  0.14231000  1
  H  35  1  0.96513600  0.22662500  0.13920600  1
  H  36  1  0.97762400  0.15795200  0.14112200  1
  H  42  1  0.10791900  0.21803200  0.05990300  1
  H  43  1  0.10795900  0.30892100  0.21744700  1
  H  44  1  0.07466600  0.11235200  0.14207400  1
  H  45  1  0.07470900  0.41500200  0.13484400  1
  H  70  1  0.32268400  0.29034300  0.58278300  1
  H  71  1  0.31054900  0.27249200  0.61938700  1
  H  72  1  0.31054300  0.25489900  0.65812600  1
  H  73  1  0.32267000  0.23711900  0.69474100  1
  H  74  1  0.44462500  0.24310700  0.68339500  1
  H  75  1  0.44464000  0.28433200  0.59413100  1
  H  76  1  0.42828000  0.18029800  0.63518100  1
  H  77  1  0.54975500  0.15795400  0.63637100  1
  H  78  1  0.56226000  0.22663200  0.63819000  1
  H  79  1  0.42830100  0.34714100  0.64231500  1
  H  80  1  0.56225100  0.30079700  0.63908500  1
  H  81  1  0.54976300  0.36948000  0.64092000  1
  H  87  1  0.41941500  0.30871700  0.55983700  1
  H  88  1  0.41935400  0.21820200  0.71765400  1
  H  89  1  0.45272300  0.41508400  0.64217400  1
  H  90  1  0.45269700  0.11239500  0.63485200  1
  H  115  1  0.79025200  0.70477500  0.33268500  1
  H  116  1  0.77242000  0.71690200  0.36929400  1
  H  117  1  0.75490900  0.71689300  0.40804600  1
  H  118  1  0.73708500  0.70474300  0.44465500  1
  H  119  1  0.74319600  0.58279100  0.43331400  1
  H  120  1  0.78430100  0.58281100  0.34402900  1
  H  121  1  0.68033300  0.59913500  0.38501000  1
  H  122  1  0.65799400  0.47766400  0.38627100  1
  H  123  1  0.72667100  0.46516700  0.38817800  1
  H  124  1  0.84715000  0.59913500  0.39235600  1
  H  125  1  0.80080600  0.46516400  0.38920700  1
  H  126  1  0.86948100  0.47766100  0.39114000  1
  H  132  1  0.80864800  0.60808800  0.30964900  1
  H  133  1  0.71877700  0.60800000  0.46759700  1
  H  134  1  0.91506300  0.57470700  0.39213600  1
  H  135  1  0.61238500  0.57470700  0.38532400  1
  H  160  1  0.73748200  0.82273400  0.83262100  1
  H  161  1  0.75508400  0.81055200  0.86926000  1
  H  162  1  0.77254300  0.81052600  0.90804400  1
  H  163  1  0.79031900  0.82264400  0.94466600  1
  H  164  1  0.78430400  0.94459900  0.93332800  1
  H  165  1  0.74331600  0.94466600  0.84405100  1
  H  166  1  0.84716800  0.92827500  0.88513100  1
  H  167  1  0.86952500  0.04973900  0.88646000  1
  H  168  1  0.80085300  0.06224700  0.88826700  1
  H  169  1  0.68032700  0.92829800  0.89229900  1
  H  170  1  0.72669400  0.06226800  0.88921600  1
  H  171  1  0.65801400  0.04978000  0.89107800  1
  H  177  1  0.71823500  0.91948900  0.80989000  1
  H  178  1  0.80919000  0.91934000  0.96758200  1
  H  179  1  0.61239900  0.95273500  0.89227800  1
  H  180  1  0.91507200  0.95268800  0.88485900  1
  H  205  1  0.70347400  0.73944800  0.58226000  1
  H  206  1  0.71585400  0.75539900  0.61927300  1
  H  207  1  0.71580800  0.77201700  0.65837700  1
  H  208  1  0.70335500  0.78781900  0.69540000  1
  H  209  1  0.58158900  0.78169100  0.68379600  1
  H  210  1  0.58168200  0.74578700  0.59375100  1
  H  211  1  0.59815500  0.84716500  0.63554500  1
  H  212  1  0.47671300  0.86967900  0.63603400  1
  H  213  1  0.46410300  0.80091100  0.63791400  1
  H  214  1  0.59815200  0.68033900  0.64200200  1
  H  215  1  0.46410500  0.72656900  0.63945200  1
  H  216  1  0.47671900  0.65780100  0.64132900  1
  H  222  1  0.60871500  0.73339200  0.55695200  1
  H  223  1  0.60835000  0.79397400  0.72043100  1
  H  224  1  0.57175000  0.61298000  0.63542900  1
  H  225  1  0.57175500  0.91459100  0.64198900  1
  H  250  1  0.82393000  0.78776400  0.08213800  1
  H  251  1  0.81153000  0.77200300  0.11917500  1
  H  252  1  0.81155300  0.75564100  0.15833400  1
  H  253  1  0.82402700  0.74006100  0.19539000  1
  H  254  1  0.94578600  0.74597100  0.18373800  1
  H  255  1  0.94570800  0.78144600  0.09366300  1
  H  256  1  0.92922900  0.68021300  0.13543800  1
  H  257  1  0.05067600  0.65770800  0.13602300  1
  H  258  1  0.06328200  0.72647600  0.13789600  1
  H  259  1  0.92922000  0.84704500  0.14194400  1
  H  260  1  0.06327700  0.80079500  0.13950100  1
  H  261  1  0.05066400  0.86955700  0.14138200  1
  H  267  1  0.91889700  0.79372700  0.05704600  1
  H  268  1  0.91919700  0.73355300  0.22030100  1
  H  269  1  0.95551800  0.91443600  0.13561800  1
  H  270  1  0.95560800  0.61286300  0.14188100  1
  H  295  1  0.28745200  0.20326800  0.83195700  1
  H  296  1  0.27183300  0.21578400  0.86899800  1
  H  297  1  0.25530500  0.21587800  0.90812000  1
  H  298  1  0.23943100  0.20355800  0.94514600  1
  H  299  1  0.24587100  0.08175300  0.93372200  1
  H  300  1  0.28149900  0.08152500  0.84365100  1
  H  301  1  0.18033600  0.09818000  0.88542600  1
  H  302  1  0.15777800  0.97674300  0.88602700  1
  H  303  1  0.22653500  0.96410900  0.88792700  1
  H  304  1  0.34717000  0.09812800  0.89187800  1
  H  305  1  0.30086100  0.96408500  0.88953600  1
  H  306  1  0.36963200  0.97667000  0.89136100  1
  H  312  1  0.29400900  0.10805500  0.80708200  1
  H  313  1  0.23378800  0.10886600  0.97048100  1
  H  314  1  0.41454400  0.07180000  0.88556400  1
  H  315  1  0.11295700  0.07183600  0.89185700  1
  H  340  1  0.23937500  0.32391200  0.33221400  1
  H  341  1  0.25527800  0.31155000  0.36923600  1
  H  342  1  0.27183400  0.31160800  0.40835100  1
  H  343  1  0.28765600  0.32408700  0.44537100  1
  H  344  1  0.28166000  0.44584400  0.43372500  1
  H  345  1  0.24584900  0.44570700  0.34367100  1
  H  346  1  0.34717000  0.42925200  0.38546100  1
  H  347  1  0.36970800  0.55069100  0.38611300  1
  H  348  1  0.30094600  0.56330400  0.38800100  1
  H  349  1  0.18034600  0.42927500  0.39196000  1
  H  350  1  0.22662700  0.56332200  0.38954100  1
  H  351  1  0.15786100  0.55072300  0.39141700  1
  H  357  1  0.23345800  0.41865400  0.30687400  1
  H  358  1  0.29390100  0.41910300  0.47036600  1
  H  359  1  0.11297000  0.45559600  0.38563000  1
  H  360  1  0.41459300  0.45565500  0.39198700  1
  H  371  1  0.06974900  0.04278600  0.12837200  1
  H  372  1  0.06204300  0.97349600  0.12861700  1
  H  374  1  0.94347300  0.95463100  0.16714200  1
  H  378  1  0.89989700  0.05473700  0.21219000  1
  H  391  1  0.45763200  0.48463300  0.62829300  1
  H  392  1  0.46533400  0.55392300  0.62855700  1
  H  394  1  0.58388500  0.57275900  0.66711500  1
  H  398  1  0.62737600  0.47263200  0.71215600  1
  H  411  1  0.98462500  0.56981000  0.37842000  1
  H  412  1  0.05391600  0.56211400  0.37866600  1
  H  414  1  0.07279000  0.44351100  0.41716000  1
  H  418  1  0.97267300  0.39988500  0.46218800  1
  H  431  1  0.54290200  0.95762700  0.87834500  1
  H  432  1  0.47360900  0.96529300  0.87859600  1
  H  434  1  0.45468600  0.08384800  0.91712500  1
  H  438  1  0.55476600  0.12745800  0.96216500  1
  H  451  1  0.45763500  0.04286600  0.64910400  1
  H  452  1  0.46533900  0.97357500  0.64886100  1
  H  454  1  0.58388500  0.95470700  0.61030900  1
  H  458  1  0.62742200  0.05479100  0.56523200  1
  H  471  1  0.06977300  0.48453400  0.14907500  1
  H  472  1  0.06207300  0.55382400  0.14880400  1
  H  474  1  0.94352300  0.57264800  0.11024900  1
  H  478  1  0.89997300  0.47252400  0.06522600  1
  H  491  1  0.54285900  0.56980100  0.39902600  1
  H  492  1  0.47357100  0.56208200  0.39881000  1
  H  494  1  0.45468300  0.44348700  0.36029900  1
  H  498  1  0.55476000  0.39995200  0.31521400  1
  H  511  1  0.98461900  0.95763300  0.89907800  1
  H  512  1  0.05390700  0.96534900  0.89880900  1
  H  514  1  0.07271200  0.08390100  0.86025300  1
  H  518  1  0.97257100  0.12743200  0.81523300  1
  H  531  1  0.22291400  0.35862000  0.23475800  1
  H  532  1  0.24082600  0.38133300  0.26966100  1
  H  534  1  0.13400000  0.34361700  0.31369200  1
  H  538  1  0.05355000  0.24032900  0.29059700  1
  H  551  1  0.30437400  0.16879600  0.73473900  1
  H  552  1  0.28633100  0.14593300  0.76957900  1
  H  554  1  0.39303600  0.18339700  0.81378600  1
  H  558  1  0.47370600  0.28669900  0.79085700  1
  H  571  1  0.66884200  0.72295800  0.48485500  1
  H  572  1  0.64610900  0.74083700  0.51975600  1
  H  574  1  0.68376000  0.63394500  0.56375700  1
  H  578  1  0.78705800  0.55351200  0.54064100  1
  H  591  1  0.85860300  0.80439700  0.98474900  1
  H  592  1  0.88134800  0.78640800  0.01962600  1
  H  594  1  0.84378700  0.89319100  0.06373800  1
  H  598  1  0.74055100  0.97381700  0.04072100  1
  H  611  1  0.30442300  0.35863800  0.54265000  1
  H  612  1  0.28648000  0.38144600  0.50778000  1
  H  614  1  0.39327500  0.34385900  0.46368200  1
  H  618  1  0.47378400  0.24053900  0.48671500  1
  H  631  1  0.22280600  0.16869500  0.04267600  1
  H  632  1  0.24080700  0.14605800  0.00777000  1
  H  634  1  0.13407500  0.18384000  0.96368500  1
  H  638  1  0.05353300  0.28708100  0.98674800  1
  H  651  1  0.85842200  0.72312100  0.29260900  1
  H  652  1  0.88128600  0.74117500  0.25777400  1
  H  654  1  0.84396200  0.63441500  0.21356800  1
  H  658  1  0.74071400  0.55369300  0.23651000  1
  H  671  1  0.66879000  0.80460700  0.79274200  1
  H  672  1  0.64596100  0.78661200  0.75787900  1
  H  674  1  0.68361200  0.89329300  0.71371200  1
  H  678  1  0.78697600  0.97383400  0.73666700  1
  C  1  1  0.06317000  0.23019900  0.14112800  1
  C  2  1  0.02460700  0.24342000  0.13987100  1
  C  3  1  0.02460900  0.28396200  0.13744000  1
  C  4  1  0.06317600  0.29717700  0.13621100  1
  C  5  1  0.07073000  0.33786200  0.13511800  1
  C  6  1  0.03970200  0.36563300  0.13518300  1
  C  7  1  0.00098100  0.35083100  0.13603000  1
  C  8  1  0.99328600  0.31046700  0.13702900  1
  C  9  1  0.99327400  0.21693400  0.14038200  1
  C  10  1  0.00095500  0.17657400  0.14146100  1
  C  11  1  0.03967400  0.16176700  0.14227100  1
  C  12  1  0.07071600  0.18951900  0.14228400  1
  C  13  1  0.11850200  0.25749200  0.12049200  1
  C  14  1  0.15708300  0.25966300  0.12773100  1
  C  15  1  0.15708900  0.26779900  0.14957700  1
  C  16  1  0.11851400  0.26986200  0.15684300  1
  C  17  1  0.18874600  0.27430800  0.16345800  1
  C  18  1  0.18124400  0.28493900  0.18490000  1
  C  19  1  0.14248400  0.28975200  0.19263200  1
  C  20  1  0.11111600  0.28100700  0.17839100  1
  C  21  1  0.11107500  0.24641500  0.09893700  1
  C  22  1  0.14242900  0.23767900  0.08468600  1
  C  23  1  0.18119900  0.24259200  0.09238800  1
  C  24  1  0.18872500  0.25323700  0.11382700  1
  C  37  1  0.09075900  0.26368500  0.13866800  1
  C  38  1  0.13538700  0.30261700  0.21363100  1
  C  39  1  0.13520900  0.22487400  0.06369900  1
  C  40  1  0.04709800  0.12132800  0.14184200  1
  C  41  1  0.04718500  0.40606100  0.13577500  1
  C  46  1  0.46423100  0.29720000  0.64125600  1
  C  47  1  0.50279500  0.28398800  0.63994000  1
  C  48  1  0.50279200  0.24344100  0.63751600  1
  C  49  1  0.46422800  0.23022300  0.63628900  1
  C  50  1  0.45667300  0.18954000  0.63517600  1
  C  51  1  0.48770500  0.16177200  0.63520300  1
  C  52  1  0.52642600  0.17657800  0.63599600  1
  C  53  1  0.53411600  0.21694200  0.63703600  1
  C  54  1  0.53412200  0.31048800  0.64033800  1
  C  55  1  0.52644100  0.35085200  0.64136600  1
  C  56  1  0.48772200  0.36565600  0.64220700  1
  C  57  1  0.45669300  0.33789400  0.64229200  1
  C  58  1  0.40890500  0.26993500  0.62058700  1
  C  59  1  0.37032900  0.26780400  0.62784200  1
  C  60  1  0.37032600  0.25961600  0.64967900  1
  C  61  1  0.40890200  0.25751600  0.65693900  1
  C  62  1  0.33866100  0.25312900  0.66355900  1
  C  63  1  0.34615800  0.24244900  0.68499300  1
  C  64  1  0.38491800  0.23759000  0.69271500  1
  C  65  1  0.41629700  0.24634900  0.67848700  1
  C  66  1  0.41631200  0.28105100  0.59903400  1
  C  67  1  0.38493200  0.28983600  0.58480900  1
  C  68  1  0.34617300  0.28501500  0.59253300  1
  C  69  1  0.33867000  0.27432600  0.61396600  1
  C  82  1  0.43665000  0.26371500  0.63876300  1
  C  83  1  0.39203800  0.22463700  0.71367100  1
  C  84  1  0.39196500  0.30288900  0.56385500  1
  C  85  1  0.48027200  0.40609000  0.64168600  1
  C  86  1  0.48022200  0.12133800  0.63575700  1
  C  91  1  0.79722100  0.56319700  0.39116700  1
  C  92  1  0.78400400  0.52463200  0.38991400  1
  C  93  1  0.74347400  0.52463200  0.38742700  1
  C  94  1  0.73026200  0.56319900  0.38617900  1
  C  95  1  0.68958000  0.57074600  0.38502700  1
  C  96  1  0.66182700  0.53970800  0.38507100  1
  C  97  1  0.67662200  0.50098600  0.38589700  1
  C  98  1  0.71698000  0.49330300  0.38697600  1
  C  99  1  0.81049700  0.49330600  0.39038500  1
  C  100  1  0.85085500  0.50098600  0.39148800  1
  C  101  1  0.86565400  0.53970800  0.39231600  1
  C  102  1  0.83790000  0.57074600  0.39233200  1
  C  103  1  0.77004800  0.61854000  0.37051300  1
  C  104  1  0.76779600  0.65711600  0.37775300  1
  C  105  1  0.75960200  0.65711300  0.39958800  1
  C  106  1  0.75743500  0.61853700  0.40683500  1
  C  107  1  0.75307100  0.68876900  0.41346500  1
  C  108  1  0.74239400  0.68126100  0.43489900  1
  C  109  1  0.73761600  0.64249800  0.44262600  1
  C  110  1  0.74637000  0.61112200  0.42839500  1
  C  111  1  0.78105200  0.61113900  0.34894000  1
  C  112  1  0.78977100  0.64252700  0.33471300  1
  C  113  1  0.78496100  0.68128400  0.34243900  1
  C  114  1  0.77429300  0.68878100  0.36387500  1
  C  127  1  0.76374200  0.59078100  0.38867200  1
  C  128  1  0.72460000  0.63545600  0.46358500  1
  C  129  1  0.80278700  0.63548200  0.31376500  1
  C  130  1  0.90609000  0.54714100  0.39188700  1
  C  131  1  0.62139600  0.54715000  0.38550400  1
  C  136  1  0.73026200  0.96423400  0.89115200  1
  C  137  1  0.74348800  0.00279500  0.88990700  1
  C  138  1  0.78403600  0.00278700  0.88749700  1
  C  139  1  0.79724200  0.96421700  0.88624600  1
  C  140  1  0.83792900  0.95667000  0.88513900  1
  C  141  1  0.86570000  0.98769600  0.88519200  1
  C  142  1  0.85089900  0.02641900  0.88602000  1
  C  143  1  0.81053500  0.03411100  0.88704100  1
  C  144  1  0.71700100  0.03412900  0.89039000  1
  C  145  1  0.67663700  0.02645100  0.89144000  1
  C  146  1  0.66183000  0.98773100  0.89224700  1
  C  147  1  0.68958000  0.95668800  0.89228600  1
  C  148  1  0.75754900  0.90890500  0.87051700  1
  C  149  1  0.75966100  0.87032100  0.87775900  1
  C  150  1  0.76778200  0.87030600  0.89960500  1
  C  151  1  0.76990300  0.90887900  0.90687000  1
  C  152  1  0.77433700  0.83864100  0.91347700  1
  C  153  1  0.78501000  0.84613200  0.93491300  1
  C  154  1  0.78982900  0.88489200  0.94264300  1
  C  155  1  0.78106300  0.91627100  0.92841800  1
  C  156  1  0.74647500  0.91632700  0.84895900  1
  C  157  1  0.73780000  0.88497600  0.83469500  1
  C  158  1  0.74271200  0.84620800  0.84239600  1
  C  159  1  0.75327800  0.83868200  0.86384700  1
  C  172  1  0.76374500  0.93664100  0.88869700  1
  C  173  1  0.80277000  0.89201800  0.96360200  1
  C  174  1  0.72504000  0.89219600  0.81369800  1
  C  175  1  0.62139900  0.98028100  0.89177500  1
  C  176  1  0.90613100  0.98021400  0.88577700  1
  C  181  1  0.56215200  0.73023000  0.64095800  1
  C  182  1  0.52356800  0.74344200  0.63983400  1
  C  183  1  0.52356800  0.78405300  0.63763900  1
  C  184  1  0.56215800  0.79727100  0.63655900  1
  C  185  1  0.56975400  0.83793800  0.63559000  1
  C  186  1  0.53873400  0.86569200  0.63547700  1
  C  187  1  0.49998600  0.85098100  0.63591000  1
  C  188  1  0.49227300  0.81060200  0.63700600  1
  C  189  1  0.49227600  0.71688100  0.64038800  1
  C  190  1  0.49998600  0.67650600  0.64148800  1
  C  191  1  0.53873700  0.66180100  0.64198300  1
  C  192  1  0.56974800  0.68956300  0.64192800  1
  C  193  1  0.61749300  0.75826000  0.62054100  1
  C  194  1  0.65609800  0.76004900  0.62782300  1
  C  195  1  0.65607100  0.76745500  0.64977600  1
  C  196  1  0.61744900  0.76922900  0.65703200  1
  C  197  1  0.68766900  0.77349600  0.66379400  1
  C  198  1  0.68006700  0.78293600  0.68541300  1
  C  199  1  0.64127000  0.78683100  0.69313200  1
  C  200  1  0.60990200  0.77890500  0.67878500  1
  C  201  1  0.60998400  0.74853800  0.59878900  1
  C  202  1  0.64138700  0.74057100  0.58448100  1
  C  203  1  0.68017200  0.74440700  0.59222200  1
  C  204  1  0.68772800  0.75394600  0.61383300  1
  C  217  1  0.58973900  0.76375300  0.63877400  1
  C  218  1  0.63499800  0.79772300  0.71444700  1
  C  219  1  0.63512100  0.72943600  0.56323700  1
  C  220  1  0.54664500  0.62149800  0.64192800  1
  C  221  1  0.54663000  0.90598800  0.63554800  1
  C  226  1  0.96522000  0.79715400  0.14084700  1
  C  227  1  0.00380800  0.78393700  0.13978100  1
  C  228  1  0.00381300  0.74332800  0.13758500  1
  C  229  1  0.96522600  0.73010500  0.13654900  1
  C  230  1  0.95763000  0.68944300  0.13549200  1
  C  231  1  0.98865600  0.66169300  0.13541200  1
  C  232  1  0.02740300  0.67640400  0.13589700  1
  C  233  1  0.03511200  0.71677900  0.13698400  1
  C  234  1  0.03510500  0.81048200  0.14041500  1
  C  235  1  0.02739200  0.85085800  0.14149700  1
  C  236  1  0.98864500  0.86556600  0.14197700  1
  C  237  1  0.95762100  0.83781600  0.14188400  1
  C  238  1  0.90988600  0.76907700  0.12045500  1
  C  239  1  0.87127500  0.76731800  0.12773300  1
  C  240  1  0.87128700  0.75999900  0.14969700  1
  C  241  1  0.90990900  0.75814400  0.15694300  1
  C  242  1  0.83969700  0.75409800  0.16374000  1
  C  243  1  0.84730500  0.74476600  0.18537400  1
  C  244  1  0.88610800  0.74085100  0.19309100  1
  C  245  1  0.91746700  0.74863100  0.17871400  1
  C  246  1  0.91740000  0.77869200  0.09869100  1
  C  247  1  0.88601500  0.78665800  0.08436300  1
  C  248  1  0.84722600  0.78284900  0.09211100  1
  C  249  1  0.83965600  0.77340600  0.11373300  1
  C  262  1  0.93763300  0.76362500  0.13869500  1
  C  263  1  0.89242400  0.73024200  0.21445000  1
  C  264  1  0.89227200  0.79753600  0.06304500  1
  C  265  1  0.98082400  0.90587500  0.14187200  1
  C  266  1  0.98079200  0.62138700  0.13547100  1
  C  271  1  0.29726800  0.06214300  0.89084400  1
  C  272  1  0.28402500  0.02355900  0.88982000  1
  C  273  1  0.24341400  0.02357200  0.88763700  1
  C  274  1  0.23021000  0.06216300  0.88656000  1
  C  275  1  0.18955200  0.06977500  0.88552100  1
  C  276  1  0.16178600  0.03876300  0.88542900  1
  C  277  1  0.17648200  0.00001000  0.88591100  1
  C  278  1  0.21685300  0.99228500  0.88702400  1
  C  279  1  0.31056400  0.99225300  0.89042200  1
  C  280  1  0.35094200  0.99995100  0.89149500  1
  C  281  1  0.36566500  0.03869400  0.89194100  1
  C  282  1  0.33792900  0.06973000  0.89185900  1
  C  283  1  0.26919200  0.11742900  0.87041500  1
  C  284  1  0.26739800  0.15606200  0.87764900  1
  C  285  1  0.26006500  0.15611500  0.89961000  1
  C  286  1  0.25834800  0.11751900  0.90691800  1
  C  287  1  0.25394200  0.18776300  0.91358500  1
  C  288  1  0.24443900  0.18024000  0.93520300  1
  C  289  1  0.24065500  0.14146700  0.94297300  1
  C  290  1  0.24865000  0.11004700  0.92867700  1
  C  291  1  0.27875800  0.10984900  0.84865200  1
  C  292  1  0.28661500  0.14118800  0.83427200  1
  C  293  1  0.28269000  0.17999900  0.84197100  1
  C  294  1  0.27329900  0.18763600  0.86359400  1
  C  307  1  0.26375300  0.08974400  0.88868600  1
  C  308  1  0.22953400  0.13525800  0.96423800  1
  C  309  1  0.29727300  0.13484500  0.81292100  1
  C  310  1  0.40597600  0.04650200  0.89182500  1
  C  311  1  0.12147800  0.04663800  0.88546300  1
  C  316  1  0.23024800  0.46526400  0.39087600  1
  C  317  1  0.24347200  0.50385100  0.38983400  1
  C  318  1  0.28407600  0.50384500  0.38760800  1
  C  319  1  0.29728500  0.46525500  0.38649300  1
  C  320  1  0.33794900  0.45765600  0.38551900  1
  C  321  1  0.36570300  0.48867300  0.38545900  1
  C  322  1  0.35100600  0.52742400  0.38595200  1
  C  323  1  0.31063100  0.53513700  0.38704400  1
  C  324  1  0.21693300  0.53515200  0.39045900  1
  C  325  1  0.17655700  0.52744700  0.39153600  1
  C  326  1  0.16184100  0.48870500  0.39201200  1
  C  327  1  0.18958400  0.45767300  0.39191300  1
  C  328  1  0.25826000  0.40990900  0.37047400  1
  C  329  1  0.25999500  0.37130700  0.37776900  1
  C  330  1  0.26740000  0.37133900  0.39972200  1
  C  331  1  0.26928600  0.40996700  0.40695800  1
  C  332  1  0.27337400  0.33974900  0.41375500  1
  C  333  1  0.28284000  0.34736600  0.43537000  1
  C  334  1  0.28675500  0.38616900  0.44307700  1
  C  335  1  0.27886300  0.41753100  0.42872000  1
  C  336  1  0.24855900  0.41740600  0.34872000  1
  C  337  1  0.24057000  0.38600000  0.33441600  1
  C  338  1  0.24435000  0.34721700  0.34217200  1
  C  339  1  0.25386200  0.33967100  0.36378600  1
  C  352  1  0.26376700  0.43767100  0.38870300  1
  C  353  1  0.29765500  0.39245600  0.46438900  1
  C  354  1  0.22947200  0.39225700  0.31316600  1
  C  355  1  0.12153300  0.48089000  0.39189700  1
  C  356  1  0.40599400  0.48076800  0.38553300  1
  C  361  1  0.01738200  0.05592800  0.14494400  1
  C  362  1  0.98433900  0.03802400  0.15442600  1
  C  363  1  0.97934200  0.99658800  0.15493300  1
  C  364  1  0.00774600  0.97211000  0.14493900  1
  C  365  1  0.04080000  0.99024300  0.13563700  1
  C  366  1  0.04552500  0.03115200  0.13552700  1
  C  368  1  0.92005500  0.00591700  0.17499800  1
  C  369  1  0.92462900  0.04675900  0.17404600  1
  C  375  1  0.89837500  0.07253700  0.18333800  1
  C  381  1  0.50997700  0.47148300  0.64488500  1
  C  382  1  0.54301300  0.48938200  0.65437700  1
  C  383  1  0.54801300  0.53082300  0.65488800  1
  C  384  1  0.51959800  0.55530900  0.64490800  1
  C  385  1  0.48656700  0.53717600  0.63558200  1
  C  386  1  0.48184700  0.49626700  0.63546100  1
  C  388  1  0.60728900  0.52147000  0.67496100  1
  C  389  1  0.60271500  0.48063100  0.67400100  1
  C  395  1  0.62895100  0.45484900  0.68330300  1
  C  401  1  0.97148900  0.51742700  0.39497500  1
  C  402  1  0.98939400  0.48437600  0.40445000  1
  C  403  1  0.03083200  0.47938500  0.40495700  1
  C  404  1  0.05530400  0.50780400  0.39497400  1
  C  405  1  0.03717200  0.54086300  0.38568000  1
  C  406  1  0.99626100  0.54558300  0.38556900  1
  C  408  1  0.02150400  0.42008100  0.42500600  1
  C  409  1  0.98066000  0.42464600  0.42405200  1
  C  415  1  0.95488500  0.39838300  0.43333500  1
  C  421  1  0.55601800  0.00999500  0.89492400  1
  C  422  1  0.53810100  0.04303400  0.90440400  1
  C  423  1  0.49666000  0.04801300  0.90490600  1
  C  424  1  0.47219700  0.01957600  0.89493100  1
  C  425  1  0.49034500  0.98654400  0.88561600  1
  C  426  1  0.53125700  0.98184200  0.88550300  1
  C  428  1  0.50596000  0.10730500  0.92496800  1
  C  429  1  0.54680500  0.10275800  0.92401300  1
  C  435  1  0.57256900  0.12901500  0.93331300  1
  C  441  1  0.50997100  0.05600700  0.63250200  1
  C  442  1  0.54300100  0.03810100  0.62300800  1
  C  443  1  0.54800400  0.99666100  0.62250900  1
  C  444  1  0.51961200  0.97218300  0.63251600  1
  C  445  1  0.48657000  0.99031900  0.64182700  1
  C  446  1  0.48184400  0.03122800  0.64193600  1
  C  448  1  0.60728000  0.00599000  0.60243600  1
  C  449  1  0.60270000  0.04683200  0.60338000  1
  C  455  1  0.62895100  0.07260400  0.59408300  1
  C  461  1  0.01743400  0.47137800  0.13248000  1
  C  462  1  0.98439400  0.48927100  0.12298700  1
  C  463  1  0.97939100  0.53070900  0.12247500  1
  C  464  1  0.00780700  0.55519500  0.13245200  1
  C  465  1  0.04084000  0.53707100  0.14177900  1
  C  466  1  0.04556000  0.49616400  0.14190500  1
  C  468  1  0.92010700  0.52135700  0.10241200  1
  C  469  1  0.92467800  0.48051700  0.10337400  1
  C  475  1  0.89843600  0.45473600  0.09408000  1
  C  481  1  0.55598500  0.51743300  0.38245200  1
  C  482  1  0.53807700  0.48438200  0.37297900  1
  C  483  1  0.49664000  0.47937900  0.37248800  1
  C  484  1  0.47217400  0.50778600  0.38249000  1
  C  485  1  0.49031000  0.54084300  0.39178400  1
  C  486  1  0.53121900  0.54557400  0.39187600  1
  C  488  1  0.50596000  0.42008600  0.35242400  1
  C  489  1  0.54680200  0.42466900  0.35336200  1
  C  495  1  0.57257200  0.39841800  0.34406300  1
  C  501  1  0.97145100  0.00997100  0.88248500  1
  C  502  1  0.98934200  0.04301300  0.87299200  1
  C  503  1  0.03078000  0.04802400  0.87248000  1
  C  504  1  0.05527500  0.01961300  0.88245900  1
  C  505  1  0.03715400  0.98657600  0.89178500  1
  C  506  1  0.99624700  0.98184800  0.89190900  1
  C  508  1  0.02141600  0.10730700  0.85241700  1
  C  509  1  0.98057600  0.10272600  0.85338000  1
  C  515  1  0.95478900  0.12896700  0.84408800  1
  C  521  1  0.16837000  0.33459500  0.24384700  1
  C  522  1  0.14344000  0.32850700  0.26172300  1
  C  523  1  0.15369400  0.34203600  0.28269200  1
  C  524  1  0.18963500  0.36203900  0.28575900  1
  C  525  1  0.21440600  0.36785000  0.26783100  1
  C  526  1  0.20388200  0.35436100  0.24727000  1
  C  528  1  0.09368500  0.31542600  0.29628300  1
  C  529  1  0.08357900  0.30204000  0.27553500  1
  C  535  1  0.04901800  0.28255000  0.27112400  1
  C  541  1  0.35887400  0.19278800  0.74392700  1
  C  542  1  0.38375400  0.19876000  0.76183500  1
  C  543  1  0.37342100  0.18514500  0.78277600  1
  C  544  1  0.33745400  0.16514200  0.78578400  1
  C  545  1  0.31274000  0.15946500  0.76781400  1
  C  546  1  0.32334100  0.17303100  0.74728400  1
  C  548  1  0.43343500  0.21161700  0.79644500  1
  C  549  1  0.44361600  0.22508000  0.77572300  1
  C  555  1  0.47822400  0.24452000  0.77135600  1
  C  561  1  0.69282400  0.66838700  0.49393000  1
  C  562  1  0.69889400  0.64343200  0.51179400  1
  C  563  1  0.68535900  0.65367100  0.53276500  1
  C  564  1  0.66536200  0.68961200  0.53583800  1
  C  565  1  0.65958100  0.71441000  0.51792000  1
  C  566  1  0.67308100  0.70390900  0.49736100  1
  C  568  1  0.71195400  0.59364200  0.54633800  1
  C  569  1  0.72535000  0.58355500  0.52558900  1
  C  575  1  0.74483600  0.54899600  0.52116900  1
  C  581  1  0.83458100  0.85891500  0.99388700  1
  C  582  1  0.82856000  0.88383000  0.01177600  1
  C  583  1  0.84211800  0.87353000  0.03273400  1
  C  584  1  0.86210300  0.83756800  0.03577500  1
  C  585  1  0.86784400  0.81282500  0.01782800  1
  C  586  1  0.85434100  0.82339300  0.99727900  1
  C  588  1  0.81560800  0.93356100  0.04635800  1
  C  589  1  0.80219200  0.94370700  0.02562100  1
  C  595  1  0.78274900  0.97830300  0.02123100  1
  C  601  1  0.35897600  0.33467400  0.53352700  1
  C  602  1  0.38389400  0.32863800  0.51564100  1
  C  603  1  0.37361100  0.34221100  0.49468400  1
  C  604  1  0.33765500  0.36220800  0.49163900  1
  C  605  1  0.31290000  0.36795200  0.50958300  1
  C  606  1  0.32344600  0.35441400  0.53012800  1
  C  608  1  0.43361900  0.31564800  0.48106500  1
  C  609  1  0.44375000  0.30222700  0.50180300  1
  C  615  1  0.47832600  0.28274800  0.50619600  1
  C  621  1  0.16832900  0.19282200  0.03355200  1
  C  622  1  0.14343300  0.19892300  0.01566000  1
  C  623  1  0.15372700  0.18541600  0.99469400  1
  C  624  1  0.18966600  0.16539900  0.99164300  1
  C  625  1  0.21439700  0.15956700  0.00958500  1
  C  626  1  0.20382400  0.17301300  0.03014700  1
  C  628  1  0.09373000  0.21202000  0.98108000  1
  C  629  1  0.08358900  0.22539400  0.00182500  1
  C  635  1  0.04901400  0.24486500  0.00622700  1
  C  641  1  0.83456300  0.66855400  0.28343000  1
  C  642  1  0.82860600  0.64367100  0.26552300  1
  C  643  1  0.84220900  0.65402100  0.24458200  1
  C  644  1  0.86215600  0.69001500  0.24157300  1
  C  645  1  0.86781200  0.71473400  0.25954200  1
  C  646  1  0.85424800  0.70412500  0.28007000  1
  C  648  1  0.81578900  0.59398400  0.23091100  1
  C  649  1  0.80233800  0.58379100  0.25163500  1
  C  655  1  0.78291300  0.54917100  0.25599700  1
  C  661  1  0.69289400  0.85907000  0.78357400  1
  C  662  1  0.69892100  0.88395300  0.76566900  1
  C  663  1  0.68531200  0.87365500  0.74472200  1
  C  664  1  0.66526300  0.83772200  0.74170400  1
  C  665  1  0.65951600  0.81300600  0.75966200  1
  C  666  1  0.67306600  0.82357700  0.78020200  1
  C  668  1  0.71186700  0.93364300  0.73106700  1
  C  669  1  0.72532600  0.94379400  0.75179500  1
  C  675  1  0.74480400  0.97837600  0.75617200  1
  N  367  1  0.94731800  0.98252200  0.16564100  1
  N  370  1  0.95676100  0.06069900  0.16391700  1
  N  379  1  0.01998000  0.09512900  0.14513600  1
  N  380  1  0.00752100  0.93277900  0.14462200  1
  N  387  1  0.58004000  0.54487400  0.66560000  1
  N  390  1  0.57058300  0.46669900  0.66386800  1
  N  399  1  0.50738700  0.43227400  0.64505800  1
  N  400  1  0.51985100  0.59464900  0.64456800  1
  N  407  1  0.04489900  0.44735300  0.41565900  1
  N  410  1  0.96672000  0.45678600  0.41393200  1
  N  419  1  0.93228900  0.52001800  0.39516900  1
  N  420  1  0.09463600  0.50758500  0.39466100  1
  N  427  1  0.48257900  0.08003200  0.91561100  1
  N  430  1  0.56076100  0.07062600  0.91389100  1
  N  439  1  0.59522100  0.00741600  0.89510300  1
  N  440  1  0.43286900  0.01980400  0.89459600  1
  N  447  1  0.58002800  0.98259700  0.61180100  1
  N  450  1  0.57057100  0.06077500  0.61351100  1
  N  459  1  0.50738100  0.09521500  0.63234100  1
  N  460  1  0.51985400  0.93284600  0.63285200  1
  N  467  1  0.94736200  0.54476000  0.11176600  1
  N  470  1  0.95681600  0.46658500  0.11350300  1
  N  479  1  0.02003000  0.43217200  0.13232900  1
  N  480  1  0.00755300  0.59452900  0.13278600  1
  N  487  1  0.48257100  0.44734700  0.36178900  1
  N  490  1  0.56074600  0.45680700  0.36348200  1
  N  499  1  0.59518300  0.52003200  0.38223900  1
  N  500  1  0.43284300  0.50754400  0.38282900  1
  N  507  1  0.04482500  0.08005400  0.86177000  1
  N  510  1  0.96665200  0.07058500  0.86350800  1
  N  519  1  0.93224500  0.00736900  0.88233300  1
  N  520  1  0.09461100  0.01987600  0.88279900  1
  N  527  1  0.12804600  0.33469400  0.29916500  1
  N  530  1  0.10912700  0.30928600  0.25936200  1
  N  539  1  0.16247000  0.32143600  0.22393200  1
  N  540  1  0.20016500  0.37252000  0.30561900  1
  N  547  1  0.39903700  0.19238200  0.79927800  1
  N  550  1  0.41809700  0.21794000  0.75952200  1
  N  559  1  0.36491200  0.20590600  0.72401800  1
  N  560  1  0.32687300  0.15445300  0.80561200  1
  N  567  1  0.69268700  0.62800300  0.54923000  1
  N  570  1  0.71811200  0.60912300  0.50942300  1
  N  579  1  0.70599800  0.66251800  0.47401900  1
  N  580  1  0.65486900  0.70012800  0.55569900  1
  N  587  1  0.83483400  0.89916800  0.04922000  1
  N  590  1  0.80937700  0.91816700  0.00943700  1
  N  599  1  0.82149200  0.86490700  0.97396500  1
  N  600  1  0.87263400  0.82699300  0.05562600  1
  N  607  1  0.39924900  0.33491300  0.47820100  1
  N  610  1  0.41821100  0.30942900  0.51798600  1
  N  619  1  0.36488600  0.32147900  0.55342900  1
  N  620  1  0.32711500  0.37280600  0.47179500  1
  N  627  1  0.12810400  0.19276600  0.97820900  1
  N  630  1  0.10911300  0.21813500  0.01800500  1
  N  639  1  0.16231700  0.20586100  0.05348700  1
  N  640  1  0.20025400  0.15500600  0.97177900  1
  N  647  1  0.83499800  0.62839700  0.22808000  1
  N  650  1  0.80945600  0.60931300  0.26783800  1
  N  659  1  0.82136000  0.66257100  0.30332200  1
  N  660  1  0.87286200  0.70060400  0.22174800  1
  N  667  1  0.69259600  0.89927000  0.72822500  1
  N  670  1  0.71813900  0.91827500  0.76798800  1
  N  679  1  0.70600300  0.86509600  0.80349200  1
  N  680  1  0.65467100  0.82715900  0.72186100  1
  O  373  1  0.88891200  0.98956600  0.18496500  1
  O  376  1  0.89214400  0.10346600  0.17416300  1
  O  377  1  0.89317900  0.07342500  0.20305500  1
  O  393  1  0.63842600  0.53781200  0.68494000  1
  O  396  1  0.63520200  0.42392500  0.67412500  1
  O  397  1  0.63411100  0.45394800  0.70302400  1
  O  413  1  0.03785500  0.38892600  0.43496500  1
  O  416  1  0.92395800  0.39215800  0.42415700  1
  O  417  1  0.95398900  0.39317300  0.45305200  1
  O  433  1  0.48959500  0.13843800  0.93493800  1
  O  436  1  0.60349600  0.13526800  0.92414200  1
  O  437  1  0.57345300  0.13419400  0.95303200  1
  O  453  1  0.63842900  0.98963900  0.59247200  1
  O  456  1  0.63519700  0.10353300  0.60325400  1
  O  457  1  0.63414900  0.07348100  0.57436400  1
  O  473  1  0.88896100  0.53769800  0.09244000  1
  O  476  1  0.89219000  0.42381400  0.10325900  1
  O  477  1  0.89324400  0.45384300  0.07436200  1
  O  493  1  0.48960700  0.38893800  0.34246500  1
  O  496  1  0.60350500  0.39217800  0.35323400  1
  O  497  1  0.57345300  0.39323100  0.32434400  1
  O  513  1  0.03775100  0.13845300  0.84244300  1
  O  516  1  0.92386700  0.13520700  0.85326900  1
  O  517  1  0.95389000  0.13415700  0.82436900  1
  O  533  1  0.06954600  0.30996000  0.31330300  1
  O  536  1  0.03315100  0.28846800  0.25379200  1
  O  537  1  0.04161900  0.25043000  0.27923500  1
  O  553  1  0.45754800  0.21697000  0.81348700  1
  O  556  1  0.49412200  0.23862600  0.75403100  1
  O  557  1  0.48564200  0.27661300  0.77949400  1
  O  573  1  0.71741200  0.56948600  0.56335000  1
  O  576  1  0.73891100  0.53314200  0.50383400  1
  O  577  1  0.77695600  0.54159000  0.52927600  1
  O  593  1  0.81021400  0.95769400  0.06338600  1
  O  596  1  0.78866800  0.99417800  0.00390200  1
  O  597  1  0.75065300  0.98574200  0.02935700  1
  O  613  1  0.45774900  0.31022200  0.46403800  1
  O  616  1  0.49421300  0.28866100  0.52352100  1
  O  617  1  0.48572400  0.25063500  0.49807600  1
  O  633  1  0.06960600  0.21747100  0.96405300  1
  O  636  1  0.03314400  0.23895200  0.02355700  1
  O  637  1  0.04160200  0.27697800  0.99811000  1
  O  653  1  0.81043900  0.56987700  0.21386800  1
  O  656  1  0.78882900  0.53326100  0.27331700  1
  O  657  1  0.75081600  0.54175000  0.24786900  1
  O  673  1  0.71725800  0.95776100  0.71403100  1
  O  676  1  0.73892900  0.99426000  0.77350300  1
  O  677  1  0.77690100  0.98577100  0.74803400  1
