# generated using pymatgen
data_Zn2H18C36S3N4O21
_symmetry_space_group_name_H-M   'P 1'
_cell_length_a   9.93411000
_cell_length_b   10.73942000
_cell_length_c   13.08331000
_cell_angle_alpha   88.97584000
_cell_angle_beta   71.60268000
_cell_angle_gamma   89.21209000
_symmetry_Int_Tables_number   1
_chemical_formula_structural   Zn2H18C36S3N4O21
_chemical_formula_sum   'Zn2 H18 C36 S3 N4 O21'
_cell_volume   1324.21466964
_cell_formula_units_Z   1
loop_
 _symmetry_equiv_pos_site_id
 _symmetry_equiv_pos_as_xyz
  1  'x, y, z'
loop_
 _atom_site_type_symbol
 _atom_site_label
 _atom_site_symmetry_multiplicity
 _atom_site_fract_x
 _atom_site_fract_y
 _atom_site_fract_z
 _atom_site_occupancy
  Zn  Zn0  1  0.65312000  0.49998000  0.50001000  1
  Zn  Zn1  1  0.34688000  0.50002000  0.49999000  1
  H  H2  1  0.16388000  0.36944000  0.18909000  1
  H  H3  1  0.08930000  0.46279000  0.04345000  1
  H  H4  1  0.73414000  0.39129000  0.88107000  1
  H  H5  1  0.90253000  0.34288000  0.97577000  1
  H  H6  1  0.34120000  0.34594000  0.27552000  1
  H  H7  1  0.30588000  0.89106000  0.46740000  1
  H  H8  1  0.65258000  0.78336000  0.64673000  1
  H  H9  1  0.94270000  0.08680000  0.56366000  1
  H  H10  1  0.79860000  0.19193000  0.47527000  1
  H  H11  1  0.31593000  0.11356000  0.45503000  1
  H  H12  1  0.08119000  0.35068000  0.61022000  1
  H  H13  1  0.30115000  0.67084000  0.35980000  1
  H  H14  1  0.97421000  0.80974000  0.24377000  1
  H  H15  1  0.81145000  0.66566000  0.35442000  1
  H  H16  1  0.83049000  0.35300000  0.61251000  1
  H  H17  1  0.15960000  0.68136000  0.69362000  1
  H  H18  1  0.82086000  0.95117000  0.82949000  1
  H  H19  1  0.03660000  0.17454000  0.15907000  1
  C  C20  1  0.49539000  0.73893000  0.50971000  1
  C  C21  1  0.57589000  0.47348000  0.30078000  1
  C  C22  1  0.50393000  0.25965000  0.49630000  1
  C  C23  1  0.42225000  0.50820000  0.70407000  1
  C  C24  1  0.19919000  0.46592000  0.99339000  1
  C  C25  1  0.37713000  0.51074000  0.82253000  1
  C  C26  1  0.75726000  0.38397000  0.13365000  1
  C  C27  1  0.79735000  0.37499000  0.02138000  1
  C  C28  1  0.70004000  0.40308000  0.96710000  1
  C  C29  1  0.55651000  0.42607000  0.02548000  1
  C  C30  1  0.51478000  0.41309000  0.13789000  1
  C  C31  1  0.45069000  0.45194000  0.97655000  1
  C  C32  1  0.30639000  0.43377000  0.03705000  1
  C  C33  1  0.27092000  0.39117000  0.14316000  1
  C  C34  1  0.37334000  0.38168000  0.19360000  1
  C  C35  1  0.48333000  0.50445000  0.87287000  1
  C  C36  1  0.23297000  0.50738000  0.88690000  1
  C  C37  1  0.61787000  0.42339000  0.19019000  1
  C  C38  1  0.68132000  0.87324000  0.60781000  1
  C  C39  1  0.80411000  0.92953000  0.61465000  1
  C  C40  1  0.84362000  0.04470000  0.56520000  1
  C  C41  1  0.75493000  0.10789000  0.51804000  1
  C  C42  1  0.62185000  0.05803000  0.52082000  1
  C  C43  1  0.59651000  0.93306000  0.55195000  1
  C  C44  1  0.48960000  0.87128000  0.52283000  1
  C  C45  1  0.38956000  0.93731000  0.48845000  1
  C  C46  1  0.39799000  0.06405000  0.47804000  1
  C  C47  1  0.51240000  0.12565000  0.49401000  1
  C  C48  1  0.19292000  0.66757000  0.36424000  1
  C  C49  1  0.15017000  0.75074000  0.29652000  1
  C  C50  1  0.01014000  0.74799000  0.29634000  1
  C  C51  1  0.91463000  0.66463000  0.36259000  1
  C  C52  1  0.95424000  0.58220000  0.43310000  1
  C  C53  1  0.09832000  0.58280000  0.43347000  1
  C  C54  1  0.04731000  0.41812000  0.56081000  1
  C  C55  1  0.90414000  0.41887000  0.56154000  1
  S  S56  1  0.09652000  0.57783000  0.84529000  1
  S  S57  1  0.91207000  0.85336000  0.68025000  1
  S  S58  1  0.86319000  0.30778000  0.20164000  1
  N  N59  1  0.14314000  0.50120000  0.49901000  1
  N  N60  1  0.85755000  0.50128000  0.49898000  1
  N  N61  1  0.24940000  0.83677000  0.22722000  1
  N  N62  1  0.60138000  0.58808000  0.83666000  1
  O  O63  1  0.61469000  0.68322000  0.50000000  1
  O  O64  1  0.38536000  0.68325000  0.49999000  1
  O  O65  1  0.67160000  0.49995000  0.34639000  1
  O  O66  1  0.44227000  0.49997000  0.34638000  1
  O  O67  1  0.61464000  0.31675000  0.50001000  1
  O  O68  1  0.38531000  0.31678000  0.50000000  1
  O  O69  1  0.55773000  0.50003000  0.65362000  1
  O  O70  1  0.32840000  0.50005000  0.65361000  1
  O  O71  1  0.03937000  0.48521000  0.78523000  1
  O  O72  1  0.97739000  0.62078000  0.94134000  1
  O  O73  1  0.16194000  0.70254000  0.76631000  1
  O  O74  1  0.92894000  0.71923000  0.64808000  1
  O  O75  1  0.05579000  0.91273000  0.65010000  1
  O  O76  1  0.83497000  0.86100000  0.81429000  1
  O  O77  1  0.38109000  0.83826000  0.22554000  1
  O  O78  1  0.20879000  0.91496000  0.16541000  1
  O  O79  1  0.71830000  0.55623000  0.76302000  1
  O  O80  1  0.59639000  0.69246000  0.88666000  1
  O  O81  1  0.91975000  0.40063000  0.26155000  1
  O  O82  1  0.77265000  0.21552000  0.28037000  1
  O  O83  1  0.99857000  0.23111000  0.11399000  1
