# generated using pymatgen
data_SiH28C40(N4O3)2
_symmetry_space_group_name_H-M   'P 1'
_cell_length_a   26.49165000
_cell_length_b   26.49165000
_cell_length_c   35.24350000
_cell_angle_alpha   90.00000000
_cell_angle_beta   90.00000000
_cell_angle_gamma   120.00000000
_symmetry_Int_Tables_number   1
_chemical_formula_structural   SiH28C40(N4O3)2
_chemical_formula_sum   'Si6 H168 C240 N48 O36'
_cell_volume   21420.40511738
_cell_formula_units_Z   6
loop_
 _symmetry_equiv_pos_site_id
 _symmetry_equiv_pos_as_xyz
  1  'x, y, z'
loop_
 _atom_site_type_symbol
 _atom_site_label
 _atom_site_symmetry_multiplicity
 _atom_site_fract_x
 _atom_site_fract_y
 _atom_site_fract_z
 _atom_site_occupancy
  C  1  1  0.70662700  0.62533600  0.08053200  1
  C  2  1  0.67631500  0.65194800  0.06573800  1
  C  3  1  0.62997850  0.62130850  0.04031800  1
  C  4  1  0.61293600  0.56352100  0.02894000  1
  C  5  1  0.64022250  0.53555550  0.04666800  1
  C  6  1  0.68728300  0.56645200  0.07148400  1
  C  8  1  0.50116150  0.49100250  0.02936800  1
  C  9  1  0.48407350  0.43320050  0.04074100  1
  C  10  1  0.43813200  0.40280900  0.06647600  1
  C  11  1  0.40835800  0.42973900  0.08163600  1
  C  12  1  0.42782950  0.48865750  0.07261600  1
  C  13  1  0.47444250  0.51926950  0.04744000  1
  C  14  1  0.55389550  0.57378350  0.96979400  1
  C  15  1  0.55913600  0.48023800  0.96971900  1
  C  16  1  0.50720250  0.44209550  0.95000700  1
  C  17  1  0.50534500  0.40059100  0.92466800  1
  C  18  1  0.55563400  0.39657100  0.91747900  1
  C  19  1  0.60866050  0.43732050  0.93481100  1
  C  20  1  0.61038700  0.47862400  0.96071900  1
  C  21  1  0.60548700  0.61179200  0.94971900  1
  C  22  1  0.60695450  0.65325450  0.92451000  1
  C  23  1  0.55656650  0.65728450  0.91777400  1
  C  24  1  0.50381100  0.61659500  0.93541400  1
  C  25  1  0.50250450  0.57538350  0.96123300  1
  C  41  1  0.55216700  0.35401900  0.89171900  1
  C  42  1  0.55967950  0.69981850  0.89214700  1
  C  43  1  0.36248150  0.39996550  0.10777100  1
  C  45  1  0.75274550  0.65526650  0.10646000  1
  C  50  1  0.00431950  0.37670150  0.41385300  1
  C  51  1  0.06103150  0.40658950  0.39871000  1
  C  52  1  0.07667050  0.45287450  0.37325300  1
  C  53  1  0.03610500  0.47033700  0.36221800  1
  C  54  1  0.98113700  0.44349100  0.38031500  1
  C  55  1  0.96499700  0.39645600  0.40514800  1
  C  57  1  0.07541250  0.58213150  0.36250200  1
  C  58  1  0.03503650  0.59981650  0.37359300  1
  C  59  1  0.05069750  0.64572250  0.39937400  1
  C  60  1  0.10716500  0.67483000  0.41491400  1
  C  61  1  0.14628350  0.65485350  0.40612900  1
  C  62  1  0.13017800  0.60833100  0.38085400  1
  C  63  1  0.10509850  0.52913550  0.30289600  1
  C  64  1  0.00628400  0.52384100  0.30303000  1
  C  65  1  0.02007500  0.57558800  0.28307700  1
  C  66  1  0.98023350  0.57734850  0.25787000  1
  C  67  1  0.92571250  0.52712750  0.25105400  1
  C  68  1  0.91337250  0.47425350  0.26864300  1
  C  69  1  0.95315700  0.47263400  0.29441800  1
  C  70  1  0.09117600  0.47756800  0.28267100  1
  C  71  1  0.13103000  0.47590700  0.25742700  1
  C  72  1  0.18568000  0.52606900  0.25083600  1
  C  73  1  0.19814550  0.57881650  0.26867200  1
  C  74  1  0.15837250  0.58031750  0.29452000  1
  C  90  1  0.88646550  0.53047650  0.22538700  1
  C  91  1  0.22498950  0.52269850  0.22523400  1
  C  92  1  0.12329600  0.72064700  0.44111200  1
  C  94  1  0.98811350  0.33051150  0.43973600  1
  C  99  1  0.45887000  0.07835200  0.74795600  1
  C  100  1  0.43231800  0.02146500  0.73310700  1
  C  101  1  0.46299750  0.00590550  0.70762300  1
  C  102  1  0.52075950  0.04674450  0.69625100  1
  C  103  1  0.54868400  0.10192200  0.71407800  1
  C  104  1  0.51775800  0.11795100  0.73896000  1
  C  106  1  0.59320350  0.00741950  0.69599000  1
  C  107  1  0.65089350  0.04812050  0.70757500  1
  C  108  1  0.68141250  0.03226550  0.73298900  1
  C  109  1  0.65477200  0.97523400  0.74760500  1
  C  110  1  0.59595550  0.93572250  0.73835700  1
  C  111  1  0.56519700  0.95201500  0.71351300  1
  C  112  1  0.51026150  0.97826850  0.63654900  1
  C  113  1  0.60389400  0.07691600  0.63686100  1
  C  114  1  0.64214550  0.06344150  0.61699400  1
  C  115  1  0.68363150  0.10339750  0.59178100  1
  C  116  1  0.68748400  0.15769300  0.58484600  1
  C  117  1  0.64664100  0.16968400  0.60233300  1
  C  118  1  0.60537150  0.12979850  0.62812800  1
  C  119  1  0.47222550  0.99220250  0.61682900  1
  C  120  1  0.43086650  0.95275250  0.59133800  1
  C  121  1  0.42690550  0.89851350  0.58398100  1
  C  122  1  0.46753550  0.88608950  0.60134500  1
  C  123  1  0.50869900  0.92547500  0.62740100  1
  C  139  1  0.72989500  0.19700900  0.55911100  1
  C  140  1  0.38444200  0.85960200  0.55810100  1
  C  141  1  0.68458750  0.95899450  0.77363100  1
  C  143  1  0.42878550  0.09456450  0.77374800  1
  C  148  1  0.44803900  0.18659800  0.79861600  1
  C  150  1  0.44415000  0.20282200  0.86520400  1
  C  151  1  0.48718450  0.26190350  0.86109500  1
  C  153  1  0.48948450  0.24671550  0.79402300  1
  C  155  1  0.51390900  0.27186400  0.75949100  1
  C  156  1  0.57669650  0.30008250  0.75524700  1
  C  165  1  0.82486650  0.63540750  0.13175900  1
  C  167  1  0.84444950  0.63921650  0.19842300  1
  C  168  1  0.85995750  0.59575850  0.19451300  1
  C  170  1  0.84293150  0.59345850  0.12737800  1
  C  172  1  0.84359750  0.56882050  0.09291700  1
  C  173  1  0.80893500  0.50602000  0.08878600  1
  C  182  1  0.89612150  0.25865650  0.46524700  1
  C  184  1  0.88076700  0.23971500  0.53199900  1
  C  185  1  0.82167200  0.22373600  0.52814900  1
  C  187  1  0.83598750  0.24011450  0.46094200  1
  C  189  1  0.81039400  0.23889100  0.42649600  1
  C  190  1  0.78259850  0.27382950  0.42209600  1
  C  199  1  0.66442900  0.86679800  0.79877800  1
  C  201  1  0.66798600  0.85085800  0.86544100  1
  C  202  1  0.62478900  0.79182300  0.86141400  1
  C  204  1  0.62273050  0.80672850  0.79428400  1
  C  206  1  0.59832700  0.78148300  0.75976900  1
  C  207  1  0.53556700  0.75347600  0.75544700  1
  C  216  1  0.28937800  0.41910900  0.13248500  1
  C  218  1  0.26849950  0.41486750  0.19894800  1
  C  219  1  0.25236150  0.45781750  0.19472100  1
  C  221  1  0.27067400  0.46050200  0.12774900  1
  C  223  1  0.27058550  0.48524750  0.09319600  1
  C  224  1  0.30482800  0.54795200  0.08892500  1
  C  233  1  0.21586000  0.79396700  0.46569500  1
  C  235  1  0.23275200  0.81508900  0.53211300  1
  C  236  1  0.29194700  0.83171700  0.52773800  1
  C  238  1  0.27602600  0.81313700  0.46080900  1
  C  240  1  0.30071450  0.81316350  0.42621300  1
  C  241  1  0.32875750  0.77854250  0.42184900  1
  C  997  1  0.70662700  0.62533600  0.71167000  1
  C  998  1  0.67631500  0.65194800  0.69687600  1
  C  999  1  0.62997850  0.62130850  0.67145600  1
  C  1000  1  0.61293600  0.56352100  0.66007800  1
  C  1001  1  0.64022250  0.53555550  0.67780600  1
  C  1002  1  0.68728300  0.56645200  0.70262200  1
  C  1004  1  0.50116150  0.49100250  0.66050600  1
  C  1005  1  0.48407350  0.43320050  0.67187900  1
  C  1006  1  0.43813200  0.40280900  0.69761400  1
  C  1007  1  0.40835800  0.42973900  0.71277400  1
  C  1008  1  0.42782950  0.48865750  0.70375400  1
  C  1009  1  0.47444250  0.51926950  0.67857800  1
  C  1010  1  0.55389550  0.57378350  0.60093200  1
  C  1011  1  0.55913600  0.48023800  0.60085700  1
  C  1012  1  0.50720250  0.44209550  0.58114500  1
  C  1013  1  0.50534500  0.40059100  0.55580600  1
  C  1014  1  0.55563400  0.39657100  0.54861700  1
  C  1015  1  0.60866050  0.43732050  0.56594900  1
  C  1016  1  0.61038700  0.47862400  0.59185700  1
  C  1017  1  0.60548700  0.61179200  0.58085700  1
  C  1018  1  0.60695450  0.65325450  0.55564800  1
  C  1019  1  0.55656650  0.65728450  0.54891200  1
  C  1020  1  0.50381100  0.61659500  0.56655200  1
  C  1021  1  0.50250450  0.57538350  0.59237100  1
  C  1037  1  0.55216700  0.35401900  0.52285700  1
  C  1038  1  0.55967950  0.69981850  0.52328500  1
  C  1039  1  0.36248150  0.39996550  0.73890900  1
  C  1041  1  0.75274550  0.65526650  0.73759800  1
  C  1046  1  0.00431950  0.37670150  0.04499100  1
  C  1047  1  0.06103150  0.40658950  0.02984800  1
  C  1048  1  0.07667050  0.45287450  0.00439100  1
  C  1049  1  0.03610500  0.47033700  0.99335566  1
  C  1050  1  0.98113700  0.44349100  0.01145300  1
  C  1051  1  0.96499700  0.39645600  0.03628600  1
  C  1053  1  0.07541250  0.58213150  0.99363966  1
  C  1054  1  0.03503650  0.59981650  0.00473100  1
  C  1055  1  0.05069750  0.64572250  0.03051200  1
  C  1056  1  0.10716500  0.67483000  0.04605200  1
  C  1057  1  0.14628350  0.65485350  0.03726700  1
  C  1058  1  0.13017800  0.60833100  0.01199200  1
  C  1059  1  0.10509850  0.52913550  0.93403370  1
  C  1060  1  0.00628400  0.52384100  0.93416770  1
  C  1061  1  0.02007500  0.57558800  0.91421470  1
  C  1062  1  0.98023350  0.57734850  0.88900800  1
  C  1063  1  0.92571250  0.52712750  0.88219200  1
  C  1064  1  0.91337250  0.47425350  0.89978100  1
  C  1065  1  0.95315700  0.47263400  0.92555570  1
  C  1066  1  0.09117600  0.47756800  0.91380870  1
  C  1067  1  0.13103000  0.47590700  0.88856500  1
  C  1068  1  0.18568000  0.52606900  0.88197400  1
  C  1069  1  0.19814550  0.57881650  0.89981000  1
  C  1070  1  0.15837250  0.58031750  0.92565770  1
  C  1086  1  0.88646550  0.53047650  0.85652500  1
  C  1087  1  0.22498950  0.52269850  0.85637200  1
  C  1088  1  0.12329600  0.72064700  0.07225000  1
  C  1090  1  0.98811350  0.33051150  0.07087400  1
  C  1095  1  0.45887000  0.07835200  0.37909400  1
  C  1096  1  0.43231800  0.02146500  0.36424500  1
  C  1097  1  0.46299750  0.00590550  0.33876100  1
  C  1098  1  0.52075950  0.04674450  0.32738900  1
  C  1099  1  0.54868400  0.10192200  0.34521600  1
  C  1100  1  0.51775800  0.11795100  0.37009800  1
  C  1102  1  0.59320350  0.00741950  0.32712800  1
  C  1103  1  0.65089350  0.04812050  0.33871300  1
  C  1104  1  0.68141250  0.03226550  0.36412700  1
  C  1105  1  0.65477200  0.97523400  0.37874300  1
  C  1106  1  0.59595550  0.93572250  0.36949500  1
  C  1107  1  0.56519700  0.95201500  0.34465100  1
  C  1108  1  0.51026150  0.97826850  0.26768700  1
  C  1109  1  0.60389400  0.07691600  0.26799900  1
  C  1110  1  0.64214550  0.06344150  0.24813200  1
  C  1111  1  0.68363150  0.10339750  0.22291900  1
  C  1112  1  0.68748400  0.15769300  0.21598400  1
  C  1113  1  0.64664100  0.16968400  0.23347100  1
  C  1114  1  0.60537150  0.12979850  0.25926600  1
  C  1115  1  0.47222550  0.99220250  0.24796700  1
  C  1116  1  0.43086650  0.95275250  0.22247600  1
  C  1117  1  0.42690550  0.89851350  0.21511900  1
  C  1118  1  0.46753550  0.88608950  0.23248300  1
  C  1119  1  0.50869900  0.92547500  0.25853900  1
  C  1135  1  0.72989500  0.19700900  0.19024900  1
  C  1136  1  0.38444200  0.85960200  0.18923900  1
  C  1137  1  0.68458750  0.95899450  0.40476900  1
  C  1139  1  0.42878550  0.09456450  0.40488600  1
  C  1144  1  0.44803900  0.18659800  0.42975400  1
  C  1146  1  0.44415000  0.20282200  0.49634200  1
  C  1147  1  0.48718450  0.26190350  0.49223300  1
  C  1149  1  0.48948450  0.24671550  0.42516100  1
  C  1151  1  0.51390900  0.27186400  0.39062900  1
  C  1152  1  0.57669650  0.30008250  0.38638500  1
  C  1161  1  0.82486650  0.63540750  0.76289700  1
  C  1163  1  0.84444950  0.63921650  0.82956100  1
  C  1164  1  0.85995750  0.59575850  0.82565100  1
  C  1166  1  0.84293150  0.59345850  0.75851600  1
  C  1168  1  0.84359750  0.56882050  0.72405500  1
  C  1169  1  0.80893500  0.50602000  0.71992400  1
  C  1178  1  0.89612150  0.25865650  0.09638500  1
  C  1180  1  0.88076700  0.23971500  0.16313700  1
  C  1181  1  0.82167200  0.22373600  0.15928700  1
  C  1183  1  0.83598750  0.24011450  0.09208000  1
  C  1185  1  0.81039400  0.23889100  0.05763400  1
  C  1186  1  0.78259850  0.27382950  0.05323400  1
  C  1195  1  0.66442900  0.86679800  0.42991600  1
  C  1197  1  0.66798600  0.85085800  0.49657900  1
  C  1198  1  0.62478900  0.79182300  0.49255200  1
  C  1200  1  0.62273050  0.80672850  0.42542200  1
  C  1202  1  0.59832700  0.78148300  0.39090700  1
  C  1203  1  0.53556700  0.75347600  0.38658500  1
  C  1212  1  0.28937800  0.41910900  0.76362300  1
  C  1214  1  0.26849950  0.41486750  0.83008600  1
  C  1215  1  0.25236150  0.45781750  0.82585900  1
  C  1217  1  0.27067400  0.46050200  0.75888700  1
  C  1219  1  0.27058550  0.48524750  0.72433400  1
  C  1220  1  0.30482800  0.54795200  0.72006300  1
  C  1229  1  0.21586000  0.79396700  0.09683300  1
  C  1231  1  0.23275200  0.81508900  0.16325100  1
  C  1232  1  0.29194700  0.83171700  0.15887600  1
  C  1234  1  0.27602600  0.81313700  0.09194700  1
  C  1236  1  0.30071450  0.81316350  0.05735100  1
  C  1237  1  0.32875750  0.77854250  0.05298700  1
  H  26  1  0.46678050  0.37381250  0.91116300  1
  H  27  1  0.46932300  0.44291600  0.95424700  1
  H  28  1  0.64616600  0.43644700  0.92934700  1
  H  29  1  0.64969000  0.50766900  0.97238500  1
  H  30  1  0.64343700  0.61100200  0.95365500  1
  H  31  1  0.64529850  0.67999250  0.91075900  1
  H  32  1  0.46624050  0.61749550  0.93027000  1
  H  33  1  0.46341200  0.54643200  0.97319000  1
  H  34  1  0.48795200  0.56223100  0.04236600  1
  H  35  1  0.40908500  0.51025900  0.08496100  1
  H  36  1  0.42619600  0.36083200  0.07364300  1
  H  37  1  0.50467150  0.41201550  0.03056600  1
  H  38  1  0.62677400  0.49260100  0.04162300  1
  H  39  1  0.60903000  0.64228900  0.03039800  1
  H  40  1  0.68816800  0.69389700  0.07292500  1
  H  44  1  0.70638300  0.54503600  0.08360200  1
  H  75  1  0.99203150  0.61577650  0.24417400  1
  H  76  1  0.05892150  0.61341450  0.28705200  1
  H  77  1  0.87484650  0.43678050  0.26341700  1
  H  78  1  0.94284000  0.43343700  0.30627900  1
  H  79  1  0.05227700  0.43975700  0.28653300  1
  H  80  1  0.11918450  0.43758450  0.24357800  1
  H  81  1  0.23682200  0.61623100  0.26366100  1
  H  82  1  0.16883350  0.61938650  0.30665300  1
  H  83  1  0.15937700  0.59444600  0.37594500  1
  H  84  1  0.18645050  0.67318750  0.41869900  1
  H  85  1  0.02088100  0.65804200  0.40636200  1
  H  86  1  0.99337000  0.57961300  0.36323400  1
  H  87  1  0.95178600  0.45720900  0.37549400  1
  H  88  1  0.11845000  0.47350100  0.36307200  1
  H  89  1  0.09098300  0.39442200  0.40563000  1
  H  93  1  0.92466100  0.37765000  0.41751000  1
  H  124  1  0.71045350  0.09181150  0.57812700  1
  H  125  1  0.64140500  0.02474100  0.62101100  1
  H  126  1  0.64736500  0.20802800  0.59702100  1
  H  127  1  0.57622800  0.13983500  0.63989400  1
  H  128  1  0.47302650  0.03087150  0.62116200  1
  H  129  1  0.40419100  0.96465600  0.57781500  1
  H  130  1  0.46670500  0.84776000  0.59577300  1
  H  131  1  0.53767350  0.91512550  0.63907400  1
  H  132  1  0.52229150  0.92250950  0.70831800  1
  H  133  1  0.57446550  0.89513550  0.75037350  1
  H  134  1  0.72327800  0.06236700  0.74034900  1
  H  135  1  0.67189250  0.09013150  0.69780000  1
  H  136  1  0.59161000  0.13150400  0.70901600  1
  H  137  1  0.44202800  0.96404300  0.69758100  1
  H  138  1  0.39033850  0.99135250  0.74021700  1
  H  142  1  0.53910800  0.15846100  0.75109400  1
  H  154  1  0.42654650  0.18560350  0.89107000  1
  H  157  1  0.59300550  0.27228950  0.76611800  1
  H  158  1  0.59815000  0.34154900  0.77049700  1
  H  159  1  0.58846100  0.30841200  0.72528200  1
  H  162  1  0.47776750  0.28775250  0.91258100  1
  H  164  1  0.44106100  0.16348200  0.74377800  1
  H  171  1  0.84495300  0.65704100  0.22422700  1
  H  174  1  0.76485100  0.48983400  0.09965300  1
  H  175  1  0.82889300  0.48457200  0.10410300  1
  H  176  1  0.80546400  0.49412400  0.05884600  1
  H  179  1  0.89496400  0.60509700  0.24608600  1
  H  181  1  0.80972900  0.64285600  0.07687800  1
  H  188  1  0.89829250  0.23963950  0.55780800  1
  H  191  1  0.81088750  0.31810650  0.43253100  1
  H  192  1  0.74141200  0.25447800  0.43764400  1
  H  193  1  0.77382250  0.27670850  0.39213800  1
  H  196  1  0.79639400  0.18920500  0.57986600  1
  H  198  1  0.91847700  0.27410000  0.41025200  1
  H  205  1  0.68565750  0.86813350  0.89128300  1
  H  208  1  0.51939900  0.78145300  0.76619300  1
  H  209  1  0.51393050  0.71207350  0.77076400  1
  H  210  1  0.52386900  0.74506400  0.72547700  1
  H  213  1  0.63399950  0.76614950  0.91300700  1
  H  215  1  0.67192300  0.88955300  0.74391200  1
  H  222  1  0.26776100  0.39710000  0.22481700  1
  H  225  1  0.34886200  0.56447400  0.09997700  1
  H  226  1  0.28446950  0.56920650  0.10400600  1
  H  227  1  0.30841400  0.55961900  0.05893700  1
  H  230  1  0.21621450  0.44795250  0.24593800  1
  H  232  1  0.30547750  0.41164150  0.07769500  1
  H  239  1  0.21577100  0.81568700  0.55803000  1
  H  242  1  0.30096800  0.73450400  0.43281000  1
  H  243  1  0.37034050  0.79855050  0.43695800  1
  H  244  1  0.33682000  0.77502100  0.39184900  1
  H  247  1  0.31814050  0.86760550  0.57903800  1
  H  249  1  0.19192250  0.77779050  0.41097900  1
  H  1022  1  0.46678050  0.37381250  0.54230100  1
  H  1023  1  0.46932300  0.44291600  0.58538500  1
  H  1024  1  0.64616600  0.43644700  0.56048500  1
  H  1025  1  0.64969000  0.50766900  0.60352300  1
  H  1026  1  0.64343700  0.61100200  0.58479300  1
  H  1027  1  0.64529850  0.67999250  0.54189700  1
  H  1028  1  0.46624050  0.61749550  0.56140800  1
  H  1029  1  0.46341200  0.54643200  0.60432800  1
  H  1030  1  0.48795200  0.56223100  0.67350400  1
  H  1031  1  0.40908500  0.51025900  0.71609900  1
  H  1032  1  0.42619600  0.36083200  0.70478100  1
  H  1033  1  0.50467150  0.41201550  0.66170400  1
  H  1034  1  0.62677400  0.49260100  0.67276100  1
  H  1035  1  0.60903000  0.64228900  0.66153600  1
  H  1036  1  0.68816800  0.69389700  0.70406300  1
  H  1040  1  0.70638300  0.54503600  0.71474000  1
  H  1071  1  0.99203150  0.61577650  0.87531200  1
  H  1072  1  0.05892150  0.61341450  0.91818970  1
  H  1073  1  0.87484650  0.43678050  0.89455500  1
  H  1074  1  0.94284000  0.43343700  0.93741670  1
  H  1075  1  0.05227700  0.43975700  0.91767070  1
  H  1076  1  0.11918450  0.43758450  0.87471600  1
  H  1077  1  0.23682200  0.61623100  0.89479900  1
  H  1078  1  0.16883350  0.61938650  0.93779070  1
  H  1079  1  0.15937700  0.59444600  0.00708300  1
  H  1080  1  0.18645050  0.67318750  0.04983700  1
  H  1081  1  0.02088100  0.65804200  0.03750000  1
  H  1082  1  0.99337000  0.57961300  0.99437166  1
  H  1083  1  0.95178600  0.45720900  0.00663200  1
  H  1084  1  0.11845000  0.47350100  0.99420966  1
  H  1085  1  0.09098300  0.39442200  0.03676800  1
  H  1089  1  0.92466100  0.37765000  0.04864800  1
  H  1120  1  0.71045350  0.09181150  0.20926500  1
  H  1121  1  0.64140500  0.02474100  0.25214900  1
  H  1122  1  0.64736500  0.20802800  0.22815900  1
  H  1123  1  0.57622800  0.13983500  0.27103200  1
  H  1124  1  0.47302650  0.03087150  0.25230000  1
  H  1125  1  0.40419100  0.96465600  0.20895300  1
  H  1126  1  0.46670500  0.84776000  0.22691100  1
  H  1127  1  0.53767350  0.91512550  0.27021200  1
  H  1128  1  0.52229150  0.92250950  0.33945600  1
  H  1129  1  0.57446550  0.89513550  0.38151150  1
  H  1130  1  0.72327800  0.06236700  0.37148700  1
  H  1131  1  0.67189250  0.09013150  0.32893800  1
  H  1132  1  0.59161000  0.13150400  0.34015400  1
  H  1133  1  0.44202800  0.96404300  0.32871900  1
  H  1134  1  0.39033850  0.99135250  0.37135500  1
  H  1138  1  0.53910800  0.15846100  0.38223200  1
  H  1150  1  0.42654650  0.18560350  0.52220800  1
  H  1153  1  0.59300550  0.27228950  0.39725600  1
  H  1154  1  0.59815000  0.34154900  0.40163500  1
  H  1155  1  0.58846100  0.30841200  0.35642000  1
  H  1158  1  0.47776750  0.28775250  0.54371900  1
  H  1160  1  0.44106100  0.16348200  0.37491600  1
  H  1167  1  0.84495300  0.65704100  0.85536500  1
  H  1170  1  0.76485100  0.48983400  0.73079100  1
  H  1171  1  0.82889300  0.48457200  0.73524100  1
  H  1172  1  0.80546400  0.49412400  0.68998400  1
  H  1175  1  0.89496400  0.60509700  0.87722400  1
  H  1177  1  0.80972900  0.64285600  0.70801600  1
  H  1184  1  0.89829250  0.23963950  0.18894600  1
  H  1187  1  0.81088750  0.31810650  0.06366900  1
  H  1188  1  0.74141200  0.25447800  0.06878200  1
  H  1189  1  0.77382250  0.27670850  0.02327600  1
  H  1192  1  0.79639400  0.18920500  0.21100400  1
  H  1194  1  0.91847700  0.27410000  0.04139000  1
  H  1201  1  0.68565750  0.86813350  0.52242100  1
  H  1204  1  0.51939900  0.78145300  0.39733100  1
  H  1205  1  0.51393050  0.71207350  0.40190200  1
  H  1206  1  0.52386900  0.74506400  0.35661500  1
  H  1209  1  0.63399950  0.76614950  0.54414500  1
  H  1211  1  0.67192300  0.88955300  0.37505000  1
  H  1218  1  0.26776100  0.39710000  0.85595500  1
  H  1221  1  0.34886200  0.56447400  0.73111500  1
  H  1222  1  0.28446950  0.56920650  0.73514400  1
  H  1223  1  0.30841400  0.55961900  0.69007500  1
  H  1226  1  0.21621450  0.44795250  0.87707600  1
  H  1228  1  0.30547750  0.41164150  0.70883300  1
  H  1235  1  0.21577100  0.81568700  0.18916800  1
  H  1238  1  0.30096800  0.73450400  0.06394800  1
  H  1239  1  0.37034050  0.79855050  0.06809600  1
  H  1240  1  0.33682000  0.77502100  0.02298700  1
  H  1243  1  0.31814050  0.86760550  0.21017600  1
  H  1245  1  0.19192250  0.77779050  0.04211700  1
  N  149  1  0.42724150  0.16791650  0.83426600  1
  N  152  1  0.50674500  0.28097800  0.82540500  1
  N  161  1  0.50425800  0.29966300  0.89090900  1
  N  163  1  0.43245400  0.14743200  0.76940400  1
  N  166  1  0.82698900  0.65638800  0.16735100  1
  N  169  1  0.85946000  0.57600300  0.15888400  1
  N  178  1  0.88030900  0.57855400  0.22444200  1
  N  180  1  0.80183750  0.65138250  0.10240600  1
  N  183  1  0.91523800  0.25706900  0.50085300  1
  N  186  1  0.80215000  0.22371000  0.49251700  1
  N  195  1  0.78427750  0.20353350  0.55816300  1
  N  197  1  0.93489850  0.28163350  0.43577700  1
  N  200  1  0.68518250  0.88559050  0.83441900  1
  N  203  1  0.60524450  0.77262550  0.82573900  1
  N  212  1  0.60755700  0.75419000  0.89130300  1
  N  214  1  0.68038650  0.90587850  0.76946700  1
  N  217  1  0.28690950  0.39814150  0.16812150  1
  N  220  1  0.25329550  0.47760550  0.15903200  1
  N  229  1  0.23126600  0.47469100  0.22440800  1
  N  231  1  0.31336700  0.40378200  0.10342700  1
  N  234  1  0.19744150  0.79630850  0.50137800  1
  N  237  1  0.31069000  0.83083900  0.49200600  1
  N  246  1  0.33002750  0.85301850  0.55735700  1
  N  248  1  0.17639300  0.76947200  0.43677600  1
  N  1145  1  0.42724150  0.16791650  0.46540400  1
  N  1148  1  0.50674500  0.28097800  0.45654300  1
  N  1157  1  0.50425800  0.29966300  0.52204700  1
  N  1159  1  0.43245400  0.14743200  0.40054200  1
  N  1162  1  0.82698900  0.65638800  0.79848900  1
  N  1165  1  0.85946000  0.57600300  0.79002200  1
  N  1174  1  0.88030900  0.57855400  0.85558000  1
  N  1176  1  0.80183750  0.65138250  0.73354400  1
  N  1179  1  0.91523800  0.25706900  0.13199100  1
  N  1182  1  0.80215000  0.22371000  0.12365500  1
  N  1191  1  0.78427750  0.20353350  0.18930100  1
  N  1193  1  0.93489850  0.28163350  0.06691500  1
  N  1196  1  0.68518250  0.88559050  0.46555700  1
  N  1199  1  0.60524450  0.77262550  0.45687700  1
  N  1208  1  0.60755700  0.75419000  0.52244100  1
  N  1210  1  0.68038650  0.90587850  0.40060500  1
  N  1213  1  0.28690950  0.39814150  0.79925950  1
  N  1216  1  0.25329550  0.47760550  0.79017000  1
  N  1225  1  0.23126600  0.47469100  0.85554600  1
  N  1227  1  0.31336700  0.40378200  0.73456500  1
  N  1230  1  0.19744150  0.79630850  0.13251600  1
  N  1233  1  0.31069000  0.83083900  0.12314400  1
  N  1242  1  0.33002750  0.85301850  0.18849500  1
  N  1244  1  0.17639300  0.76947200  0.06791400  1
  O  46  1  0.51641600  0.68273000  0.86622300  1
  O  47  1  0.59554800  0.37081800  0.86590900  1
  O  48  1  0.37908900  0.38993900  0.14196500  1
  O  49  1  0.73663550  0.66671050  0.14040100  1
  O  95  1  0.25220400  0.56640100  0.19971200  1
  O  96  1  0.85986100  0.48705400  0.19960900  1
  O  97  1  0.09777050  0.70275350  0.47553500  1
  O  98  1  0.01630650  0.34609050  0.47347200  1
  O  144  1  0.40113050  0.83277850  0.53240500  1
  O  145  1  0.71271350  0.22314050  0.53321400  1
  O  146  1  0.69609150  0.98654750  0.80756300  1
  O  147  1  0.41679950  0.06700850  0.80770000  1
  O  160  1  0.49076050  0.29629750  0.74384400  1
  O  177  1  0.89117100  0.59183000  0.07726400  1
  O  194  1  0.78533700  0.19098400  0.41129100  1
  O  211  1  0.62135150  0.75682750  0.74425400  1
  O  228  1  0.22301650  0.46128050  0.07749900  1
  O  245  1  0.32464900  0.86080800  0.41061500  1
  O  1042  1  0.51641600  0.68273000  0.49736100  1
  O  1043  1  0.59554800  0.37081800  0.49704700  1
  O  1044  1  0.37908900  0.38993900  0.77310300  1
  O  1045  1  0.73663550  0.66671050  0.77153900  1
  O  1091  1  0.25220400  0.56640100  0.83085000  1
  O  1092  1  0.85986100  0.48705400  0.83074700  1
  O  1093  1  0.09777050  0.70275350  0.10667300  1
  O  1094  1  0.01630650  0.34609050  0.10461000  1
  O  1140  1  0.40113050  0.83277850  0.16354300  1
  O  1141  1  0.71271350  0.22314050  0.16435200  1
  O  1142  1  0.69609150  0.98654750  0.43870100  1
  O  1143  1  0.41679950  0.06700850  0.43883800  1
  O  1156  1  0.49076050  0.29629750  0.37498200  1
  O  1173  1  0.89117100  0.59183000  0.70840200  1
  O  1190  1  0.78533700  0.19098400  0.04242900  1
  O  1207  1  0.62135150  0.75682750  0.37539200  1
  O  1224  1  0.22301650  0.46128050  0.70863700  1
  O  1241  1  0.32464900  0.86080800  0.04175300  1
  Si  7  1  0.55678450  0.52711450  0.99991200  1
  Si  56  1  0.05571950  0.52638550  0.33312000  1
  Si  105  1  0.55702400  0.02731500  0.66687800  1
  Si  1003  1  0.55678450  0.52711450  0.63105000  1
  Si  1052  1  0.05571950  0.52638550  0.96425770  1
  Si  1101  1  0.55702400  0.02731500  0.29801600  1
