# generated using pymatgen
data_TbH11(C7O2)3
_symmetry_space_group_name_H-M   'P 1'
_cell_length_a   8.68784000
_cell_length_b   10.96682000
_cell_length_c   12.46212000
_cell_angle_alpha   68.05925000
_cell_angle_beta   86.64319000
_cell_angle_gamma   79.29538000
_symmetry_Int_Tables_number   1
_chemical_formula_structural   TbH11(C7O2)3
_chemical_formula_sum   'Tb2 H22 C42 O12'
_cell_volume   1082.12274194
_cell_formula_units_Z   2
loop_
 _symmetry_equiv_pos_site_id
 _symmetry_equiv_pos_as_xyz
  1  'x, y, z'
loop_
 _atom_site_type_symbol
 _atom_site_label
 _atom_site_symmetry_multiplicity
 _atom_site_fract_x
 _atom_site_fract_y
 _atom_site_fract_z
 _atom_site_occupancy
  Tb  Tb0  1  0.70849000  0.97771000  0.45382000  1
  Tb  Tb1  1  0.29152000  0.02272000  0.54635000  1
  H  H2  1  0.22425000  0.64079000  0.76621000  1
  H  H3  1  0.99583000  0.29944000  0.85176000  1
  H  H4  1  0.85498000  0.64866000  0.54742000  1
  H  H5  1  0.97050000  0.22104000  0.68739000  1
  H  H6  1  0.78354000  0.10078000  0.64344000  1
  H  H7  1  0.40798000  0.42882000  0.61393000  1
  H  H8  1  0.59852000  0.55385000  0.65161000  1
  H  H9  1  0.99133000  0.33294000  0.02435000  1
  H  H10  1  0.11947000  0.20935000  0.21581000  1
  H  H11  1  0.56081000  0.30921000  0.07150000  1
  H  H12  1  0.43337000  0.43601000  0.87868000  1
  H  H13  1  0.77638000  0.35897000  0.23407000  1
  H  H14  1  0.00399000  0.70071000  0.14821000  1
  H  H15  1  0.14567000  0.35172000  0.45264000  1
  H  H16  1  0.02979000  0.77970000  0.31266000  1
  H  H17  1  0.21653000  0.89972000  0.35687000  1
  H  H18  1  0.59220000  0.57185000  0.38637000  1
  H  H19  1  0.40202000  0.44687000  0.34838000  1
  H  H20  1  0.00892000  0.66666667  0.97602000  1
  H  H21  1  0.88087000  0.79039000  0.78441000  1
  H  H22  1  0.43936000  0.69072000  0.92875000  1
  H  H23  1  0.56687000  0.56371000  0.12160000  1
  C  C24  1  0.05637000  0.79565000  0.57476000  1
  C  C25  1  0.04299000  0.65580000  0.64942000  1
  C  C26  1  0.13979000  0.58891000  0.74798000  1
  C  C27  1  0.12051000  0.46132000  0.82411000  1
  C  C28  1  0.00930000  0.40005000  0.79528000  1
  C  C29  1  0.91278000  0.46551000  0.69680000  1
  C  C30  1  0.92882000  0.59518000  0.62419000  1
  C  C31  1  0.79712000  0.39548000  0.67241000  1
  C  C32  1  0.84732000  0.26606000  0.67255000  1
  C  C33  1  0.74250000  0.19898000  0.64701000  1
  C  C34  1  0.58413000  0.25774000  0.62430000  1
  C  C35  1  0.53126000  0.38439000  0.62984000  1
  C  C36  1  0.63795000  0.45388000  0.65094000  1
  C  C37  1  0.47853000  0.18632000  0.59016000  1
  C  C38  1  0.20344000  0.39212000  0.93698000  1
  C  C39  1  0.11649000  0.32694000  0.03358000  1
  C  C40  1  0.18734000  0.25803000  0.14136000  1
  C  C41  1  0.34804000  0.25020000  0.15647000  1
  C  C42  1  0.43601000  0.31503000  0.06083000  1
  C  C43  1  0.36400000  0.38702000  0.95261000  1
  C  C44  1  0.41678000  0.17207000  0.27453000  1
  C  C45  1  0.94431000  0.20435000  0.42552000  1
  C  C46  1  0.95757000  0.34418000  0.35074000  1
  C  C47  1  0.86065000  0.41106000  0.25223000  1
  C  C48  1  0.87985000  0.53865000  0.17605000  1
  C  C49  1  0.99096000  0.60005000  0.20483000  1
  C  C50  1  0.08763000  0.53474000  0.30329000  1
  C  C51  1  0.07166000  0.40500000  0.37592000  1
  C  C52  1  0.20319000  0.60501000  0.32772000  1
  C  C53  1  0.15290000  0.73448000  0.32755000  1
  C  C54  1  0.25754000  0.80159000  0.35324000  1
  C  C55  1  0.41583000  0.74298000  0.37604000  1
  C  C56  1  0.46897000  0.61641000  0.37039000  1
  C  C57  1  0.36249000  0.54683000  0.34916000  1
  C  C58  1  0.52132000  0.81426000  0.41026000  1
  C  C59  1  0.79684000  0.60772000  0.06324000  1
  C  C60  1  0.88377000  0.67282000  0.96661000  1
  C  C61  1  0.81286000  0.74180000  0.85885000  1
  C  C62  1  0.65202000  0.74978000  0.84394000  1
  C  C63  1  0.56416000  0.68476000  0.93960000  1
  C  C64  1  0.63631000  0.61269000  0.04776000  1
  C  C65  1  0.58311000  0.82811000  0.72582000  1
  O  O66  1  0.95794000  0.86100000  0.49168000  1
  O  O67  1  0.16690000  0.84374000  0.59824000  1
  O  O68  1  0.33175000  0.20167000  0.60749000  1
  O  O69  1  0.54007000  0.10420000  0.54006000  1
  O  O70  1  0.31900000  0.15492000  0.35806000  1
  O  O71  1  0.56372000  0.12679000  0.28663000  1
  O  O72  1  0.04324000  0.13920000  0.50837000  1
  O  O73  1  0.83380000  0.15592000  0.40233000  1
  O  O74  1  0.66790000  0.79908000  0.39271000  1
  O  O75  1  0.46036000  0.89633000  0.46060000  1
  O  O76  1  0.68120000  0.84479000  0.64236000  1
  O  O77  1  0.43625000  0.87356000  0.71364000  1
