# generated using pymatgen
data_Cr3H14C30(NO7)3
_symmetry_space_group_name_H-M   'P 1'
_cell_length_a   11.08503000
_cell_length_b   18.66968000
_cell_length_c   19.23110000
_cell_angle_alpha   89.81815000
_cell_angle_beta   89.80502000
_cell_angle_gamma   89.56611000
_symmetry_Int_Tables_number   1
_chemical_formula_structural   Cr3H14C30(NO7)3
_chemical_formula_sum   'Cr12 H56 C120 N12 O84'
_cell_volume   3979.79546909
_cell_formula_units_Z   4
loop_
 _symmetry_equiv_pos_site_id
 _symmetry_equiv_pos_as_xyz
  1  'x, y, z'
loop_
 _atom_site_type_symbol
 _atom_site_label
 _atom_site_symmetry_multiplicity
 _atom_site_fract_x
 _atom_site_fract_y
 _atom_site_fract_z
 _atom_site_occupancy
  Cr  Cr0  1  0.16375000  0.75073000  0.76926000  1
  Cr  Cr1  1  0.16375000  0.24927000  0.23074000  1
  Cr  Cr2  1  0.66375000  0.75073000  0.26926000  1
  Cr  Cr3  1  0.66375000  0.24927000  0.73074000  1
  Cr  Cr4  1  0.00991000  0.74878000  0.61264000  1
  Cr  Cr5  1  0.00991000  0.25122000  0.38736000  1
  Cr  Cr6  1  0.50991000  0.74878000  0.11264000  1
  Cr  Cr7  1  0.50991000  0.25122000  0.88736000  1
  Cr  Cr8  1  0.32240000  0.74771000  0.61419000  1
  Cr  Cr9  1  0.32240000  0.25229000  0.38581000  1
  Cr  Cr10  1  0.82240000  0.74771000  0.11419000  1
  Cr  Cr11  1  0.82240000  0.25229000  0.88581000  1
  H  H12  1  0.25528000  0.05228000  0.51179000  1
  H  H13  1  0.23989000  0.94549000  0.47468000  1
  H  H14  1  0.75527000  0.05228000  0.01180000  1
  H  H15  1  0.73990000  0.94549000  0.97469000  1
  H  H16  1  0.40868000  0.91685000  0.86069000  1
  H  H17  1  0.19332000  0.04214000  0.20216000  1
  H  H18  1  0.90866000  0.91685000  0.36070000  1
  H  H19  1  0.69332000  0.04214000  0.70217000  1
  H  H20  1  0.43455000  0.04516000  0.87493000  1
  H  H21  1  0.24069000  0.91488000  0.18860000  1
  H  H22  1  0.93450000  0.04516000  0.37493000  1
  H  H23  1  0.74069000  0.91488000  0.68860000  1
  H  H24  1  0.97697000  0.08062000  0.09632000  1
  H  H25  1  0.14410000  0.96085000  0.76891000  1
  H  H26  1  0.47689000  0.08064000  0.59632000  1
  H  H27  1  0.64410000  0.96094000  0.26886000  1
  H  H28  1  0.32132000  0.08129000  0.63498000  1
  H  H29  1  0.62253000  0.94648000  0.36436000  1
  H  H30  1  0.82138000  0.08128000  0.13496000  1
  H  H31  1  0.12246000  0.94644000  0.86442000  1
  H  H32  1  0.30721000  0.95361000  0.61603000  1
  H  H33  1  0.57345000  0.07118000  0.37931000  1
  H  H34  1  0.80726000  0.95361000  0.11602000  1
  H  H35  1  0.07350000  0.07117000  0.87929000  1
  H  H36  1  0.91374000  0.42384000  0.98472000  1
  H  H37  1  0.92523000  0.54070000  0.09447000  1
  H  H38  1  0.31898000  0.44544000  0.37783000  1
  H  H39  1  0.41608000  0.58633000  0.43799000  1
  H  H40  1  0.45310000  0.41157000  0.63694000  1
  H  H41  1  0.62508000  0.54398000  0.29619000  1
  H  H42  1  0.10743000  0.44983000  0.19434000  1
  H  H43  1  0.06001000  0.56003000  0.81501000  1
  H  H44  1  0.43100000  0.45872000  0.86484000  1
  H  H45  1  0.47884000  0.52923000  0.10603000  1
  H  H46  1  0.01585000  0.47489000  0.41335000  1
  H  H47  1  0.71686000  0.58774000  0.64682000  1
  H  H48  1  0.27741000  0.42377000  0.88888000  1
  H  H49  1  0.32561000  0.56500000  0.09228000  1
  H  H50  1  0.85342000  0.45143000  0.42984000  1
  H  H51  1  0.61338000  0.61013000  0.72106000  1
  H  H52  1  0.20672000  0.54603000  0.88038000  1
  H  H53  1  0.24601000  0.44427000  0.11181000  1
  H  H54  1  0.79563000  0.57351000  0.41149000  1
  H  H55  1  0.57457000  0.48645000  0.74160000  1
  H  H56  1  0.35842000  0.57444000  0.85461000  1
  H  H57  1  0.40560000  0.41159000  0.11772000  1
  H  H58  1  0.95904000  0.59766000  0.40150000  1
  H  H59  1  0.66864000  0.46098000  0.66243000  1
  H  H60  1  0.55611000  0.48955000  0.43506000  1
  H  H61  1  0.18592000  0.55000000  0.34665000  1
  H  H62  1  0.88869000  0.40067000  0.14583000  1
  H  H63  1  0.89890000  0.55126000  0.93079000  1
  H  H64  1  0.44567000  0.60641000  0.59332000  1
  H  H65  1  0.60443000  0.34039000  0.29413000  1
  H  H66  1  0.10934000  0.65045000  0.18240000  1
  H  H67  1  0.08184000  0.37477000  0.81136000  1
  C  C68  1  0.95480000  0.85298000  0.72752000  1
  C  C69  1  0.96134000  0.14443000  0.27534000  1
  C  C70  1  0.45479000  0.85297000  0.22752000  1
  C  C71  1  0.46135000  0.14442000  0.77534000  1
  C  C72  1  0.17615000  0.85099000  0.52979000  1
  C  C73  1  0.17786000  0.15019000  0.47130000  1
  C  C74  1  0.67615000  0.85099000  0.02979000  1
  C  C75  1  0.67785000  0.15019000  0.97130000  1
  C  C76  1  0.36409000  0.85222000  0.73778000  1
  C  C77  1  0.31409000  0.14025000  0.27597000  1
  C  C78  1  0.86410000  0.85222000  0.23778000  1
  C  C79  1  0.81410000  0.14025000  0.77597000  1
  C  C80  1  0.95060000  0.65078000  0.73053000  1
  C  C81  1  0.00196000  0.35997000  0.29037000  1
  C  C82  1  0.49658000  0.63950000  0.21308000  1
  C  C83  1  0.44798000  0.34908000  0.76910000  1
  C  C84  1  0.17467000  0.64318000  0.53329000  1
  C  C85  1  0.17773000  0.35335000  0.47128000  1
  C  C86  1  0.67787000  0.64355000  0.03234000  1
  C  C87  1  0.67373000  0.35447000  0.97068000  1
  C  C88  1  0.30990000  0.63899000  0.72376000  1
  C  C89  1  0.36426000  0.35181000  0.26001000  1
  C  C90  1  0.86729000  0.64914000  0.24132000  1
  C  C91  1  0.81436000  0.36152000  0.77411000  1
  C  C92  1  0.16029000  0.92279000  0.49847000  1
  C  C93  1  0.17007000  0.07987000  0.50477000  1
  C  C94  1  0.66029000  0.92279000  0.99847000  1
  C  C95  1  0.67005000  0.07987000  0.00477000  1
  C  C96  1  0.06458000  0.04467000  0.51032000  1
  C  C97  1  0.06142000  0.96458000  0.51329000  1
  C  C98  1  0.56456000  0.04466000  0.01031000  1
  C  C99  1  0.56141000  0.96458000  0.01327000  1
  C  C100  1  0.44187000  0.06870000  0.76466000  1
  C  C101  1  0.39786000  0.91784000  0.25523000  1
  C  C102  1  0.94187000  0.06870000  0.26466000  1
  C  C103  1  0.89784000  0.91783000  0.75525000  1
  C  C104  1  0.46241000  0.03727000  0.70029000  1
  C  C105  1  0.45706000  0.95924000  0.30521000  1
  C  C106  1  0.96244000  0.03727000  0.20029000  1
  C  C107  1  0.95704000  0.95922000  0.80523000  1
  C  C108  1  0.45417000  0.96415000  0.69201000  1
  C  C109  1  0.42674000  0.03067000  0.31483000  1
  C  C110  1  0.95420000  0.96414000  0.19202000  1
  C  C111  1  0.92675000  0.03066000  0.81483000  1
  C  C112  1  0.42533000  0.94966000  0.81529000  1
  C  C113  1  0.26464000  0.01899000  0.23301000  1
  C  C114  1  0.92532000  0.94966000  0.31529000  1
  C  C115  1  0.76464000  0.01899000  0.73301000  1
  C  C116  1  0.43497000  0.02346000  0.82319000  1
  C  C117  1  0.29274000  0.94624000  0.22489000  1
  C  C118  1  0.93495000  0.02346000  0.32319000  1
  C  C119  1  0.79273000  0.94623000  0.72489000  1
  C  C120  1  0.41042000  0.05388000  0.63097000  1
  C  C121  1  0.58881000  0.97233000  0.31598000  1
  C  C122  1  0.91049000  0.05387000  0.13096000  1
  C  C123  1  0.08878000  0.97228000  0.81601000  1
  C  C124  1  0.40119000  0.97311000  0.62076000  1
  C  C125  1  0.55595000  0.05092000  0.32596000  1
  C  C126  1  0.90124000  0.97310000  0.12076000  1
  C  C127  1  0.05597000  0.05089000  0.82595000  1
  C  C128  1  0.42328000  0.92013000  0.74846000  1
  C  C129  1  0.33663000  0.06309000  0.27463000  1
  C  C130  1  0.92330000  0.92013000  0.24847000  1
  C  C131  1  0.83665000  0.06309000  0.77463000  1
  C  C132  1  0.17902000  0.42181000  0.50371000  1
  C  C133  1  0.15921000  0.56968000  0.51393000  1
  C  C134  1  0.65254000  0.42055000  0.00801000  1
  C  C135  1  0.67342000  0.56888000  0.01512000  1
  C  C136  1  0.27550000  0.46671000  0.48704000  1
  C  C137  1  0.26170000  0.53826000  0.48877000  1
  C  C138  1  0.74850000  0.45134000  0.04228000  1
  C  C139  1  0.75576000  0.52399000  0.04815000  1
  C  C140  1  0.06643000  0.52471000  0.54256000  1
  C  C141  1  0.07931000  0.44931000  0.53900000  1
  C  C142  1  0.56956000  0.53997000  0.98676000  1
  C  C143  1  0.54989000  0.46491000  0.99228000  1
  C  C144  1  0.35623000  0.47248000  0.42417000  1
  C  C145  1  0.33562000  0.55333000  0.42596000  1
  C  C146  1  0.88215000  0.44215000  0.03617000  1
  C  C147  1  0.89002000  0.52270000  0.04450000  1
  C  C148  1  0.37687000  0.41006000  0.73890000  1
  C  C149  1  0.46737000  0.56683000  0.23342000  1
  C  C150  1  0.98355000  0.43685000  0.27922000  1
  C  C151  1  0.89907000  0.58620000  0.76141000  1
  C  C152  1  0.30397000  0.44846000  0.78345000  1
  C  C153  1  0.37446000  0.53657000  0.19760000  1
  C  C154  1  0.90579000  0.47292000  0.32341000  1
  C  C155  1  0.78334000  0.56157000  0.75041000  1
  C  C156  1  0.27048000  0.51938000  0.77302000  1
  C  C157  1  0.34306000  0.46628000  0.20741000  1
  C  C158  1  0.87709000  0.54381000  0.31345000  1
  C  C159  1  0.75810000  0.48986000  0.75697000  1
  C  C160  1  0.38252000  0.51768000  0.66504000  1
  C  C161  1  0.51967000  0.44806000  0.27851000  1
  C  C162  1  0.02065000  0.55078000  0.21962000  1
  C  C163  1  0.95242000  0.46596000  0.80267000  1
  C  C164  1  0.40021000  0.44193000  0.67421000  1
  C  C165  1  0.54400000  0.52230000  0.27359000  1
  C  C166  1  0.04366000  0.47657000  0.22756000  1
  C  C167  1  0.97652000  0.53964000  0.79715000  1
  C  C168  1  0.33173000  0.46020000  0.85640000  1
  C  C169  1  0.38307000  0.52774000  0.12182000  1
  C  C170  1  0.92014000  0.48234000  0.39933000  1
  C  C171  1  0.68466000  0.57404000  0.69989000  1
  C  C172  1  0.28755000  0.53500000  0.84826000  1
  C  C173  1  0.33830000  0.45326000  0.13189000  1
  C  C174  1  0.88536000  0.55968000  0.38903000  1
  C  C175  1  0.65569000  0.49457000  0.70949000  1
  C  C176  1  0.32094000  0.55862000  0.71893000  1
  C  C177  1  0.41298000  0.42216000  0.24858000  1
  C  C178  1  0.93010000  0.58314000  0.26034000  1
  C  C179  1  0.84515000  0.43836000  0.77306000  1
  C  C180  1  0.48355000  0.45143000  0.44196000  1
  C  C181  1  0.26064000  0.58111000  0.36641000  1
  C  C182  1  0.93214000  0.39910000  0.09524000  1
  C  C183  1  0.94000000  0.55989000  0.98108000  1
  C  C184  1  0.45076000  0.55090000  0.60642000  1
  C  C185  1  0.60788000  0.39665000  0.30793000  1
  C  C186  1  0.09166000  0.59462000  0.17100000  1
  C  C187  1  0.04194000  0.42047000  0.83782000  1
  N  N188  1  0.95349000  0.08492000  0.51904000  1
  N  N189  1  0.94904000  0.93247000  0.53355000  1
  N  N190  1  0.45346000  0.08490000  0.01901000  1
  N  N191  1  0.44902000  0.93246000  0.03352000  1
  N  N192  1  0.48207000  0.94704000  0.56585000  1
  N  N193  1  0.60381000  0.09721000  0.27085000  1
  N  N194  1  0.98212000  0.94701000  0.06587000  1
  N  N195  1  0.10389000  0.09710000  0.77080000  1
  N  N196  1  0.96009000  0.55348000  0.57420000  1
  N  N197  1  0.98964000  0.40116000  0.56619000  1
  N  N198  1  0.49204000  0.58737000  0.94876000  1
  N  N199  1  0.42796000  0.43703000  0.99031000  1
  O  O200  1  0.29036000  0.83054000  0.78429000  1
  O  O201  1  0.29036000  0.16946000  0.21571000  1
  O  O202  1  0.79036000  0.83054000  0.28429000  1
  O  O203  1  0.79036000  0.16946000  0.71571000  1
  O  O204  1  0.04107000  0.82523000  0.76261000  1
  O  O205  1  0.04107000  0.17477000  0.23739000  1
  O  O206  1  0.54107000  0.82523000  0.26261000  1
  O  O207  1  0.54107000  0.17477000  0.73739000  1
  O  O208  1  0.92416000  0.82997000  0.66739000  1
  O  O209  1  0.92416000  0.17003000  0.33261000  1
  O  O210  1  0.42416000  0.82997000  0.16739000  1
  O  O211  1  0.42416000  0.17003000  0.83261000  1
  O  O212  1  0.08142000  0.82178000  0.55398000  1
  O  O213  1  0.08142000  0.17822000  0.44602000  1
  O  O214  1  0.58142000  0.82178000  0.05398000  1
  O  O215  1  0.58142000  0.17822000  0.94602000  1
  O  O216  1  0.28317000  0.82674000  0.54321000  1
  O  O217  1  0.28317000  0.17326000  0.45679000  1
  O  O218  1  0.78317000  0.82674000  0.04321000  1
  O  O219  1  0.78317000  0.17326000  0.95679000  1
  O  O220  1  0.37500000  0.82272000  0.67835000  1
  O  O221  1  0.37500000  0.17728000  0.32165000  1
  O  O222  1  0.87500000  0.82272000  0.17835000  1
  O  O223  1  0.87500000  0.17728000  0.82165000  1
  O  O224  1  0.28930000  0.67058000  0.78506000  1
  O  O225  1  0.28930000  0.32942000  0.21494000  1
  O  O226  1  0.78930000  0.67058000  0.28506000  1
  O  O227  1  0.78930000  0.32942000  0.71494000  1
  O  O228  1  0.04009000  0.67694000  0.76333000  1
  O  O229  1  0.04009000  0.32306000  0.23667000  1
  O  O230  1  0.54009000  0.67694000  0.26333000  1
  O  O231  1  0.54009000  0.32306000  0.73667000  1
  O  O232  1  0.92311000  0.67000000  0.66816000  1
  O  O233  1  0.92311000  0.33000000  0.33184000  1
  O  O234  1  0.42311000  0.67000000  0.16816000  1
  O  O235  1  0.42311000  0.33000000  0.83184000  1
  O  O236  1  0.08044000  0.67348000  0.55469000  1
  O  O237  1  0.08044000  0.32652000  0.44531000  1
  O  O238  1  0.58044000  0.67348000  0.05469000  1
  O  O239  1  0.58044000  0.32652000  0.94531000  1
  O  O240  1  0.28211000  0.66677000  0.54398000  1
  O  O241  1  0.28211000  0.33323000  0.45602000  1
  O  O242  1  0.78211000  0.66677000  0.04398000  1
  O  O243  1  0.78211000  0.33323000  0.95602000  1
  O  O244  1  0.37403000  0.67443000  0.67907000  1
  O  O245  1  0.37403000  0.32557000  0.32093000  1
  O  O246  1  0.87403000  0.67443000  0.17907000  1
  O  O247  1  0.87403000  0.32557000  0.82093000  1
  O  O248  1  0.16535000  0.74907000  0.66536000  1
  O  O249  1  0.16535000  0.25093000  0.33464000  1
  O  O250  1  0.66535000  0.74907000  0.16536000  1
  O  O251  1  0.66535000  0.25093000  0.83464000  1
  O  O252  1  0.85354000  0.06370000  0.49073000  1
  O  O253  1  0.94981000  0.13904000  0.56155000  1
  O  O254  1  0.88979000  0.95729000  0.58673000  1
  O  O255  1  0.89665000  0.88708000  0.49250000  1
  O  O256  1  0.35352000  0.06368000  0.99069000  1
  O  O257  1  0.44974000  0.13903000  0.06152000  1
  O  O258  1  0.38975000  0.95727000  0.08669000  1
  O  O259  1  0.39667000  0.88705000  0.99248000  1
  O  O260  1  0.50713000  0.39146000  0.46369000  1
  O  O261  1  0.28231000  0.63940000  0.34060000  1
  O  O262  1  0.02065000  0.36093000  0.08629000  1
  O  O263  1  0.02527000  0.60046000  0.98584000  1
  O  O264  1  0.52147000  0.51547000  0.57185000  1
  O  O265  1  0.68393000  0.41583000  0.34898000  1
  O  O266  1  0.12638000  0.56968000  0.11618000  1
  O  O267  1  0.06800000  0.43235000  0.89812000  1
  O  O268  1  0.46826000  0.96969000  0.50233000  1
  O  O269  1  0.56214000  0.89742000  0.57868000  1
  O  O270  1  0.65657000  0.15676000  0.28721000  1
  O  O271  1  0.59193000  0.08052000  0.20553000  1
  O  O272  1  0.96835000  0.96966000  0.00234000  1
  O  O273  1  0.06209000  0.89733000  0.07870000  1
  O  O274  1  0.15694000  0.15658000  0.78713000  1
  O  O275  1  0.09191000  0.08040000  0.70549000  1
  O  O276  1  0.88840000  0.59535000  0.53902000  1
  O  O277  1  0.92000000  0.52348000  0.63042000  1
  O  O278  1  0.02319000  0.34444000  0.60083000  1
  O  O279  1  0.87585000  0.41015000  0.55198000  1
  O  O280  1  0.53953000  0.62272000  0.89709000  1
  O  O281  1  0.39684000  0.61445000  0.97882000  1
  O  O282  1  0.40424000  0.37017000  0.00338000  1
  O  O283  1  0.33684000  0.48124000  0.99132000  1
