# generated using pymatgen
data_H9C18N2O
_symmetry_space_group_name_H-M   'P 1'
_cell_length_a   31.17230000
_cell_length_b   31.17230000
_cell_length_c   56.28280000
_cell_angle_alpha   89.97120000
_cell_angle_beta   90.14660000
_cell_angle_gamma   90.00000000
_symmetry_Int_Tables_number   1
_chemical_formula_structural   H9C18N2O
_chemical_formula_sum   'H144 C288 N32 O16'
_cell_volume   54690.50239217
_cell_formula_units_Z   16
loop_
 _symmetry_equiv_pos_site_id
 _symmetry_equiv_pos_as_xyz
  1  'x, y, z'
loop_
 _atom_site_type_symbol
 _atom_site_label
 _atom_site_symmetry_multiplicity
 _atom_site_fract_x
 _atom_site_fract_y
 _atom_site_fract_z
 _atom_site_occupancy
  H  7  1  0.81496000  0.98951000  0.87348900  1
  H  8  1  0.87152100  0.89967800  0.82867700  1
  H  15  1  0.65512600  0.02659700  0.90827100  1
  H  16  1  0.68387200  0.96728400  0.84407500  1
  H  19  1  0.72291800  0.92693100  0.81235800  1
  H  20  1  0.76239300  0.91445000  0.90761100  1
  H  27  1  0.18598100  0.01121100  0.87411700  1
  H  28  1  0.13029000  0.10128300  0.82890800  1
  H  35  1  0.34482000  0.97042800  0.90856100  1
  H  36  1  0.31703300  0.03173600  0.84475100  1
  H  39  1  0.27868000  0.07304500  0.81320700  1
  H  40  1  0.24030000  0.08537300  0.90845800  1
  H  47  1  0.99069700  0.18359000  0.37343000  1
  H  48  1  0.90013900  0.12777000  0.32855300  1
  H  55  1  0.03198400  0.34143600  0.40781200  1
  H  56  1  0.96969900  0.31481000  0.34412300  1
  H  59  1  0.92874700  0.27604500  0.31234000  1
  H  60  1  0.91628800  0.23744300  0.40764700  1
  H  67  1  0.01151900  0.81278000  0.37349100  1
  H  68  1  0.10183100  0.86866700  0.32872200  1
  H  75  1  0.97341500  0.65171800  0.40795600  1
  H  76  1  0.03327700  0.68163600  0.34410300  1
  H  79  1  0.07444200  0.72012500  0.31286400  1
  H  80  1  0.08485300  0.75921600  0.40826700  1
  H  87  1  0.81538000  0.00937200  0.12193900  1
  H  88  1  0.86837600  0.10188100  0.16666300  1
  H  95  1  0.65970800  0.96367500  0.08701100  1
  H  96  1  0.68366000  0.02706300  0.15058900  1
  H  99  1  0.72097200  0.06882200  0.18250800  1
  H  100  1  0.76034300  0.08260900  0.08737700  1
  H  107  1  0.18680200  0.99006100  0.12121700  1
  H  108  1  0.12701800  0.90070600  0.16494300  1
  H  115  1  0.34989900  0.02327400  0.08800600  1
  H  116  1  0.31658700  0.96466500  0.15180100  1
  H  119  1  0.27570400  0.92477500  0.18288500  1
  H  120  1  0.23954900  0.91522400  0.08693200  1
  H  127  1  0.98782000  0.81448800  0.62143000  1
  H  128  1  0.89621000  0.86894800  0.66597200  1
  H  135  1  0.02986400  0.65558800  0.58719100  1
  H  136  1  0.96763100  0.68290600  0.65061000  1
  H  139  1  0.92645800  0.72105600  0.68208300  1
  H  140  1  0.91490500  0.76007400  0.58664000  1
  H  147  1  0.00884600  0.18558800  0.62124700  1
  H  148  1  0.09786600  0.12755100  0.66612600  1
  H  155  1  0.97235100  0.34535100  0.58669100  1
  H  156  1  0.03180100  0.31609100  0.65096000  1
  H  159  1  0.07192900  0.27632100  0.68274400  1
  H  160  1  0.08463800  0.23834200  0.58740000  1
  H  167  1  0.94254900  0.84330300  0.70290300  1
  H  172  1  0.83146900  0.76866200  0.69311800  1
  H  177  1  0.90552700  0.93833600  0.76274000  1
  H  178  1  0.94148100  0.90071800  0.73170900  1
  H  179  1  0.84829300  0.94202200  0.79142900  1
  H  180  1  0.76852600  0.83460300  0.80121600  1
  H  187  1  0.05702100  0.14978600  0.70342900  1
  H  192  1  0.16339200  0.23097300  0.69397500  1
  H  197  1  0.09927600  0.05647000  0.76311300  1
  H  198  1  0.06132400  0.09228000  0.73203800  1
  H  199  1  0.15653500  0.05584700  0.79210600  1
  H  200  1  0.23014600  0.16750400  0.80205600  1
  H  207  1  0.84357500  0.05474200  0.20355700  1
  H  212  1  0.76779000  0.16505700  0.19374400  1
  H  217  1  0.93950600  0.09366200  0.26281900  1
  H  218  1  0.90152400  0.05677900  0.23214900  1
  H  219  1  0.94323400  0.15141800  0.29131200  1
  H  220  1  0.83500500  0.22992100  0.30140100  1
  H  227  1  0.14796900  0.94007700  0.20249600  1
  H  232  1  0.23084500  0.83484000  0.19366100  1
  H  237  1  0.05590900  0.89833800  0.26260600  1
  H  238  1  0.09087800  0.93583600  0.23118000  1
  H  239  1  0.05621700  0.84179700  0.29192500  1
  H  240  1  0.16847200  0.76904100  0.30189300  1
  H  247  1  0.10236200  0.02875800  0.81723700  1
  H  252  1  0.10194700  0.03378500  0.89185600  1
  H  257  1  0.96330100  0.99159700  0.79566000  1
  H  258  1  0.03738800  0.01077200  0.79572000  1
  H  259  1  0.89844800  0.97339100  0.81706400  1
  H  260  1  0.89971300  0.96599400  0.89161900  1
  H  267  1  0.02840400  0.89594000  0.31697800  1
  H  272  1  0.03541800  0.89718600  0.39156000  1
  H  277  1  0.99030400  0.03475000  0.29538500  1
  H  278  1  0.00955700  0.96067900  0.29545200  1
  H  279  1  0.97277400  0.09982300  0.31679800  1
  H  280  1  0.96792200  0.09944100  0.39140700  1
  H  287  1  0.10588900  0.98058000  0.17648700  1
  H  292  1  0.09823700  0.96100500  0.10272300  1
  H  297  1  0.96826600  0.02049700  0.19938000  1
  H  298  1  0.04247600  0.00181800  0.19855700  1
  H  299  1  0.90154100  0.03459900  0.17867900  1
  H  300  1  0.89607400  0.02824100  0.10412900  1
  H  307  1  0.02169000  0.10292200  0.67745600  1
  H  312  1  0.03428800  0.09951200  0.60315800  1
  H  317  1  0.98293300  0.96447200  0.69931600  1
  H  318  1  0.00197100  0.03859200  0.69908100  1
  H  319  1  0.96663200  0.89892800  0.67805700  1
  H  320  1  0.96656000  0.89729100  0.60339300  1
  H  327  1  0.61029900  0.99844400  0.83426800  1
  H  332  1  0.59790500  0.98044400  0.90827300  1
  H  337  1  0.46119200  0.00283400  0.81051700  1
  H  338  1  0.53851000  0.00063700  0.81036800  1
  H  339  1  0.38990600  0.00309500  0.83464300  1
  H  340  1  0.40392600  0.01256500  0.90906800  1
  H  347  1  0.99669100  0.38789700  0.33412300  1
  H  352  1  0.99168300  0.40114900  0.40869300  1
  H  357  1  0.99740400  0.53674600  0.31011400  1
  H  358  1  0.99558700  0.45942800  0.31015000  1
  H  359  1  0.00033700  0.60825900  0.33409500  1
  H  360  1  0.02198500  0.59544100  0.40782800  1
  H  367  1  0.61152600  0.00538100  0.16037700  1
  H  372  1  0.59683300  0.99484200  0.08600400  1
  H  377  1  0.46343400  0.00856100  0.18486600  1
  H  378  1  0.54073100  0.01008800  0.18442000  1
  H  379  1  0.39151800  0.00254800  0.16138800  1
  H  380  1  0.40221400  0.96708000  0.08925900  1
  H  387  1  0.99679100  0.60991300  0.66081200  1
  H  392  1  0.98690800  0.59680200  0.58636300  1
  H  397  1  0.99900200  0.46102200  0.68481000  1
  H  398  1  0.99697800  0.53834100  0.68480500  1
  H  399  1  0.00098000  0.38952200  0.66079100  1
  H  400  1  0.01830700  0.40268100  0.58678200  1
  H  407  1  0.78464600  0.99793000  0.05741600  1
  H  412  1  0.64955700  0.00683600  0.05281400  1
  H  417  1  0.82584600  0.00016000  0.97597200  1
  H  418  1  0.82629000  0.99988300  0.01873500  1
  H  419  1  0.78336600  0.00020700  0.93745300  1
  H  420  1  0.64902900  0.98421500  0.94247300  1
  H  427  1  0.22000600  0.00168200  0.05829700  1
  H  432  1  0.35427000  0.98508400  0.05304000  1
  H  437  1  0.17672400  0.00271900  0.97714600  1
  H  438  1  0.17738300  0.00233300  0.01990600  1
  H  439  1  0.21816900  0.00115300  0.93843900  1
  H  440  1  0.35315500  0.01162600  0.94286700  1
  H  447  1  0.99889300  0.21698100  0.55773200  1
  H  452  1  0.01361500  0.35144500  0.55229200  1
  H  457  1  0.99940700  0.17363500  0.47660900  1
  H  458  1  0.99923900  0.17430800  0.51937200  1
  H  459  1  0.00089900  0.21510500  0.43780400  1
  H  460  1  0.98991500  0.35004400  0.44199300  1
  H  467  1  0.99965300  0.78237300  0.55704300  1
  H  472  1  0.98856600  0.64744200  0.55277500  1
  H  477  1  0.99864100  0.82319000  0.47547400  1
  H  478  1  0.99842800  0.82385600  0.51823700  1
  H  479  1  0.99873400  0.78051600  0.43711600  1
  H  480  1  0.01374100  0.64608200  0.44265400  1
  C  1  1  0.76981200  0.94905300  0.85575500  1
  C  2  1  0.81168600  0.96467400  0.86171400  1
  C  3  1  0.84950300  0.94690000  0.85214800  1
  C  4  1  0.84439300  0.91258700  0.83611000  1
  C  5  1  0.80443800  0.90476900  0.82484500  1
  C  6  1  0.76676500  0.92166000  0.83548300  1
  C  9  1  0.73386300  0.96364500  0.86994300  1
  C  10  1  0.73988200  0.96620800  0.89505800  1
  C  11  1  0.71160800  0.99008200  0.90956900  1
  C  12  1  0.67496300  0.00750900  0.89838700  1
  C  13  1  0.66004000  0.99227900  0.87612300  1
  C  14  1  0.69187600  0.97377200  0.86125500  1
  C  21  1  0.23154300  0.05116900  0.85649100  1
  C  22  1  0.18948400  0.03603200  0.86235000  1
  C  23  1  0.15182900  0.05399900  0.85254500  1
  C  24  1  0.15731100  0.08831600  0.83652500  1
  C  25  1  0.19744400  0.09603500  0.82558900  1
  C  26  1  0.23491100  0.07856800  0.83624200  1
  C  29  1  0.26740300  0.03595000  0.87064600  1
  C  30  1  0.26165800  0.03333200  0.89576000  1
  C  31  1  0.28965600  0.00874600  0.91017900  1
  C  32  1  0.32556200  0.99039100  0.89881000  1
  C  33  1  0.34079100  0.00596300  0.87671400  1
  C  34  1  0.30914000  0.02525300  0.86192400  1
  C  41  1  0.95052900  0.22906600  0.35574300  1
  C  42  1  0.96581600  0.18705900  0.36166500  1
  C  43  1  0.94776600  0.14937700  0.35200600  1
  C  44  1  0.91332700  0.15477800  0.33602400  1
  C  45  1  0.90576200  0.19479500  0.32481100  1
  C  46  1  0.92310500  0.23232800  0.33545200  1
  C  49  1  0.96562900  0.26489900  0.36992600  1
  C  50  1  0.96833100  0.25891600  0.39503500  1
  C  51  1  0.99317900  0.28662300  0.40945000  1
  C  52  1  0.01162600  0.32252800  0.39810900  1
  C  53  1  0.99587900  0.33818300  0.37609200  1
  C  54  1  0.97632100  0.30673900  0.36127500  1
  C  61  1  0.05177200  0.76727600  0.35604300  1
  C  62  1  0.03650000  0.80930300  0.36186400  1
  C  63  1  0.05461000  0.84698400  0.35225100  1
  C  64  1  0.08899300  0.84161300  0.33631900  1
  C  65  1  0.09694300  0.80146400  0.32541900  1
  C  66  1  0.07946700  0.76397200  0.33595700  1
  C  69  1  0.03648700  0.73136400  0.37007700  1
  C  70  1  0.03332100  0.73714300  0.39517200  1
  C  71  1  0.00923100  0.70865800  0.40949300  1
  C  72  1  0.99226300  0.67195300  0.39817000  1
  C  73  1  0.00787600  0.65748300  0.37594800  1
  C  74  1  0.02648800  0.68950300  0.36124300  1
  C  81  1  0.76880100  0.04844500  0.13930500  1
  C  82  1  0.81123700  0.03418100  0.13363200  1
  C  83  1  0.84839700  0.05307000  0.14348700  1
  C  84  1  0.84188900  0.08776300  0.15913300  1
  C  85  1  0.80162200  0.09423300  0.17018800  1
  C  86  1  0.76466700  0.07568800  0.15955200  1
  C  89  1  0.73346800  0.03258500  0.12497500  1
  C  90  1  0.73974200  0.03012200  0.09991100  1
  C  91  1  0.71285600  0.00448400  0.08546600  1
  C  92  1  0.67736200  0.98511000  0.09668800  1
  C  93  1  0.66092200  0.00039900  0.11858200  1
  C  94  1  0.69181400  0.02086200  0.13343600  1
  C  101  1  0.23068000  0.94844400  0.13915000  1
  C  102  1  0.18929700  0.96489800  0.13285300  1
  C  103  1  0.15089700  0.94731800  0.14176700  1
  C  104  1  0.15477900  0.91296200  0.15787200  1
  C  105  1  0.19419800  0.90433200  0.16952500  1
  C  106  1  0.23255000  0.92058200  0.15929800  1
  C  109  1  0.26730300  0.96286300  0.12542300  1
  C  110  1  0.26217900  0.96627900  0.10027000  1
  C  111  1  0.29151500  0.98970900  0.08612300  1
  C  112  1  0.32855600  0.00548600  0.09768400  1
  C  113  1  0.34183800  0.98971200  0.12013000  1
  C  114  1  0.30915500  0.97183800  0.13461800  1
  C  121  1  0.94807300  0.76845100  0.63882300  1
  C  122  1  0.96285500  0.81068100  0.63303800  1
  C  123  1  0.94432700  0.84810500  0.64270000  1
  C  124  1  0.90970100  0.84219700  0.65842800  1
  C  125  1  0.90252900  0.80201000  0.66950200  1
  C  126  1  0.92056000  0.76478100  0.65896900  1
  C  129  1  0.96375500  0.73278600  0.62474200  1
  C  130  1  0.96681300  0.73873900  0.59964900  1
  C  131  1  0.99164100  0.71087600  0.58536900  1
  C  132  1  0.00978500  0.67485300  0.59681000  1
  C  133  1  0.99397000  0.65948600  0.61881800  1
  C  134  1  0.97441200  0.69099600  0.63350000  1
  C  141  1  0.04964400  0.23015600  0.63920100  1
  C  142  1  0.03366600  0.18850600  0.63310000  1
  C  143  1  0.05116100  0.15041900  0.64256800  1
  C  144  1  0.08530500  0.15500800  0.65879700  1
  C  145  1  0.09347000  0.19474100  0.67015600  1
  C  146  1  0.07701600  0.23272700  0.65954900  1
  C  149  1  0.03534200  0.26634900  0.62504200  1
  C  150  1  0.03283900  0.26058400  0.59991600  1
  C  151  1  0.00884400  0.28890500  0.58540300  1
  C  152  1  0.99143900  0.32546200  0.59660400  1
  C  153  1  0.00685900  0.34023100  0.61886300  1
  C  154  1  0.02530300  0.30826600  0.63375600  1
  C  161  1  0.88970300  0.80394300  0.69392700  1
  C  162  1  0.85026500  0.78876700  0.70299000  1
  C  164  1  0.85484300  0.83537000  0.73700200  1
  C  165  1  0.89468600  0.85130900  0.72849700  1
  C  166  1  0.91362300  0.83182200  0.70869300  1
  C  168  1  0.83660800  0.85445300  0.75753300  1
  C  169  1  0.78959400  0.85234900  0.79141300  1
  C  170  1  0.80676200  0.89097000  0.80054900  1
  C  171  1  0.83559400  0.91353900  0.78574600  1
  C  174  1  0.85429800  0.89358700  0.76602400  1
  C  175  1  0.89195200  0.91091900  0.75608800  1
  C  176  1  0.91365700  0.88821300  0.73843400  1
  C  181  1  0.10755300  0.19196000  0.69442800  1
  C  182  1  0.14591200  0.20956000  0.70370100  1
  C  184  1  0.14449300  0.16203900  0.73746300  1
  C  185  1  0.10555700  0.14400200  0.72889000  1
  C  186  1  0.08540300  0.16265800  0.70916600  1
  C  188  1  0.16375900  0.14381500  0.75801100  1
  C  189  1  0.21035200  0.14853200  0.79209800  1
  C  190  1  0.19542500  0.10895000  0.80115000  1
  C  191  1  0.16779700  0.08487500  0.78630700  1
  C  194  1  0.14819400  0.10375900  0.76646300  1
  C  195  1  0.11143600  0.08454300  0.75647900  1
  C  196  1  0.08861000  0.10607800  0.73874000  1
  C  201  1  0.80346600  0.10706900  0.19463100  1
  C  202  1  0.78815600  0.14652200  0.20361800  1
  C  204  1  0.83545100  0.14284100  0.23743600  1
  C  205  1  0.85157200  0.10300800  0.22900200  1
  C  206  1  0.83183200  0.08358300  0.20935800  1
  C  208  1  0.85481600  0.16161400  0.25778900  1
  C  209  1  0.85285400  0.20904300  0.29153600  1
  C  210  1  0.89191200  0.19252000  0.30050400  1
  C  211  1  0.91454300  0.16378000  0.28567700  1
  C  214  1  0.89434100  0.14450500  0.26613600  1
  C  215  1  0.91179800  0.10684300  0.25626300  1
  C  216  1  0.88889300  0.08459200  0.23882600  1
  C  221  1  0.19084200  0.88999100  0.19371800  1
  C  222  1  0.20903300  0.85209300  0.20322100  1
  C  224  1  0.16155100  0.85347800  0.23693200  1
  C  225  1  0.14295800  0.89199400  0.22816300  1
  C  226  1  0.16116800  0.91191400  0.20830300  1
  C  228  1  0.14374600  0.83448900  0.25762000  1
  C  229  1  0.14925800  0.78857500  0.29190600  1
  C  230  1  0.10970400  0.80341000  0.30098700  1
  C  231  1  0.08525100  0.83063400  0.28610500  1
  C  234  1  0.10368500  0.84991800  0.26609700  1
  C  235  1  0.08398600  0.88626600  0.25595900  1
  C  236  1  0.10501800  0.90883000  0.23800500  1
  C  241  1  0.10997300  0.03472400  0.85442100  1
  C  242  1  0.08764900  0.02733900  0.87590100  1
  C  244  1  0.02265400  0.00662400  0.85539100  1
  C  245  1  0.04412500  0.01225500  0.83332800  1
  C  246  1  0.08742600  0.02500000  0.83325300  1
  C  248  1  0.97863500  0.99418500  0.85535100  1
  C  249  1  0.91382100  0.97299500  0.87572000  1
  C  250  1  0.89124000  0.96636700  0.85418900  1
  C  251  1  0.91357400  0.97664900  0.83309400  1
  C  254  1  0.95692900  0.98919900  0.83325400  1
  C  255  1  0.97867300  0.99553400  0.81161300  1
  C  256  1  0.02219200  0.00637500  0.81164900  1
  C  261  1  0.03524200  0.88876300  0.35414000  1
  C  262  1  0.02840600  0.91127600  0.37562600  1
  C  264  1  0.00714800  0.97603800  0.35511400  1
  C  265  1  0.01215600  0.95433200  0.33305700  1
  C  266  1  0.02495300  0.91104200  0.33298100  1
  C  268  1  0.99472100  0.02005800  0.35508000  1
  C  269  1  0.97434300  0.08514200  0.37548100  1
  C  270  1  0.96697100  0.10748900  0.35396100  1
  C  271  1  0.97648000  0.08486900  0.33283500  1
  C  274  1  0.98903700  0.04151700  0.33298100  1
  C  275  1  0.99472100  0.01954600  0.31134000  1
  C  276  1  0.00565300  0.97604700  0.31138100  1
  C  281  1  0.10985400  0.96794600  0.13969200  1
  C  282  1  0.08551000  0.97086400  0.11851300  1
  C  284  1  0.02251800  0.99550900  0.13937200  1
  C  285  1  0.04600800  0.99401000  0.16107500  1
  C  286  1  0.08940400  0.98157200  0.16076800  1
  C  288  1  0.97846300  0.00773500  0.13980000  1
  C  289  1  0.91168800  0.02459200  0.11998100  1
  C  290  1  0.89089800  0.03511700  0.14154000  1
  C  291  1  0.91526500  0.02885200  0.16251800  1
  C  294  1  0.95867300  0.01653100  0.16201500  1
  C  295  1  0.98229800  0.01394800  0.18335400  1
  C  296  1  0.02588600  0.00340700  0.18285100  1
  C  301  1  0.03119800  0.10899000  0.64045400  1
  C  302  1  0.02598500  0.08589600  0.61900700  1
  C  304  1  0.00325200  0.02170800  0.63953000  1
  C  305  1  0.00675700  0.04400600  0.66150800  1
  C  306  1  0.01936200  0.08734600  0.66152600  1
  C  308  1  0.99086800  0.97768100  0.63964000  1
  C  309  1  0.97185400  0.91203800  0.61933700  1
  C  310  1  0.96307900  0.89023800  0.64085200  1
  C  311  1  0.97126700  0.91344300  0.66198300  1
  C  314  1  0.98384200  0.95678500  0.66177000  1
  C  315  1  0.98826100  0.97928700  0.68334800  1
  C  316  1  0.99905300  0.02281400  0.68320200  1
  C  321  1  0.61393100  0.99254700  0.87178300  1
  C  322  1  0.58641100  0.98683800  0.89166500  1
  C  324  1  0.52290800  0.99631000  0.86913300  1
  C  325  1  0.54667700  0.99737900  0.84772000  1
  C  326  1  0.59246200  0.99597500  0.84942500  1
  C  328  1  0.47788800  0.00013100  0.86925800  1
  C  329  1  0.41488700  0.00764000  0.89224600  1
  C  330  1  0.38687900  0.00462300  0.87230600  1
  C  331  1  0.40798000  0.00342400  0.84982100  1
  C  334  1  0.45371700  0.00171000  0.84792800  1
  C  335  1  0.47720200  0.00134100  0.82638000  1
  C  336  1  0.52278700  0.00016400  0.82629400  1
  C  341  1  0.99744100  0.38436000  0.37178800  1
  C  342  1  0.99575500  0.41219600  0.39181200  1
  C  344  1  0.00185700  0.47546600  0.36884100  1
  C  345  1  0.99903500  0.45152500  0.34750700  1
  C  346  1  0.99739900  0.40576400  0.34934100  1
  C  348  1  0.00536300  0.52051800  0.36875700  1
  C  349  1  0.01514900  0.58391600  0.39128300  1
  C  350  1  0.00813200  0.61148800  0.37151000  1
  C  351  1  0.00387100  0.59026500  0.34916500  1
  C  354  1  0.00285500  0.54449800  0.34740800  1
  C  355  1  0.99900000  0.52084300  0.32599100  1
  C  356  1  0.99801500  0.47525700  0.32600900  1
  C  361  1  0.61476400  0.99712600  0.12296200  1
  C  362  1  0.58647400  0.99371300  0.10312500  1
  C  364  1  0.52361300  0.99159700  0.12659600  1
  C  365  1  0.54791000  0.99892900  0.14749900  1
  C  366  1  0.59358900  0.00093000  0.14536000  1
  C  368  1  0.47853300  0.98840900  0.12704300  1
  C  369  1  0.41447900  0.97598100  0.10536500  1
  C  370  1  0.38763100  0.98750300  0.12471000  1
  C  371  1  0.40921000  0.99530900  0.14665000  1
  C  374  1  0.45500100  0.99557900  0.14818800  1
  C  375  1  0.47904500  0.00345800  0.16915800  1
  C  376  1  0.52461400  0.00424100  0.16890500  1
  C  381  1  0.99505800  0.61335700  0.62315700  1
  C  382  1  0.99182800  0.58560400  0.60316200  1
  C  384  1  0.99922500  0.52231600  0.62603200  1
  C  385  1  0.99785700  0.54624400  0.64740800  1
  C  386  1  0.99628900  0.59200700  0.64560500  1
  C  388  1  0.00291700  0.47728200  0.62606900  1
  C  389  1  0.01207100  0.41400600  0.60341600  1
  C  390  1  0.00651300  0.38629000  0.62326400  1
  C  391  1  0.00331300  0.40751600  0.64566000  1
  C  394  1  0.00197300  0.45328000  0.64744200  1
  C  395  1  0.99940700  0.47692600  0.66891400  1
  C  396  1  0.99830300  0.52251100  0.66891200  1
  C  401  1  0.71681500  0.00177700  0.06005300  1
  C  402  1  0.67941500  0.00331000  0.04568300  1
  C  404  1  0.71941300  0.99829400  0.01000000  1
  C  405  1  0.75862600  0.99884700  0.02279500  1
  C  406  1  0.75666100  0.99939800  0.04792800  1
  C  408  1  0.71921200  0.99616000  0.98506200  1
  C  409  1  0.67880900  0.98924500  0.94949400  1
  C  410  1  0.71577900  0.99276700  0.93499800  1
  C  411  1  0.75568000  0.99717800  0.94701800  1
  C  414  1  0.75813800  0.99768000  0.97214200  1
  C  415  1  0.79726600  0.99947100  0.98486500  1
  C  416  1  0.79753400  0.99901900  0.00994200  1
  C  421  1  0.28755400  0.99359700  0.06070000  1
  C  422  1  0.32448400  0.99059900  0.04612700  1
  C  424  1  0.28399900  0.99888000  0.01064500  1
  C  425  1  0.24512700  0.00000400  0.02361400  1
  C  426  1  0.24768500  0.99878400  0.04871900  1
  C  428  1  0.28365000  0.00163600  0.98572000  1
  C  429  1  0.32336700  0.00764500  0.94998600  1
  C  430  1  0.28594000  0.00587800  0.93563400  1
  C  431  1  0.24620800  0.00293100  0.94785300  1
  C  434  1  0.24437700  0.00212900  0.97298600  1
  C  435  1  0.20552700  0.00192500  0.98589300  1
  C  436  1  0.20592200  0.00197500  0.01096800  1
  C  441  1  0.00582300  0.28464500  0.55998700  1
  C  442  1  0.00879000  0.32158600  0.54537100  1
  C  444  1  0.00193800  0.28093400  0.50993200  1
  C  445  1  0.00093000  0.24206100  0.52297500  1
  C  446  1  0.00159800  0.24465900  0.54808800  1
  C  448  1  0.99966400  0.28055900  0.48499400  1
  C  449  1  0.99395600  0.32027400  0.44918000  1
  C  450  1  0.99599900  0.28285600  0.43490200  1
  C  451  1  0.99899500  0.24312400  0.44718300  1
  C  454  1  0.99958300  0.24128200  0.47232400  1
  C  455  1  0.99990300  0.20244800  0.48530800  1
  C  456  1  0.99950200  0.20284500  0.51038500  1
  C  461  1  0.99467300  0.71462000  0.55992500  1
  C  462  1  0.99271200  0.67721500  0.54562500  1
  C  464  1  0.99880300  0.71693500  0.50984900  1
  C  465  1  0.99859600  0.75620500  0.52252100  1
  C  466  1  0.99779400  0.75435400  0.54765800  1
  C  468  1  0.00135400  0.71656500  0.48492500  1
  C  469  1  0.00872300  0.67593300  0.44953200  1
  C  470  1  0.00584800  0.71286700  0.43489500  1
  C  471  1  0.00138300  0.75284000  0.44677300  1
  C  474  1  0.00044400  0.75543600  0.47187800  1
  C  475  1  0.99887200  0.79465100  0.48446300  1
  C  476  1  0.99901100  0.79504600  0.50954000  1
  N  163  1  0.83487900  0.80409500  0.72407800  1
  N  173  1  0.80432900  0.83610100  0.77038400  1
  N  183  1  0.16239900  0.19472700  0.72470900  1
  N  193  1  0.19484300  0.16395600  0.77100600  1
  N  203  1  0.80376100  0.16234700  0.22458300  1
  N  213  1  0.83634100  0.19383300  0.27063300  1
  N  223  1  0.19445700  0.83579500  0.22428800  1
  N  233  1  0.16429900  0.80380700  0.27071300  1
  N  243  1  0.04577700  0.01408700  0.87563400  1
  N  253  1  0.95571700  0.98617200  0.87554200  1
  N  263  1  0.01518400  0.95315000  0.37535600  1
  N  273  1  0.98742100  0.04321400  0.37528300  1
  N  283  1  0.04369400  0.98418100  0.11909400  1
  N  293  1  0.95370600  0.01183100  0.11985800  1
  N  303  1  0.01270600  0.04404100  0.61930700  1
  N  313  1  0.98487200  0.95398500  0.61948100  1
  N  323  1  0.54354800  0.99013900  0.88994300  1
  N  333  1  0.45767900  0.00413200  0.89028700  1
  N  343  1  0.99912800  0.45500500  0.38988100  1
  N  353  1  0.01230500  0.54101800  0.38952000  1
  N  363  1  0.54373800  0.99020000  0.10545600  1
  N  373  1  0.45748500  0.97811400  0.10684000  1
  N  383  1  0.99518500  0.54277900  0.60503800  1
  N  393  1  0.00886800  0.45686000  0.60521700  1
  N  403  1  0.68177600  0.00084300  0.02182300  1
  N  413  1  0.68152300  0.99173000  0.97335100  1
  N  423  1  0.32170500  0.99398600  0.02229300  1
  N  433  1  0.32118300  0.00472700  0.97384000  1
  N  443  1  0.00608500  0.31872600  0.52152200  1
  N  453  1  0.99654900  0.31808400  0.47304700  1
  N  463  1  0.99554600  0.67941200  0.52177400  1
  N  473  1  0.00571800  0.67878500  0.47336200  1
  O  17  1  0.72808300  0.90928600  0.82658000  1
  O  18  1  0.77264400  0.94406900  0.90559700  1
  O  37  1  0.27370300  0.09062800  0.82744900  1
  O  38  1  0.22941800  0.05600600  0.90632400  1
  O  57  1  0.91110000  0.27110800  0.32655100  1
  O  58  1  0.94568500  0.22662500  0.40560000  1
  O  77  1  0.09183800  0.72523100  0.32719900  1
  O  78  1  0.05539600  0.76971900  0.40589800  1
  O  97  1  0.72555900  0.08669000  0.16832400  1
  O  98  1  0.77166500  0.05338900  0.08943300  1
  O  117  1  0.27071600  0.90742800  0.16854100  1
  O  118  1  0.22942300  0.94479300  0.08931900  1
  O  137  1  0.90884500  0.72587800  0.66779600  1
  O  138  1  0.94423700  0.77097700  0.58892300  1
  O  157  1  0.08960400  0.27121800  0.66856600  1
  O  158  1  0.05507600  0.22795000  0.58941200  1
