# generated using pymatgen
data_NdH3C9(NO2)3
_symmetry_space_group_name_H-M   'P 1'
_cell_length_a   4.14147000
_cell_length_b   12.21642000
_cell_length_c   14.28641765
_cell_angle_alpha   114.97818660
_cell_angle_beta   90.36218720
_cell_angle_gamma   94.04679000
_symmetry_Int_Tables_number   1
_chemical_formula_structural   NdH3C9(NO2)3
_chemical_formula_sum   'Nd2 H6 C18 N6 O12'
_cell_volume   653.04576896
_cell_formula_units_Z   2
loop_
 _symmetry_equiv_pos_site_id
 _symmetry_equiv_pos_as_xyz
  1  'x, y, z'
loop_
 _atom_site_type_symbol
 _atom_site_label
 _atom_site_symmetry_multiplicity
 _atom_site_fract_x
 _atom_site_fract_y
 _atom_site_fract_z
 _atom_site_occupancy
  Nd  Nd1  1  0.55218000  0.65448000  0.30302000  1.0
  Nd  Nd2  1  0.43514000  0.34592000  0.69487000  1.0
  H  H1  1  0.12623000  0.41316000  0.34814000  1.0
  H  H2  1  0.90036000  0.67043000  0.08309000  1.0
  H  H3  1  0.90850000  0.89025000  0.53434000  1.0
  H  H4  1  0.85932000  0.58738000  0.65085000  1.0
  H  H5  1  0.09080000  0.33224000  0.91552000  1.0
  H  H6  1  0.08300000  0.11029000  0.46100000  1.0
  C  C1  1  0.73785000  0.58003000  0.50063000  1.0
  C  C2  1  0.29709000  0.45080000  0.41459000  1.0
  C  C3  1  0.28071000  0.47678000  0.05974000  1.0
  C  C4  1  0.71565000  0.59554000  0.04624000  1.0
  C  C5  1  0.30859000  0.94191000  0.41124000  1.0
  C  C6  1  0.72588000  0.93890000  0.51627000  1.0
  C  C7  1  0.02574000  0.66213000  0.50102000  1.0
  C  C8  1  0.02063000  0.45319000  0.12268000  1.0
  C  C9  1  0.06826000  0.87807000  0.32346000  1.0
  C  C10  1  0.25012000  0.41959000  0.49813000  1.0
  C  C11  1  0.68993000  0.54906000  0.58417000  1.0
  C  C12  1  0.71142000  0.52505000  0.93884000  1.0
  C  C13  1  0.27638000  0.40660000  0.95247000  1.0
  C  C14  1  0.68148000  0.05899000  0.58523000  1.0
  C  C15  1  0.26512000  0.06210000  0.47996000  1.0
  C  C16  1  0.96185000  0.33848000  0.49860000  1.0
  C  C17  1  0.97217000  0.54782000  0.87577000  1.0
  C  C18  1  0.91879000  0.12326000  0.67364000  1.0
  N  N1  1  0.53557000  0.53097000  0.41626000  1.0
  N  N2  1  0.50201000  0.57129000  0.10573000  1.0
  N  N3  1  0.53203000  0.88002000  0.43120000  1.0
  N  N4  1  0.45172000  0.46885000  0.58255000  1.0
  N  N5  1  0.49049000  0.43045000  0.89294000  1.0
  N  N6  1  0.45730000  0.12080000  0.56536000  1.0
  O  O1  1  0.04110000  0.67624000  0.41483000  1.0
  O  O2  1  0.04672000  0.52798000  0.22159000  1.0
  O  O3  1  0.07979000  0.76001000  0.27526000  1.0
  O  O4  1  0.85611000  0.93696000  0.31012000  1.0
  O  O5  1  0.22798000  0.70278000  0.57367000  1.0
  O  O6  1  0.79542000  0.37591000  0.07955000  1.0
  O  O7  1  0.94455000  0.32493000  0.58489000  1.0
  O  O8  1  0.94862000  0.47253000  0.77702000  1.0
  O  O9  1  0.90188000  0.24064000  0.72320000  1.0
  O  O10  1  0.13586000  0.06522000  0.68627000  1.0
  O  O11  1  0.75859000  0.29790000  0.42593000  1.0
  O  O12  1  0.19773000  0.62507000  0.91937000  1.0
