# generated using pymatgen
data_EuH5C7SO6
_symmetry_space_group_name_H-M   'P 1'
_cell_length_a   8.53197000
_cell_length_b   17.50225000
_cell_length_c   17.50225000
_cell_angle_alpha   90.00229000
_cell_angle_beta   90.00137000
_cell_angle_gamma   89.99771000
_symmetry_Int_Tables_number   1
_chemical_formula_structural   EuH5C7SO6
_chemical_formula_sum   'Eu8 H40 C56 S8 O48'
_cell_volume   2613.58774341
_cell_formula_units_Z   8
loop_
 _symmetry_equiv_pos_site_id
 _symmetry_equiv_pos_as_xyz
  1  'x, y, z'
loop_
 _atom_site_type_symbol
 _atom_site_label
 _atom_site_symmetry_multiplicity
 _atom_site_fract_x
 _atom_site_fract_y
 _atom_site_fract_z
 _atom_site_occupancy
  Eu  Eu0  1  0.84969000  0.96434000  0.89154000  1
  Eu  Eu1  1  0.84961000  0.03565000  0.10843000  1
  Eu  Eu2  1  0.15035000  0.10840000  0.96436000  1
  Eu  Eu3  1  0.15046000  0.89157000  0.03565000  1
  Eu  Eu4  1  0.65042000  0.53561000  0.39161000  1
  Eu  Eu5  1  0.65030000  0.46435000  0.60842000  1
  Eu  Eu6  1  0.34954000  0.39156000  0.46434000  1
  Eu  Eu7  1  0.34960000  0.60845000  0.53562000  1
  H  H8  1  0.56844000  0.24249000  0.75638000  1
  H  H9  1  0.31830000  0.17006000  0.55534000  1
  H  H10  1  0.24856000  0.04680000  0.61964000  1
  H  H11  1  0.34606000  0.02086000  0.75161000  1
  H  H12  1  0.80112000  0.11627000  0.95986000  1
  H  H13  1  0.56846000  0.75754000  0.24359000  1
  H  H14  1  0.31836000  0.82990000  0.44467000  1
  H  H15  1  0.24853000  0.95317000  0.38040000  1
  H  H16  1  0.34605000  0.97915000  0.24843000  1
  H  H17  1  0.80105000  0.88373000  0.04010000  1
  H  H18  1  0.43156000  0.24357000  0.24246000  1
  H  H19  1  0.68168000  0.44463000  0.17007000  1
  H  H20  1  0.75142000  0.38035000  0.04681000  1
  H  H21  1  0.65393000  0.24839000  0.02083000  1
  H  H22  1  0.19883000  0.04012000  0.11627000  1
  H  H23  1  0.43154000  0.75642000  0.75753000  1
  H  H24  1  0.68163000  0.55534000  0.82992000  1
  H  H25  1  0.75144000  0.61962000  0.95316000  1
  H  H26  1  0.65393000  0.75159000  0.97915000  1
  H  H27  1  0.19891000  0.95994000  0.88371000  1
  H  H28  1  0.93158000  0.25757000  0.25642000  1
  H  H29  1  0.18166000  0.32993000  0.05534000  1
  H  H30  1  0.25145000  0.45320000  0.11961000  1
  H  H31  1  0.15396000  0.47919000  0.25158000  1
  H  H32  1  0.69900000  0.38378000  0.45987000  1
  H  H33  1  0.93156000  0.74246000  0.74358000  1
  H  H34  1  0.18166000  0.67005000  0.94467000  1
  H  H35  1  0.25145000  0.54681000  0.88038000  1
  H  H36  1  0.15396000  0.52085000  0.74842000  1
  H  H37  1  0.69892000  0.61628000  0.54013000  1
  H  H38  1  0.06844000  0.25644000  0.74243000  1
  H  H39  1  0.81836000  0.05534000  0.67007000  1
  H  H40  1  0.74851000  0.11960000  0.54682000  1
  H  H41  1  0.84601000  0.25156000  0.52082000  1
  H  H42  1  0.30109000  0.45998000  0.61630000  1
  H  H43  1  0.06849000  0.74362000  0.25752000  1
  H  H44  1  0.81830000  0.94466000  0.32993000  1
  H  H45  1  0.74856000  0.88036000  0.45317000  1
  H  H46  1  0.84610000  0.74840000  0.47915000  1
  H  H47  1  0.30100000  0.54008000  0.38372000  1
  C  C48  1  0.46142000  0.13068000  0.76068000  1
  C  C49  1  0.50028000  0.19974000  0.72584000  1
  C  C50  1  0.44934000  0.21289000  0.65072000  1
  C  C51  1  0.48961000  0.28538000  0.60986000  1
  C  C52  1  0.35863000  0.15773000  0.61294000  1
  C  C53  1  0.32013000  0.08902000  0.64895000  1
  C  C54  1  0.37287000  0.07455000  0.72297000  1
  C  C55  1  0.46134000  0.86933000  0.23933000  1
  C  C56  1  0.50031000  0.80027000  0.27415000  1
  C  C57  1  0.44941000  0.78711000  0.34927000  1
  C  C58  1  0.48968000  0.71462000  0.39011000  1
  C  C59  1  0.35864000  0.84224000  0.38707000  1
  C  C60  1  0.32008000  0.91096000  0.35107000  1
  C  C61  1  0.37279000  0.92544000  0.27705000  1
  C  C62  1  0.53856000  0.23930000  0.13065000  1
  C  C63  1  0.49968000  0.27412000  0.19972000  1
  C  C64  1  0.55062000  0.34924000  0.21288000  1
  C  C65  1  0.51033000  0.39011000  0.28537000  1
  C  C66  1  0.64136000  0.38703000  0.15774000  1
  C  C67  1  0.67988000  0.35102000  0.08902000  1
  C  C68  1  0.62712000  0.27701000  0.07453000  1
  C  C69  1  0.53856000  0.76068000  0.86933000  1
  C  C70  1  0.49963000  0.72585000  0.80028000  1
  C  C71  1  0.55055000  0.65073000  0.78712000  1
  C  C72  1  0.51038000  0.60988000  0.71461000  1
  C  C73  1  0.64133000  0.61294000  0.84225000  1
  C  C74  1  0.67987000  0.64895000  0.91096000  1
  C  C75  1  0.62713000  0.72297000  0.92545000  1
  C  C76  1  0.03863000  0.36936000  0.26067000  1
  C  C77  1  0.99973000  0.30029000  0.22585000  1
  C  C78  1  0.05066000  0.28713000  0.15074000  1
  C  C79  1  0.01044000  0.21462000  0.10988000  1
  C  C80  1  0.14140000  0.34227000  0.11295000  1
  C  C81  1  0.17991000  0.41099000  0.14894000  1
  C  C82  1  0.12719000  0.42548000  0.22296000  1
  C  C83  1  0.03860000  0.63066000  0.73933000  1
  C  C84  1  0.99968000  0.69973000  0.77416000  1
  C  C85  1  0.05062000  0.71287000  0.84928000  1
  C  C86  1  0.01058000  0.78539000  0.89014000  1
  C  C87  1  0.14134000  0.65772000  0.88708000  1
  C  C88  1  0.17989000  0.58902000  0.85106000  1
  C  C89  1  0.12716000  0.57455000  0.77704000  1
  C  C90  1  0.96138000  0.26067000  0.63064000  1
  C  C91  1  0.00032000  0.22586000  0.69970000  1
  C  C92  1  0.94939000  0.15074000  0.71286000  1
  C  C93  1  0.98947000  0.10990000  0.78538000  1
  C  C94  1  0.85865000  0.11293000  0.65772000  1
  C  C95  1  0.82009000  0.14893000  0.58901000  1
  C  C96  1  0.87282000  0.22295000  0.57452000  1
  C  C97  1  0.96143000  0.73931000  0.36933000  1
  C  C98  1  0.00035000  0.77415000  0.30028000  1
  C  C99  1  0.94944000  0.84928000  0.28711000  1
  C  C100  1  0.98969000  0.89013000  0.21461000  1
  C  C101  1  0.85867000  0.88707000  0.34225000  1
  C  C102  1  0.82015000  0.85105000  0.41096000  1
  C  C103  1  0.87287000  0.77703000  0.42545000  1
  S  S104  1  0.52550000  0.11027000  0.85491000  1
  S  S105  1  0.52556000  0.88986000  0.14516000  1
  S  S106  1  0.47448000  0.14508000  0.11025000  1
  S  S107  1  0.47453000  0.85491000  0.88978000  1
  S  S108  1  0.97443000  0.38984000  0.35485000  1
  S  S109  1  0.97451000  0.61019000  0.64512000  1
  S  S110  1  0.02551000  0.35487000  0.61016000  1
  S  S111  1  0.02544000  0.64507000  0.38979000  1
  O  O112  1  0.64367000  0.04857000  0.84456000  1
  O  O113  1  0.38339000  0.07955000  0.89396000  1
  O  O114  1  0.58915000  0.17960000  0.89010000  1
  O  O115  1  0.54875000  0.34053000  0.64773000  1
  O  O116  1  0.46108000  0.28794000  0.53819000  1
  O  O117  1  0.87443000  0.07579000  0.97395000  1
  O  O118  1  0.64362000  0.95160000  0.15559000  1
  O  O119  1  0.38347000  0.92051000  0.10606000  1
  O  O120  1  0.58939000  0.82063000  0.10988000  1
  O  O121  1  0.54905000  0.65948000  0.35230000  1
  O  O122  1  0.46093000  0.71205000  0.46176000  1
  O  O123  1  0.87446000  0.92419000  0.02611000  1
  O  O124  1  0.35634000  0.15545000  0.04853000  1
  O  O125  1  0.61661000  0.10604000  0.07957000  1
  O  O126  1  0.41074000  0.10989000  0.17955000  1
  O  O127  1  0.45105000  0.35227000  0.34050000  1
  O  O128  1  0.53896000  0.46177000  0.28795000  1
  O  O129  1  0.12551000  0.02607000  0.07579000  1
  O  O130  1  0.35635000  0.84454000  0.95149000  1
  O  O131  1  0.61667000  0.89394000  0.92045000  1
  O  O132  1  0.41078000  0.89012000  0.82049000  1
  O  O133  1  0.45113000  0.64771000  0.65947000  1
  O  O134  1  0.53905000  0.53822000  0.71204000  1
  O  O135  1  0.12543000  0.97391000  0.92415000  1
  O  O136  1  0.85633000  0.45157000  0.34442000  1
  O  O137  1  0.11651000  0.42050000  0.39394000  1
  O  O138  1  0.91054000  0.32064000  0.39013000  1
  O  O139  1  0.95130000  0.15946000  0.14774000  1
  O  O140  1  0.03898000  0.21205000  0.03822000  1
  O  O141  1  0.62551000  0.42421000  0.47389000  1
  O  O142  1  0.85638000  0.54848000  0.65550000  1
  O  O143  1  0.11665000  0.57954000  0.60606000  1
  O  O144  1  0.91071000  0.67945000  0.60989000  1
  O  O145  1  0.95152000  0.84057000  0.85228000  1
  O  O146  1  0.03908000  0.78794000  0.96181000  1
  O  O147  1  0.62551000  0.57583000  0.52610000  1
  O  O148  1  0.14359000  0.34445000  0.54841000  1
  O  O149  1  0.88337000  0.39395000  0.57955000  1
  O  O150  1  0.08946000  0.39013000  0.67937000  1
  O  O151  1  0.04856000  0.14774000  0.84057000  1
  O  O152  1  0.96094000  0.03823000  0.78792000  1
  O  O153  1  0.37447000  0.47391000  0.57580000  1
  O  O154  1  0.14361000  0.65542000  0.45150000  1
  O  O155  1  0.88332000  0.60603000  0.42050000  1
  O  O156  1  0.08907000  0.60988000  0.32046000  1
  O  O157  1  0.04900000  0.85229000  0.15949000  1
  O  O158  1  0.96097000  0.96178000  0.21204000  1
  O  O159  1  0.37442000  0.52607000  0.42418000  1
