# generated using pymatgen
data_ZnH6C4N3
_symmetry_space_group_name_H-M   'P 1'
_cell_length_a   9.53639000
_cell_length_b   11.98785011
_cell_length_c   12.08619000
_cell_angle_alpha   112.72574221
_cell_angle_beta   104.85809000
_cell_angle_gamma   105.03370690
_symmetry_Int_Tables_number   1
_chemical_formula_structural   ZnH6C4N3
_chemical_formula_sum   'Zn6 H36 C24 N18'
_cell_volume   1127.87042534
_cell_formula_units_Z   6
loop_
 _symmetry_equiv_pos_site_id
 _symmetry_equiv_pos_as_xyz
  1  'x, y, z'
loop_
 _atom_site_type_symbol
 _atom_site_label
 _atom_site_symmetry_multiplicity
 _atom_site_fract_x
 _atom_site_fract_y
 _atom_site_fract_z
 _atom_site_occupancy
  Zn  Zn0  1  0.71422000  0.02711000  0.52082000  1
  Zn  Zn1  1  0.68120000  0.48604000  0.96444000  1
  Zn  Zn2  1  0.19125000  0.48151000  0.51561000  1
  Zn  Zn3  1  0.28575000  0.97292000  0.47917000  1
  Zn  Zn4  1  0.31858000  0.51384000  0.03548000  1
  Zn  Zn5  1  0.80877000  0.51853000  0.48449000  1
  H  H6  1  0.27138000  0.07699000  0.74068000  1
  H  H7  1  0.41253000  0.17215000  0.90684000  1
  H  H8  1  0.33050000  0.25217000  0.82919000  1
  H  H9  1  0.93718000  0.30040000  0.72073000  1
  H  H10  1  0.90197000  0.44436000  0.79794000  1
  H  H11  1  0.97583000  0.37211000  0.89034000  1
  H  H12  1  0.19858000  0.67137000  0.92411000  1
  H  H13  1  0.24563000  0.73939000  0.82393000  1
  H  H14  1  0.08343000  0.58632000  0.75129000  1
  H  H15  1  0.62955000  0.41324000  0.69187000  1
  H  H16  1  0.44927000  0.34471000  0.55305000  1
  H  H17  1  0.59223000  0.50630000  0.61265000  1
  H  H18  1  0.53637000  0.25949000  0.33462000  1
  H  H19  1  0.51560000  0.09198000  0.26062000  1
  H  H20  1  0.50174000  0.16202000  0.41342000  1
  H  H21  1  0.21305000  0.28104000  0.61062000  1
  H  H22  1  0.07355000  0.16283000  0.62680000  1
  H  H23  1  0.10769000  0.11555000  0.48080000  1
  H  H24  1  0.72870000  0.92307000  0.25932000  1
  H  H25  1  0.58747000  0.82789000  0.09317000  1
  H  H26  1  0.66959000  0.74789000  0.17081000  1
  H  H27  1  0.06288000  0.69971000  0.27925000  1
  H  H28  1  0.09803000  0.55570000  0.20204000  1
  H  H29  1  0.02434000  0.62800000  0.10964000  1
  H  H30  1  0.80146000  0.32861000  0.07581000  1
  H  H31  1  0.75435000  0.26060000  0.17600000  1
  H  H32  1  0.91663000  0.41362000  0.24862000  1
  H  H33  1  0.37039000  0.58663000  0.30799000  1
  H  H34  1  0.55065000  0.65524000  0.44685000  1
  H  H35  1  0.40785000  0.49361000  0.38724000  1
  H  H36  1  0.46369000  0.74048000  0.66540000  1
  H  H37  1  0.48441000  0.90797000  0.73938000  1
  H  H38  1  0.49836000  0.83798000  0.58664000  1
  H  H39  1  0.78701000  0.71893000  0.38942000  1
  H  H40  1  0.92649000  0.83718000  0.37324000  1
  H  H41  1  0.89242000  0.88441000  0.51927000  1
  C  C42  1  0.37130000  0.17153000  0.81295000  1
  C  C43  1  0.50167000  0.19010000  0.76694000  1
  C  C44  1  0.72840000  0.26512000  0.75824000  1
  C  C45  1  0.89416000  0.34949000  0.79349000  1
  C  C46  1  0.20382000  0.64752000  0.82850000  1
  C  C47  1  0.31252000  0.57943000  0.80909000  1
  C  C48  1  0.45891000  0.48982000  0.72998000  1
  C  C49  1  0.53624000  0.43585000  0.64255000  1
  C  C50  1  0.56331000  0.18363000  0.35389000  1
  C  C51  1  0.73739000  0.22869000  0.42056000  1
  C  C52  1  0.97007000  0.23547000  0.50787000  1
  C  C53  1  0.09759000  0.19760000  0.55898000  1
  C  C54  1  0.62877000  0.82852000  0.18706000  1
  C  C55  1  0.49844000  0.80991000  0.23310000  1
  C  C56  1  0.27173000  0.73492000  0.24181000  1
  C  C57  1  0.10591000  0.65059000  0.20651000  1
  C  C58  1  0.79621000  0.35246000  0.17142000  1
  C  C59  1  0.68758000  0.42062000  0.19089000  1
  C  C60  1  0.54117000  0.51019000  0.26995000  1
  C  C61  1  0.46374000  0.56408000  0.35734000  1
  C  C62  1  0.43675000  0.81633000  0.64612000  1
  C  C63  1  0.26267000  0.77124000  0.57937000  1
  C  C64  1  0.03001000  0.76447000  0.49209000  1
  C  C65  1  0.90246000  0.80237000  0.44105000  1
  N  N66  1  0.63557000  0.15528000  0.64295000  1
  N  N67  1  0.49005000  0.10770000  0.64904000  1
  N  N68  1  0.64923000  0.29045000  0.83832000  1
  N  N69  1  0.47958000  0.48845000  0.84363000  1
  N  N70  1  0.38504000  0.54574000  0.89385000  1
  N  N71  1  0.35517000  0.54563000  0.70488000  1
  N  N72  1  0.99266000  0.35339000  0.51314000  1
  N  N73  1  0.84258000  0.34814000  0.45678000  1
  N  N74  1  0.81236000  0.15522000  0.45108000  1
  N  N75  1  0.36462000  0.84461000  0.35720000  1
  N  N76  1  0.51014000  0.89218000  0.35111000  1
  N  N77  1  0.35082000  0.70966000  0.16166000  1
  N  N78  1  0.52074000  0.51185000  0.15646000  1
  N  N79  1  0.61531000  0.45458000  0.10626000  1
  N  N80  1  0.64477000  0.45423000  0.29499000  1
  N  N81  1  0.00740000  0.64645000  0.48656000  1
  N  N82  1  0.15747000  0.65169000  0.54290000  1
  N  N83  1  0.18770000  0.84477000  0.54902000  1
