# generated using pymatgen
data_Cu2H24C25(NO)4
_symmetry_space_group_name_H-M   'P 1'
_cell_length_a   9.57510000
_cell_length_b   17.01241224
_cell_length_c   17.01596154
_cell_angle_alpha   85.54892522
_cell_angle_beta   73.86674410
_cell_angle_gamma   73.88059053
_symmetry_Int_Tables_number   1
_chemical_formula_structural   Cu2H24C25(NO)4
_chemical_formula_sum   'Cu4 H48 C50 N8 O8'
_cell_volume   2557.98193170
_cell_formula_units_Z   2
loop_
 _symmetry_equiv_pos_site_id
 _symmetry_equiv_pos_as_xyz
  1  'x, y, z'
loop_
 _atom_site_type_symbol
 _atom_site_label
 _atom_site_symmetry_multiplicity
 _atom_site_fract_x
 _atom_site_fract_y
 _atom_site_fract_z
 _atom_site_occupancy
  Cu  Cu0  1  0.50000000  0.50000000  0.50000000  1
  Cu  Cu1  1  0.50000000  0.00000000  0.00000000  1
  Cu  Cu2  1  0.00000000  0.50000000  0.00000000  1
  Cu  Cu3  1  0.50000000  0.00000000  0.50000000  1
  H  H4  1  0.20408000  0.53446000  0.61231000  1
  H  H5  1  0.02563000  0.45408000  0.67877000  1
  H  H6  1  0.37057000  0.23541000  0.57585000  1
  H  H7  1  0.53733000  0.32397000  0.51151000  1
  H  H8  1  0.96736000  0.34868000  0.76848000  1
  H  H9  1  0.87360000  0.36745000  0.68854000  1
  H  H10  1  0.34897000  0.96589000  0.88659000  1
  H  H11  1  0.15634000  0.04711000  0.82091000  1
  H  H12  1  0.18475000  0.26483000  0.92590000  1
  H  H13  1  0.37534000  0.17521000  0.98925000  1
  H  H14  1  0.07997000  0.15244000  0.73243000  1
  H  H15  1  0.92549000  0.13464000  0.81272000  1
  H  H16  1  0.73665000  0.61258000  0.96535000  1
  H  H17  1  0.47934000  0.67896000  0.04589000  1
  H  H18  1  0.60912000  0.57516000  0.26434000  1
  H  H19  1  0.86253000  0.51097000  0.17561000  1
  H  H20  1  0.31425000  0.76737000  0.15114000  1
  H  H21  1  0.24057000  0.68654000  0.13308000  1
  H  H22  1  0.31634000  0.88702000  0.53400000  1
  H  H23  1  0.20405000  0.82095000  0.45288000  1
  H  H24  1  0.44811000  0.92515000  0.23496000  1
  H  H25  1  0.55033000  0.98899000  0.32446000  1
  H  H26  1  0.23553000  0.73145000  0.34764000  1
  H  H27  1  0.06226000  0.81096000  0.36570000  1
  H  H28  1  0.79592000  0.46554000  0.38769000  1
  H  H29  1  0.97437000  0.54592000  0.32123000  1
  H  H30  1  0.62943000  0.76459000  0.42415000  1
  H  H31  1  0.46266000  0.67603000  0.48849000  1
  H  H32  1  0.03264000  0.65131000  0.23152000  1
  H  H33  1  0.12640000  0.63254000  0.31146000  1
  H  H34  1  0.65103000  0.03410000  0.11341000  1
  H  H35  1  0.84366000  0.95288000  0.17909000  1
  H  H36  1  0.81525000  0.73517000  0.07410000  1
  H  H37  1  0.62465000  0.82479000  0.01075000  1
  H  H38  1  0.92003000  0.84756000  0.26757000  1
  H  H39  1  0.07452000  0.86535000  0.18727000  1
  H  H40  1  0.26335000  0.38741000  0.03465000  1
  H  H41  1  0.52066000  0.32103000  0.95411000  1
  H  H42  1  0.39088000  0.42484000  0.73566000  1
  H  H43  1  0.13747000  0.48902000  0.82439000  1
  H  H44  1  0.68576000  0.23262000  0.84886000  1
  H  H45  1  0.75944000  0.31345000  0.86692000  1
  H  H46  1  0.68366000  0.11297000  0.46600000  1
  H  H47  1  0.79596000  0.17904000  0.54712000  1
  H  H48  1  0.55189000  0.07484000  0.76504000  1
  H  H49  1  0.44967000  0.01101000  0.67554000  1
  H  H50  1  0.76447000  0.26855000  0.65236000  1
  H  H51  1  0.93773000  0.18904000  0.63430000  1
  C  C52  1  0.23625000  0.46854000  0.60482000  1
  C  C53  1  0.13683000  0.42274000  0.64195000  1
  C  C54  1  0.18105000  0.33752000  0.63060000  1
  C  C55  1  0.32982000  0.30141000  0.58367000  1
  C  C56  1  0.42309000  0.35038000  0.54828000  1
  C  C57  1  0.94790000  0.32057000  0.71783000  1
  C  C58  1  0.30867000  0.03172000  0.89473000  1
  C  C59  1  0.20042000  0.07799000  0.85805000  1
  C  C60  1  0.14931000  0.16312000  0.87008000  1
  C  C61  1  0.21623000  0.19891000  0.91731000  1
  C  C62  1  0.32307000  0.14941000  0.95221000  1
  C  C63  1  0.98376000  0.18099000  0.78343000  1
  C  C64  1  0.70418000  0.60486000  0.03123000  1
  C  C65  1  0.55959000  0.64194000  0.07715000  1
  C  C66  1  0.51974000  0.63025000  0.16235000  1
  C  C67  1  0.63306000  0.58327000  0.19836000  1
  C  C68  1  0.77448000  0.54795000  0.14924000  1
  C  C69  1  0.26854000  0.71629000  0.17966000  1
  C  C70  1  0.34139000  0.89474000  0.46810000  1
  C  C71  1  0.27901000  0.85787000  0.42192000  1
  C  C72  1  0.31241000  0.86960000  0.33678000  1
  C  C73  1  0.41464000  0.91681000  0.30090000  1
  C  C74  1  0.47254000  0.95192000  0.35026000  1
  C  C75  1  0.16630000  0.78196000  0.31924000  1
  C  C76  1  0.76374000  0.53146000  0.39518000  1
  C  C77  1  0.86316000  0.57726000  0.35805000  1
  C  C78  1  0.81895000  0.66247000  0.36940000  1
  C  C79  1  0.67018000  0.69859000  0.41633000  1
  C  C80  1  0.57691000  0.64961000  0.45172000  1
  C  C81  1  0.05210000  0.67942000  0.28217000  1
  C  C82  1  0.69132000  0.96828000  0.10527000  1
  C  C83  1  0.79958000  0.92200000  0.14195000  1
  C  C84  1  0.85070000  0.83687000  0.12992000  1
  C  C85  1  0.78377000  0.80108000  0.08269000  1
  C  C86  1  0.67692000  0.85059000  0.04779000  1
  C  C87  1  0.01624000  0.81900000  0.21657000  1
  C  C88  1  0.29582000  0.39514000  0.96877000  1
  C  C89  1  0.44040000  0.35806000  0.92285000  1
  C  C90  1  0.48027000  0.36974000  0.83765000  1
  C  C91  1  0.36694000  0.41673000  0.80164000  1
  C  C92  1  0.22552000  0.45204000  0.85076000  1
  C  C93  1  0.73145000  0.28371000  0.82034000  1
  C  C94  1  0.65860000  0.10526000  0.53190000  1
  C  C95  1  0.72099000  0.14212000  0.57808000  1
  C  C96  1  0.68760000  0.13039000  0.66322000  1
  C  C97  1  0.58536000  0.08318000  0.69910000  1
  C  C98  1  0.52746000  0.04807000  0.64974000  1
  C  C99  1  0.83370000  0.21803000  0.68076000  1
  C  C100  1  0.87403000  0.25101000  0.75068000  1
  C  C101  1  0.12597000  0.74899000  0.24932000  1
  N  N102  1  0.37974000  0.43462000  0.55583000  1
  N  N103  1  0.37034000  0.06522000  0.94402000  1
  N  N104  1  0.81430000  0.55565000  0.06499000  1
  N  N105  1  0.43629000  0.94389000  0.43443000  1
  N  N106  1  0.62027000  0.56537000  0.44416000  1
  N  N107  1  0.62967000  0.93477000  0.05598000  1
  N  N108  1  0.18571000  0.44434000  0.93500000  1
  N  N109  1  0.56371000  0.05610000  0.56557000  1
  O  O110  1  0.09006000  0.28605000  0.65990000  1
  O  O111  1  0.03610000  0.21469000  0.84110000  1
  O  O112  1  0.37783000  0.65904000  0.21392000  1
  O  O113  1  0.25060000  0.84029000  0.28526000  1
  O  O114  1  0.90994000  0.71394000  0.34010000  1
  O  O115  1  0.96390000  0.78530000  0.15890000  1
  O  O116  1  0.62218000  0.34095000  0.78608000  1
  O  O117  1  0.74939000  0.15971000  0.71474000  1
