# generated using pymatgen
data_CaH2C8(BrO2)2
_symmetry_space_group_name_H-M   'P 1'
_cell_length_a   7.78340000
_cell_length_b   10.13010000
_cell_length_c   10.32770000
_cell_angle_alpha   103.87300000
_cell_angle_beta   91.79700000
_cell_angle_gamma   90.93500000
_symmetry_Int_Tables_number   1
_chemical_formula_structural   CaH2C8(BrO2)2
_chemical_formula_sum   'Ca2 H4 C16 Br4 O8'
_cell_volume   789.92340517
_cell_formula_units_Z   2
loop_
 _symmetry_equiv_pos_site_id
 _symmetry_equiv_pos_as_xyz
  1  'x, y, z'
loop_
 _atom_site_type_symbol
 _atom_site_label
 _atom_site_symmetry_multiplicity
 _atom_site_fract_x
 _atom_site_fract_y
 _atom_site_fract_z
 _atom_site_occupancy
  Ca  Ca1  1  0.25016000  0.53263000  0.54032000  1.0
  Ca  Ca2  1  0.74984000  0.46737000  0.45968000  1.0
  H  H1  1  0.89920000  0.29980000  0.85800000  1.0
  H  H2  1  0.36810000  0.79610000  0.39130000  1.0
  H  H3  1  0.10080000  0.70020000  0.14200000  1.0
  H  H4  1  0.63190000  0.20390000  0.60870000  1.0
  C  C1  1  0.99710000  0.38280000  0.04360000  1.0
  C  C2  1  0.05780000  0.50060000  0.12990000  1.0
  C  C3  1  0.11650000  0.51080000  0.27290000  1.0
  C  C4  1  0.93960000  0.38080000  0.91470000  1.0
  C  C5  1  0.43710000  0.12280000  0.47760000  1.0
  C  C6  1  0.42180000  0.87790000  0.43560000  1.0
  C  C7  1  0.37440000  0.26040000  0.46720000  1.0
  C  C8  1  0.36100000  0.99880000  0.41490000  1.0
  C  C9  1  0.00290000  0.61720000  0.95640000  1.0
  C  C10  1  0.94220000  0.49940000  0.87010000  1.0
  C  C11  1  0.88350000  0.48920000  0.72710000  1.0
  C  C12  1  0.06040000  0.61920000  0.08530000  1.0
  C  C13  1  0.56290000  0.87720000  0.52240000  1.0
  C  C14  1  0.57820000  0.12210000  0.56440000  1.0
  C  C15  1  0.62560000  0.73960000  0.53280000  1.0
  C  C16  1  0.63900000  0.00120000  0.58510000  1.0
  Br  Br1  1  0.00374000  0.21483000  0.09376000  1.0
  Br  Br2  1  0.17285000  0.98647000  0.29075000  1.0
  Br  Br3  1  0.99626000  0.78517000  0.90624000  1.0
  Br  Br4  1  0.82715000  0.01353000  0.70925000  1.0
  O  O1  1  0.01070000  0.48730000  0.35420000  1.0
  O  O2  1  0.26920000  0.54650000  0.30640000  1.0
  O  O3  1  0.48440000  0.34700000  0.45140000  1.0
  O  O4  1  0.21890000  0.28430000  0.48190000  1.0
  O  O5  1  0.98930000  0.51270000  0.64580000  1.0
  O  O6  1  0.73080000  0.45350000  0.69360000  1.0
  O  O7  1  0.51560000  0.65300000  0.54860000  1.0
  O  O8  1  0.78110000  0.71570000  0.51810000  1.0
