# generated using pymatgen
data_Ni3H12(C18O13)2
_symmetry_space_group_name_H-M   'P 1'
_cell_length_a   10.55908000
_cell_length_b   13.43169000
_cell_length_c   18.50561000
_cell_angle_alpha   89.95275000
_cell_angle_beta   96.53195000
_cell_angle_gamma   89.96380000
_symmetry_Int_Tables_number   1
_chemical_formula_structural   Ni3H12(C18O13)2
_chemical_formula_sum   'Ni6 H24 C72 O52'
_cell_volume   2607.54313822
_cell_formula_units_Z   2
loop_
 _symmetry_equiv_pos_site_id
 _symmetry_equiv_pos_as_xyz
  1  'x, y, z'
loop_
 _atom_site_type_symbol
 _atom_site_label
 _atom_site_symmetry_multiplicity
 _atom_site_fract_x
 _atom_site_fract_y
 _atom_site_fract_z
 _atom_site_occupancy
  Ni  Ni0  1  0.41510000  0.27888000  0.52554000  1
  Ni  Ni1  1  0.58615000  0.78001000  0.97284000  1
  Ni  Ni2  1  0.58771000  0.71794000  0.47452000  1
  Ni  Ni3  1  0.41599000  0.21861000  0.02718000  1
  Ni  Ni4  1  0.50212000  0.99920000  0.00018000  1
  Ni  Ni5  1  0.50250000  0.49779000  0.49986000  1
  H  H6  1  0.37675000  0.20693000  0.23304000  1
  H  H7  1  0.55258000  0.91730000  0.22407000  1
  H  H8  1  0.48207000  0.04277000  0.43125000  1
  H  H9  1  0.09066000  0.91192000  0.98089000  1
  H  H10  1  0.88011000  0.63804000  0.93988000  1
  H  H11  1  0.28974000  0.63863000  0.94510000  1
  H  H12  1  0.62507000  0.70923000  0.26671000  1
  H  H13  1  0.44778000  0.42029000  0.27645000  1
  H  H14  1  0.52124000  0.54377000  0.06911000  1
  H  H15  1  0.90886000  0.40724000  0.51511000  1
  H  H16  1  0.12406000  0.13592000  0.55850000  1
  H  H17  1  0.71452000  0.13302000  0.55443000  1
  H  H18  1  0.62581000  0.79056000  0.76681000  1
  H  H19  1  0.44752000  0.07936000  0.77551000  1
  H  H20  1  0.52060000  0.95477000  0.56856000  1
  H  H21  1  0.91102000  0.08801000  0.01893000  1
  H  H22  1  0.12265000  0.36132000  0.06027000  1
  H  H23  1  0.71303000  0.36182000  0.05489000  1
  H  H24  1  0.37759000  0.28925000  0.73408000  1
  H  H25  1  0.55327000  0.57849000  0.72240000  1
  H  H26  1  0.48175000  0.45718000  0.93067000  1
  H  H27  1  0.09258000  0.58870000  0.48500000  1
  H  H28  1  0.88085000  0.86171000  0.44119000  1
  H  H29  1  0.29044000  0.86126000  0.44571000  1
  C  C30  1  0.42355000  0.13215000  0.33616000  1
  C  C31  1  0.41536000  0.13992000  0.26042000  1
  C  C32  1  0.45971000  0.06119000  0.22052000  1
  C  C33  1  0.51451000  0.97647000  0.25553000  1
  C  C34  1  0.52208000  0.97003000  0.33154000  1
  C  C35  1  0.47565000  0.04699000  0.37228000  1
  C  C36  1  0.39195000  0.22165000  0.37948000  1
  C  C37  1  0.45820000  0.07193000  0.14019000  1
  C  C38  1  0.58923000  0.88040000  0.36782000  1
  C  C39  1  0.20219000  0.78022000  0.96392000  1
  C  C40  1  0.08830000  0.83230000  0.96923000  1
  C  C41  1  0.97257000  0.78010000  0.96089000  1
  C  C42  1  0.97036000  0.67768000  0.94599000  1
  C  C43  1  0.08442000  0.62726000  0.93987000  1
  C  C44  1  0.20057000  0.67777000  0.94920000  1
  C  C45  1  0.32962000  0.82848000  0.97635000  1
  C  C46  1  0.84798000  0.83178000  0.96760000  1
  C  C47  1  0.08371000  0.51937000  0.92713000  1
  C  C48  1  0.57883000  0.63393000  0.16373000  1
  C  C49  1  0.58619000  0.64224000  0.23952000  1
  C  C50  1  0.54115000  0.56387000  0.27974000  1
  C  C51  1  0.48632000  0.47914000  0.24488000  1
  C  C52  1  0.47984000  0.47209000  0.16894000  1
  C  C53  1  0.52695000  0.54857000  0.12802000  1
  C  C54  1  0.61126000  0.72257000  0.11944000  1
  C  C55  1  0.54290000  0.57382000  0.36028000  1
  C  C56  1  0.41342000  0.38240000  0.13252000  1
  C  C57  1  0.79985000  0.27498000  0.53368000  1
  C  C58  1  0.91269000  0.32774000  0.52725000  1
  C  C59  1  0.02911000  0.27660000  0.53552000  1
  C  C60  1  0.03307000  0.17459000  0.55206000  1
  C  C61  1  0.92003000  0.12337000  0.55943000  1
  C  C62  1  0.80296000  0.17279000  0.54959000  1
  C  C63  1  0.67265000  0.32377000  0.52174000  1
  C  C64  1  0.15249000  0.32895000  0.52736000  1
  C  C65  1  0.92379000  0.01611000  0.57520000  1
  C  C66  1  0.57914000  0.86538000  0.66366000  1
  C  C67  1  0.58672000  0.85745000  0.73943000  1
  C  C68  1  0.54123000  0.93582000  0.77925000  1
  C  C69  1  0.48599000  0.02029000  0.74417000  1
  C  C70  1  0.47897000  0.02688000  0.66821000  1
  C  C71  1  0.52644000  0.95029000  0.62750000  1
  C  C72  1  0.61214000  0.77590000  0.62064000  1
  C  C73  1  0.54267000  0.92544000  0.85962000  1
  C  C74  1  0.41288000  0.11694000  0.63215000  1
  C  C75  1  0.80036000  0.22009000  0.03572000  1
  C  C76  1  0.91406000  0.16768000  0.03042000  1
  C  C77  1  0.02999000  0.21948000  0.03877000  1
  C  C78  1  0.03234000  0.32186000  0.05401000  1
  C  C79  1  0.91863000  0.37257000  0.06051000  1
  C  C80  1  0.80211000  0.32249000  0.05072000  1
  C  C81  1  0.67326000  0.17124000  0.02356000  1
  C  C82  1  0.15477000  0.16797000  0.03233000  1
  C  C83  1  0.92042000  0.48029000  0.07441000  1
  C  C84  1  0.42407000  0.36567000  0.83661000  1
  C  C85  1  0.41620000  0.35664000  0.76083000  1
  C  C86  1  0.46069000  0.43457000  0.72006000  1
  C  C87  1  0.51531000  0.51982000  0.75437000  1
  C  C88  1  0.52227000  0.52783000  0.83031000  1
  C  C89  1  0.47568000  0.45157000  0.87177000  1
  C  C90  1  0.39268000  0.27648000  0.88073000  1
  C  C91  1  0.45869000  0.42338000  0.63958000  1
  C  C92  1  0.58853000  0.61834000  0.86594000  1
  C  C93  1  0.20333000  0.71997000  0.46614000  1
  C  C94  1  0.08976000  0.66813000  0.47259000  1
  C  C95  1  0.97392000  0.72028000  0.46409000  1
  C  C96  1  0.97129000  0.82227000  0.44767000  1
  C  C97  1  0.08500000  0.87255000  0.44065000  1
  C  C98  1  0.20142000  0.82220000  0.45036000  1
  C  C99  1  0.33067000  0.67118000  0.47826000  1
  C  C100  1  0.84952000  0.66964000  0.47233000  1
  C  C101  1  0.08303000  0.98033000  0.42712000  1
  O  O102  1  0.36281000  0.19806000  0.44402000  1
  O  O103  1  0.40059000  0.30617000  0.35350000  1
  O  O104  1  0.46945000  0.16314000  0.12003000  1
  O  O105  1  0.45093000  0.99469000  0.10114000  1
  O  O106  1  0.68101000  0.84764000  0.33813000  1
  O  O107  1  0.54365000  0.84860000  0.42555000  1
  O  O108  1  0.41901000  0.76667000  0.99998000  1
  O  O109  1  0.34266000  0.91969000  0.96364000  1
  O  O110  1  0.84252000  0.91847000  0.98945000  1
  O  O111  1  0.75124000  0.77302000  0.94574000  1
  O  O112  1  0.98603000  0.46950000  0.90201000  1
  O  O113  1  0.18168000  0.46438000  0.94156000  1
  O  O114  1  0.60949000  0.89492000  0.02194000  1
  O  O115  1  0.63724000  0.69809000  0.05442000  1
  O  O116  1  0.60564000  0.80750000  0.14511000  1
  O  O117  1  0.53162000  0.66461000  0.38132000  1
  O  O118  1  0.55064000  0.49586000  0.39894000  1
  O  O119  1  0.31887000  0.35135000  0.16048000  1
  O  O120  1  0.46217000  0.34860000  0.07643000  1
  O  O121  1  0.58224000  0.26264000  0.49864000  1
  O  O122  1  0.66184000  0.41523000  0.53450000  1
  O  O123  1  0.15659000  0.41371000  0.50161000  1
  O  O124  1  0.25012000  0.27295000  0.55262000  1
  O  O125  1  0.02519000  0.96767000  0.59617000  1
  O  O126  1  0.82602000  0.95979000  0.56795000  1
  O  O127  1  0.39435000  0.39424000  0.47653000  1
  O  O128  1  0.64054000  0.79853000  0.55579000  1
  O  O129  1  0.60530000  0.69160000  0.64709000  1
  O  O130  1  0.53108000  0.83422000  0.87991000  1
  O  O131  1  0.55035000  0.00286000  0.89855000  1
  O  O132  1  0.32328000  0.15216000  0.66246000  1
  O  O133  1  0.45710000  0.14726000  0.57370000  1
  O  O134  1  0.58306000  0.23250000  0.00012000  1
  O  O135  1  0.66189000  0.07981000  0.03629000  1
  O  O136  1  0.16210000  0.08129000  0.01069000  1
  O  O137  1  0.25110000  0.22701000  0.05423000  1
  O  O138  1  0.01928000  0.53004000  0.09792000  1
  O  O139  1  0.82216000  0.53564000  0.06286000  1
  O  O140  1  0.39398000  0.10332000  0.97823000  1
  O  O141  1  0.36417000  0.29947000  0.94549000  1
  O  O142  1  0.40078000  0.19191000  0.85484000  1
  O  O143  1  0.46978000  0.33248000  0.61890000  1
  O  O144  1  0.45080000  0.50060000  0.60027000  1
  O  O145  1  0.67985000  0.65187000  0.83622000  1
  O  O146  1  0.54288000  0.65028000  0.92364000  1
  O  O147  1  0.42042000  0.73265000  0.50171000  1
  O  O148  1  0.34279000  0.57999000  0.46530000  1
  O  O149  1  0.84370000  0.58525000  0.49849000  1
  O  O150  1  0.75242000  0.72622000  0.44723000  1
  O  O151  1  0.98379000  0.02997000  0.40381000  1
  O  O152  1  0.18111000  0.03560000  0.43948000  1
  O  O153  1  0.60960000  0.60183000  0.52328000  1
