# generated using pymatgen
data_H5C11NO
_symmetry_space_group_name_H-M   'P 1'
_cell_length_a   9.88693333
_cell_length_b   34.24460000
_cell_length_c   34.40220000
_cell_angle_alpha   89.73270000
_cell_angle_beta   90.00000000
_cell_angle_gamma   90.00000000
_symmetry_Int_Tables_number   1
_chemical_formula_structural   H5C11NO
_chemical_formula_sum   'H90 C198 N18 O18'
_cell_volume   11647.56636553
_cell_formula_units_Z   18
loop_
 _symmetry_equiv_pos_site_id
 _symmetry_equiv_pos_as_xyz
  1  'x, y, z'
loop_
 _atom_site_type_symbol
 _atom_site_label
 _atom_site_symmetry_multiplicity
 _atom_site_fract_x
 _atom_site_fract_y
 _atom_site_fract_z
 _atom_site_occupancy
  C  1  1  0.01597900  0.62364200  0.08026200  1
  C  2  1  0.01691700  0.61282000  0.11993700  1
  C  3  1  0.01842500  0.57311100  0.13127000  1
  C  4  1  0.01910400  0.54397900  0.10224100  1
  C  5  1  0.01848600  0.55415300  0.06230800  1
  C  6  1  0.01686600  0.59411600  0.05166100  1
  C  10  1  0.01569700  0.36757300  0.92599500  1
  C  11  1  0.01647500  0.37875100  0.88640200  1
  C  12  1  0.01898700  0.41856500  0.87541300  1
  C  13  1  0.02057000  0.44742000  0.90470700  1
  C  14  1  0.01938700  0.43690700  0.94454700  1
  C  15  1  0.01700700  0.39685900  0.95484600  1
  C  19  1  0.01539900  0.91993000  0.63145400  1
  C  20  1  0.01600700  0.88019500  0.62054100  1
  C  21  1  0.01801100  0.86932200  0.58096600  1
  C  22  1  0.01921300  0.89883800  0.55207800  1
  C  23  1  0.01860600  0.93880500  0.56233300  1
  C  24  1  0.01680500  0.94902400  0.60213800  1
  C  28  1  0.01549800  0.07486700  0.37488900  1
  C  29  1  0.01667100  0.11470400  0.38548600  1
  C  30  1  0.01901300  0.12590300  0.42498300  1
  C  31  1  0.02044900  0.09660800  0.45409400  1
  C  32  1  0.01906300  0.05656600  0.44416200  1
  C  33  1  0.01641100  0.04603000  0.40445500  1
  C  37  1  0.01581800  0.85428400  0.06781500  1
  C  38  1  0.01595600  0.86727000  0.02879600  1
  C  39  1  0.01586400  0.84046400  0.99772500  1
  C  40  1  0.01566200  0.80003100  0.00601100  1
  C  41  1  0.01561200  0.78640300  0.04490800  1
  C  42  1  0.01573000  0.81374300  0.07565300  1
  C  46  1  0.01653900  0.13690900  0.93928700  1
  C  47  1  0.01717200  0.12404300  0.97833500  1
  C  48  1  0.01649100  0.15094400  0.00931600  1
  C  49  1  0.01559100  0.19135600  0.00089600  1
  C  50  1  0.01499500  0.20486200  0.96194600  1
  C  51  1  0.01526800  0.17741200  0.93130000  1
  C  55  1  0.01568300  0.93092400  0.86101400  1
  C  56  1  0.01670400  0.96997500  0.87395400  1
  C  57  1  0.01668400  0.00145600  0.84732900  1
  C  58  1  0.01579400  0.99353400  0.80706100  1
  C  59  1  0.01500500  0.95457700  0.79345200  1
  C  60  1  0.01488300  0.92342100  0.82066500  1
  C  64  1  0.01533900  0.06004400  0.14585000  1
  C  65  1  0.01516700  0.02091000  0.13316800  1
  C  66  1  0.01474600  0.98959300  0.15999900  1
  C  67  1  0.01426700  0.99780900  0.20022700  1
  C  68  1  0.01470200  0.03687200  0.21357600  1
  C  69  1  0.01542000  0.06782000  0.18613700  1
  C  73  1  0.01789800  0.35633600  0.43920900  1
  C  74  1  0.01763800  0.36883100  0.47825600  1
  C  75  1  0.01800100  0.34165300  0.50924700  1
  C  76  1  0.01882100  0.30130800  0.50079500  1
  C  77  1  0.01872000  0.28816100  0.46183200  1
  C  78  1  0.01814300  0.31591400  0.43120500  1
  C  82  1  0.01812200  0.63874800  0.56806900  1
  C  83  1  0.01814100  0.62616200  0.52904300  1
  C  84  1  0.01847700  0.65326400  0.49798300  1
  C  85  1  0.01856700  0.69362500  0.50632100  1
  C  86  1  0.01851600  0.70687100  0.54524000  1
  C  87  1  0.01831900  0.67920200  0.57595400  1
  C  91  1  0.01775800  0.43173200  0.64560200  1
  C  92  1  0.01731700  0.47096200  0.63281000  1
  C  93  1  0.01786900  0.50210600  0.65955300  1
  C  94  1  0.01871400  0.49365500  0.69979300  1
  C  95  1  0.01887100  0.45452500  0.71327900  1
  C  96  1  0.01846400  0.42372800  0.68593900  1
  C  100  1  0.01946700  0.56346500  0.36149600  1
  C  101  1  0.01939600  0.52430600  0.37451100  1
  C  102  1  0.01916300  0.49303000  0.34793700  1
  C  103  1  0.01888900  0.50123000  0.30766600  1
  C  104  1  0.01907400  0.54027000  0.29396300  1
  C  105  1  0.01930400  0.57124200  0.32110800  1
  C  109  1  0.02015500  0.46604800  0.97380000  1
  C  110  1  0.89812300  0.48045000  0.98951400  1
  C  111  1  0.89879000  0.50901300  0.01832900  1
  C  112  1  0.01984600  0.52477900  0.03327200  1
  C  113  1  0.14262900  0.51047000  0.01763900  1
  C  114  1  0.14282200  0.48154800  0.98837800  1
  C  119  1  0.69666500  0.49339000  0.00390900  1
  C  121  1  0.01996300  0.02739300  0.47360900  1
  C  122  1  0.89792100  0.01211800  0.48860100  1
  C  123  1  0.89869800  0.98338000  0.51749200  1
  C  124  1  0.01987000  0.96820000  0.53308500  1
  C  125  1  0.14266100  0.98339700  0.51818700  1
  C  126  1  0.14275100  0.01257000  0.48891600  1
  C  131  1  0.69649300  0.99810900  0.50211000  1
  C  133  1  0.01477900  0.74579200  0.05291300  1
  C  134  1  0.13691500  0.72493900  0.05747600  1
  C  135  1  0.13607700  0.68504500  0.06578900  1
  C  136  1  0.01478600  0.66370100  0.06972700  1
  C  137  1  0.89191200  0.68444100  0.06517700  1
  C  138  1  0.89187100  0.72490300  0.05677200  1
  C  143  1  0.33826300  0.70614300  0.06276300  1
  C  145  1  0.01409400  0.24544100  0.95373200  1
  C  146  1  0.13621200  0.26649600  0.95016100  1
  C  147  1  0.13546800  0.30633300  0.94155200  1
  C  148  1  0.01423700  0.32743800  0.93631500  1
  C  149  1  0.89138700  0.30647600  0.93980200  1
  C  150  1  0.89127000  0.26606100  0.94845400  1
  C  155  1  0.33765600  0.28559700  0.94655500  1
  C  157  1  0.01408800  0.94685100  0.75301100  1
  C  158  1  0.13615600  0.94332200  0.73204000  1
  C  159  1  0.13530700  0.93505000  0.69238000  1
  C  160  1  0.01404100  0.93011200  0.67136400  1
  C  161  1  0.89124400  0.93358800  0.69222400  1
  C  162  1  0.89122000  0.94191400  0.73245600  1
  C  167  1  0.33755900  0.93955700  0.71303300  1
  C  169  1  0.01403800  0.04509000  0.25393500  1
  C  170  1  0.13611500  0.05093600  0.27437100  1
  C  171  1  0.13536700  0.06025400  0.31380100  1
  C  172  1  0.01421600  0.06417300  0.33509600  1
  C  173  1  0.89139700  0.05830600  0.31479000  1
  C  174  1  0.89127500  0.04890900  0.27478800  1
  C  179  1  0.33742200  0.05750000  0.29267600  1
  C  181  1  0.01967500  0.24766900  0.45347400  1
  C  182  1  0.89770700  0.22704700  0.44782000  1
  C  183  1  0.89867500  0.18736400  0.43884500  1
  C  184  1  0.01997200  0.16601800  0.43508400  1
  C  185  1  0.14268000  0.18652300  0.44074200  1
  C  186  1  0.14257900  0.22677000  0.44981300  1
  C  191  1  0.69647300  0.20846600  0.44166300  1
  C  193  1  0.01930500  0.74740300  0.55337100  1
  C  194  1  0.89718300  0.76835700  0.55734000  1
  C  195  1  0.89797600  0.80812900  0.56590200  1
  C  196  1  0.01923500  0.82926600  0.57071100  1
  C  197  1  0.14209300  0.80842500  0.56677300  1
  C  198  1  0.14216600  0.76807800  0.55817600  1
  C  203  1  0.69576400  0.78734200  0.56147900  1
  C  205  1  0.01979100  0.44630400  0.75371900  1
  C  206  1  0.89777800  0.44152400  0.77451000  1
  C  207  1  0.89871900  0.43299700  0.81420100  1
  C  208  1  0.02000400  0.42901100  0.83545400  1
  C  209  1  0.14276100  0.43375000  0.81477400  1
  C  210  1  0.14269200  0.44235300  0.77451500  1
  C  215  1  0.69647200  0.43615400  0.79326400  1
  C  217  1  0.01981100  0.54806100  0.25345900  1
  C  218  1  0.89772700  0.55118900  0.23240700  1
  C  219  1  0.89851600  0.55874600  0.19252800  1
  C  220  1  0.01975000  0.56317600  0.17133800  1
  C  221  1  0.14255900  0.56014500  0.19229700  1
  C  222  1  0.14265000  0.55255000  0.23274500  1
  C  227  1  0.69630100  0.55462000  0.21333600  1
  C  229  1  0.01485300  0.88235200  0.09792100  1
  C  230  1  0.13688400  0.89981300  0.11015600  1
  C  231  1  0.13561000  0.93342200  0.13288500  1
  C  232  1  0.01418600  0.95094500  0.14547000  1
  C  233  1  0.89155800  0.93314200  0.13383100  1
  C  234  1  0.89181600  0.89934500  0.11040200  1
  C  239  1  0.33735200  0.91914400  0.11660900  1
  C  241  1  0.01694700  0.10872100  0.90931500  1
  C  242  1  0.13912100  0.09062700  0.89818700  1
  C  243  1  0.13812900  0.05691000  0.87564800  1
  C  244  1  0.01706900  0.04000800  0.86201800  1
  C  245  1  0.89431100  0.05845500  0.87253000  1
  C  246  1  0.89418300  0.09227700  0.89593000  1
  C  251  1  0.33900000  0.07037300  0.89334900  1
  C  253  1  0.01474200  0.90061500  0.88913600  1
  C  254  1  0.13699600  0.88843800  0.90658600  1
  C  255  1  0.13610500  0.86655600  0.94086300  1
  C  256  1  0.01477200  0.85491300  0.95910200  1
  C  257  1  0.89186100  0.86629200  0.94126000  1
  C  258  1  0.89180200  0.88891200  0.90680500  1
  C  263  1  0.33791900  0.88180900  0.92547400  1
  C  265  1  0.01482300  0.09023300  0.11761700  1
  C  266  1  0.13714600  0.10247100  0.10026500  1
  C  267  1  0.13651100  0.12450100  0.06608300  1
  C  268  1  0.01541700  0.13651800  0.04794600  1
  C  269  1  0.89238900  0.12497200  0.06564300  1
  C  270  1  0.89208500  0.10201000  0.09987600  1
  C  275  1  0.33810200  0.10904800  0.08145500  1
  C  277  1  0.01921400  0.38480200  0.40926200  1
  C  278  1  0.89722900  0.40220900  0.39675100  1
  C  279  1  0.89854700  0.43627600  0.37440900  1
  C  280  1  0.02008400  0.45433800  0.36257800  1
  C  281  1  0.14273200  0.43662400  0.37445300  1
  C  282  1  0.14234700  0.40236400  0.39749800  1
  C  287  1  0.69647800  0.42113200  0.38962000  1
  C  289  1  0.01841500  0.61033500  0.59810700  1
  C  290  1  0.89620200  0.59266200  0.61004300  1
  C  291  1  0.89708100  0.55859200  0.63239100  1
  C  292  1  0.01825200  0.54088100  0.64503100  1
  C  293  1  0.14114200  0.55890400  0.63378500  1
  C  294  1  0.14123400  0.59304700  0.61054100  1
  C  299  1  0.69563400  0.57326300  0.61612600  1
  C  301  1  0.01813200  0.40172200  0.61740800  1
  C  302  1  0.89600900  0.39037100  0.59944200  1
  C  303  1  0.89707600  0.36842000  0.56540600  1
  C  304  1  0.01836000  0.35581000  0.54787600  1
  C  305  1  0.14106300  0.36653000  0.56614500  1
  C  306  1  0.14101100  0.38920000  0.60037800  1
  C  311  1  0.69570400  0.38507100  0.57968300  1
  C  313  1  0.02001200  0.59357000  0.38958700  1
  C  314  1  0.89773900  0.60563900  0.40698900  1
  C  315  1  0.89842700  0.62730400  0.44120600  1
  C  316  1  0.01953700  0.63910400  0.45936200  1
  C  317  1  0.14253000  0.62774200  0.44163400  1
  C  318  1  0.14277100  0.60514000  0.40736100  1
  C  323  1  0.69681600  0.61199300  0.42587400  1
  H  7  1  0.02037700  0.51512700  0.11025900  1
  H  8  1  0.01648200  0.60180200  0.02283400  1
  H  9  1  0.01651900  0.63409600  0.14081200  1
  H  16  1  0.02212800  0.47634700  0.89695100  1
  H  17  1  0.01634300  0.38893700  0.98361100  1
  H  18  1  0.01562500  0.35766700  0.86534200  1
  H  25  1  0.02062600  0.89115100  0.52332400  1
  H  26  1  0.01646800  0.97789400  0.60984900  1
  H  27  1  0.01530200  0.85894700  0.64163500  1
  H  34  1  0.02205700  0.10451000  0.48279100  1
  H  35  1  0.01563200  0.01709100  0.39699100  1
  H  36  1  0.01598900  0.13577600  0.36422300  1
  H  43  1  0.01530800  0.78043900  0.98358600  1
  H  44  1  0.01542000  0.80411000  0.10389600  1
  H  45  1  0.01574600  0.89667100  0.02291600  1
  H  52  1  0.01504500  0.21101800  0.02325700  1
  H  53  1  0.01491400  0.18693800  0.90302200  1
  H  54  1  0.01766800  0.09465700  0.98430000  1
  H  61  1  0.01577400  0.01626400  0.78758600  1
  H  62  1  0.01413500  0.89513500  0.81109300  1
  H  63  1  0.01707800  0.97558100  0.90323400  1
  H  70  1  0.01379100  0.97522300  0.21986200  1
  H  71  1  0.01547000  0.09618100  0.19550200  1
  H  72  1  0.01516700  0.01512500  0.10392400  1
  H  79  1  0.01927600  0.28142700  0.52314500  1
  H  80  1  0.01854700  0.30667800  0.40291600  1
  H  81  1  0.01758600  0.39816500  0.48421200  1
  H  88  1  0.01899100  0.71344500  0.48391700  1
  H  89  1  0.01842500  0.68853200  0.60421100  1
  H  90  1  0.01820400  0.59681700  0.52314800  1
  H  97  1  0.01914900  0.51613200  0.71934500  1
  H  98  1  0.01880000  0.39532300  0.69541900  1
  H  99  1  0.01700700  0.47694900  0.60355400  1
  H  106  1  0.01900200  0.47862800  0.28825000  1
  H  107  1  0.01952700  0.59958800  0.31145300  1
  H  108  1  0.01965800  0.51846500  0.40379500  1
  H  115  1  0.23346700  0.47185600  0.97776700  1
  H  116  1  0.23313500  0.52107600  0.02744700  1
  H  120  1  0.59339600  0.49324900  0.00437800  1
  H  127  1  0.23336600  0.02288100  0.47878100  1
  H  128  1  0.23322400  0.97328100  0.52855300  1
  H  132  1  0.59321500  0.99777900  0.50214300  1
  H  139  1  0.80128800  0.73909200  0.05383600  1
  H  140  1  0.80135900  0.67028300  0.06832500  1
  H  144  1  0.44150100  0.70605300  0.06366300  1
  H  151  1  0.80071200  0.25172600  0.95063400  1
  H  152  1  0.80092400  0.32045500  0.93577200  1
  H  156  1  0.44093800  0.28587100  0.94665600  1
  H  163  1  0.80068100  0.94404200  0.74672200  1
  H  164  1  0.80073100  0.92974700  0.67831300  1
  H  168  1  0.44084100  0.93935900  0.71279500  1
  H  175  1  0.80066000  0.04522700  0.26088800  1
  H  176  1  0.80087400  0.06122900  0.32891800  1
  H  180  1  0.44062000  0.05871800  0.29264300  1
  H  187  1  0.23309800  0.24078700  0.45347400  1
  H  188  1  0.23328400  0.17233400  0.43801100  1
  H  192  1  0.59325900  0.20842200  0.44055600  1
  H  199  1  0.23274900  0.75382700  0.55569900  1
  H  200  1  0.23261600  0.82243100  0.57047200  1
  H  204  1  0.59248200  0.78757300  0.56164600  1
  H  211  1  0.23325400  0.44542200  0.76040600  1
  H  212  1  0.23337100  0.43062900  0.82884500  1
  H  216  1  0.59322600  0.43530700  0.79338700  1
  H  223  1  0.23322500  0.55055200  0.24703000  1
  H  224  1  0.23305800  0.56377200  0.17828500  1
  H  228  1  0.59302200  0.55466100  0.21308100  1
  H  235  1  0.80150000  0.88879200  0.10037100  1
  H  236  1  0.80101000  0.94619500  0.14007000  1
  H  240  1  0.43939700  0.92204200  0.11305000  1
  H  247  1  0.80351400  0.10331200  0.90515400  1
  H  248  1  0.80369500  0.04579600  0.86561300  1
  H  252  1  0.44109500  0.06758700  0.89689300  1
  H  259  1  0.80151000  0.89907100  0.89626400  1
  H  260  1  0.80153900  0.86052100  0.95466400  1
  H  264  1  0.44015400  0.88520100  0.92798400  1
  H  271  1  0.80164100  0.09186200  0.11032200  1
  H  272  1  0.80216900  0.13074200  0.05218200  1
  H  276  1  0.44077000  0.10644900  0.07950800  1
  H  283  1  0.23250100  0.39182800  0.40776700  1
  H  284  1  0.23318300  0.44998100  0.36862700  1
  H  288  1  0.59416700  0.42369000  0.39277400  1
  H  295  1  0.23174800  0.60375300  0.60072100  1
  H  296  1  0.23157500  0.54571400  0.64000000  1
  H  300  1  0.59315300  0.57099100  0.61322400  1
  H  307  1  0.23149500  0.39874600  0.61124800  1
  H  308  1  0.23163800  0.36021400  0.55319000  1
  H  312  1  0.59388100  0.38907700  0.57670200  1
  H  319  1  0.23318800  0.59505900  0.39692800  1
  H  320  1  0.23276900  0.63336000  0.45509600  1
  H  324  1  0.59416600  0.60935100  0.42785400  1
  N  117  1  0.77030600  0.51673100  0.02693700  1
  N  129  1  0.77021700  0.97498500  0.52554500  1
  N  141  1  0.26449300  0.67382300  0.06911600  1
  N  153  1  0.26396100  0.31775400  0.93935100  1
  N  165  1  0.26376000  0.93269800  0.68102600  1
  N  177  1  0.26375900  0.06430700  0.32472100  1
  N  189  1  0.77031900  0.17627400  0.43504500  1
  N  201  1  0.76950900  0.81947800  0.56843700  1
  N  213  1  0.77032800  0.42964700  0.82539400  1
  N  225  1  0.77003600  0.56088400  0.18113400  1
  N  237  1  0.26320500  0.94544000  0.13605400  1
  N  249  1  0.26541700  0.04444700  0.87324900  1
  N  261  1  0.26398700  0.86323900  0.95255800  1
  N  273  1  0.26452200  0.12802300  0.05456900  1
  N  285  1  0.77075300  0.44801500  0.37078200  1
  N  297  1  0.76933700  0.54668600  0.63557700  1
  N  309  1  0.76962000  0.36595200  0.55315400  1
  N  321  1  0.77045400  0.63069400  0.45276200  1
  O  118  1  0.76989200  0.46984700  0.97968600  1
  O  130  1  0.76965200  0.02216000  0.47814800  1
  O  142  1  0.26515600  0.73931000  0.05536000  1
  O  154  1  0.26445600  0.25235900  0.95353500  1
  O  166  1  0.26445300  0.94633300  0.74612400  1
  O  178  1  0.26426700  0.04904600  0.25998700  1
  O  190  1  0.76945700  0.24142000  0.44975900  1
  O  202  1  0.76891200  0.75419100  0.55434800  1
  O  214  1  0.76947700  0.44372000  0.76025700  1
  O  226  1  0.76946700  0.54832100  0.24657000  1
  O  238  1  0.26455900  0.89047000  0.09856300  1
  O  250  1  0.26626900  0.09958600  0.91054000  1
  O  262  1  0.26474000  0.89952600  0.89658800  1
  O  274  1  0.26483700  0.09147100  0.11040400  1
  O  286  1  0.76927700  0.39231300  0.40771200  1
  O  298  1  0.76861800  0.60238000  0.59858500  1
  O  310  1  0.76862800  0.40226800  0.60876700  1
  O  322  1  0.77002300  0.59471200  0.39689500  1
