# generated using pymatgen
data_Cu2H16C20N4Cl
_symmetry_space_group_name_H-M   'P 1'
_cell_length_a   4.66223000
_cell_length_b   15.66016000
_cell_length_c   16.03966000
_cell_angle_alpha   90.03675000
_cell_angle_beta   89.99047000
_cell_angle_gamma   89.99866000
_symmetry_Int_Tables_number   1
_chemical_formula_structural   Cu2H16C20N4Cl
_chemical_formula_sum   'Cu4 H32 C40 N8 Cl2'
_cell_volume   1171.07565357
_cell_formula_units_Z   2
loop_
 _symmetry_equiv_pos_site_id
 _symmetry_equiv_pos_as_xyz
  1  'x, y, z'
loop_
 _atom_site_type_symbol
 _atom_site_label
 _atom_site_symmetry_multiplicity
 _atom_site_fract_x
 _atom_site_fract_y
 _atom_site_fract_z
 _atom_site_occupancy
  Cu  Cu0  1  0.25125000  0.74984000  0.60284000  1
  Cu  Cu1  1  0.25177000  0.75049000  0.89717000  1
  Cu  Cu2  1  0.74877000  0.25017000  0.39717000  1
  Cu  Cu3  1  0.74824000  0.24951000  0.10283000  1
  H  H4  1  0.74924000  0.66657000  0.67756000  1
  H  H5  1  0.40003000  0.55729000  0.63503000  1
  H  H6  1  0.86240000  0.53741000  0.40076000  1
  H  H7  1  0.20191000  0.64245000  0.45603000  1
  H  H8  1  0.75474000  0.83268000  0.67727000  1
  H  H9  1  0.10218000  0.94269000  0.63467000  1
  H  H10  1  0.63619000  0.96270000  0.40114000  1
  H  H11  1  0.29893000  0.85695000  0.45637000  1
  H  H12  1  0.75551000  0.66772000  0.82316000  1
  H  H13  1  0.10262000  0.55783000  0.86541000  1
  H  H14  1  0.63563000  0.53693000  0.09887000  1
  H  H15  1  0.29936000  0.64314000  0.04400000  1
  H  H16  1  0.74976000  0.83359000  0.82224000  1
  H  H17  1  0.40044000  0.94306000  0.86494000  1
  H  H18  1  0.86202000  0.96234000  0.09927000  1
  H  H19  1  0.20207000  0.85754000  0.04382000  1
  H  H20  1  0.25077000  0.33343000  0.32244000  1
  H  H21  1  0.59998000  0.44271000  0.36497000  1
  H  H22  1  0.13761000  0.46259000  0.59924000  1
  H  H23  1  0.79810000  0.35756000  0.54398000  1
  H  H24  1  0.24527000  0.16732000  0.32273000  1
  H  H25  1  0.89784000  0.05731000  0.36533000  1
  H  H26  1  0.36383000  0.03730000  0.59887000  1
  H  H27  1  0.70109000  0.14306000  0.54363000  1
  H  H28  1  0.24450000  0.33228000  0.17684000  1
  H  H29  1  0.89739000  0.44217000  0.13459000  1
  H  H30  1  0.36438000  0.46307000  0.90113000  1
  H  H31  1  0.70065000  0.35687000  0.95601000  1
  H  H32  1  0.25025000  0.16641000  0.17776000  1
  H  H33  1  0.59957000  0.05695000  0.13506000  1
  H  H34  1  0.13800000  0.03767000  0.90074000  1
  H  H35  1  0.79795000  0.14247000  0.95619000  1
  C  C36  1  0.76678000  0.63597000  0.61689000  1
  C  C37  1  0.56834000  0.57517000  0.59190000  1
  C  C38  1  0.59776000  0.53303000  0.51312000  1
  C  C39  1  0.82630000  0.56256000  0.46298000  1
  C  C40  1  0.01694000  0.62303000  0.49258000  1
  C  C41  1  0.73615000  0.86354000  0.61679000  1
  C  C42  1  0.93341000  0.92462000  0.59176000  1
  C  C43  1  0.90243000  0.96696000  0.51317000  1
  C  C44  1  0.67317000  0.93748000  0.46325000  1
  C  C45  1  0.48372000  0.87669000  0.49284000  1
  C  C46  1  0.73678000  0.63687000  0.88364000  1
  C  C47  1  0.93395000  0.57568000  0.90848000  1
  C  C48  1  0.90261000  0.53313000  0.98693000  1
  C  C49  1  0.67312000  0.56242000  0.03688000  1
  C  C50  1  0.48408000  0.62343000  0.00747000  1
  C  C51  1  0.76721000  0.86424000  0.88290000  1
  C  C52  1  0.56872000  0.92499000  0.90798000  1
  C  C53  1  0.59792000  0.96702000  0.98684000  1
  C  C54  1  0.82626000  0.93737000  0.03697000  1
  C  C55  1  0.01714000  0.87702000  0.00727000  1
  C  C56  1  0.23323000  0.36403000  0.38311000  1
  C  C57  1  0.43169000  0.42483000  0.40810000  1
  C  C58  1  0.40225000  0.46697000  0.48688000  1
  C  C59  1  0.17372000  0.43745000  0.53703000  1
  C  C60  1  0.98307000  0.37697000  0.50742000  1
  C  C61  1  0.26387000  0.13647000  0.38321000  1
  C  C62  1  0.06660000  0.07538000  0.40824000  1
  C  C63  1  0.09759000  0.03305000  0.48684000  1
  C  C64  1  0.32684000  0.06252000  0.53676000  1
  C  C65  1  0.51629000  0.12332000  0.50716000  1
  C  C66  1  0.26324000  0.36314000  0.11637000  1
  C  C67  1  0.06606000  0.42433000  0.09152000  1
  C  C68  1  0.09740000  0.46688000  0.01307000  1
  C  C69  1  0.32688000  0.43759000  0.96312000  1
  C  C70  1  0.51594000  0.37657000  0.99253000  1
  C  C71  1  0.23280000  0.13576000  0.11711000  1
  C  C72  1  0.43130000  0.07501000  0.09202000  1
  C  C73  1  0.40209000  0.03298000  0.01316000  1
  C  C74  1  0.17376000  0.06263000  0.96303000  1
  C  C75  1  0.98286000  0.12299000  0.99273000  1
  N  N76  1  0.99426000  0.65948000  0.56973000  1
  N  N77  1  0.50835000  0.83984000  0.56974000  1
  N  N78  1  0.50916000  0.66051000  0.93072000  1
  N  N79  1  0.99476000  0.84066000  0.93005000  1
  N  N80  1  0.00576000  0.34052000  0.43028000  1
  N  N81  1  0.49166000  0.16016000  0.43026000  1
  N  N82  1  0.49085000  0.33950000  0.06928000  1
  N  N83  1  0.00526000  0.15934000  0.06995000  1
  Cl  Cl84  1  0.24855000  0.74656000  0.75004000  1
  Cl  Cl85  1  0.75146000  0.25344000  0.24996000  1
