# generated using pymatgen
data_H24C41N4
_symmetry_space_group_name_H-M   'P 1'
_cell_length_a   22.32160000
_cell_length_b   32.14535806
_cell_length_c   32.14535806
_cell_angle_alpha   83.09566357
_cell_angle_beta   69.71339836
_cell_angle_gamma   69.71339836
_symmetry_Int_Tables_number   1
_chemical_formula_structural   H24C41N4
_chemical_formula_sum   'H96 C164 N16'
_cell_volume   20292.69782224
_cell_formula_units_Z   4
loop_
 _symmetry_equiv_pos_site_id
 _symmetry_equiv_pos_as_xyz
  1  'x, y, z'
loop_
 _atom_site_type_symbol
 _atom_site_label
 _atom_site_symmetry_multiplicity
 _atom_site_fract_x
 _atom_site_fract_y
 _atom_site_fract_z
 _atom_site_occupancy
  C  1  1  0.13734050  0.42412550  0.98666350  1
  C  2  1  0.14136125  0.39217625  0.02094225  1
  C  3  1  0.20371400  0.36436500  0.02475600  1
  C  4  1  0.26647250  0.36415100  0.99273800  1
  C  5  1  0.26201100  0.39577450  0.95799750  1
  C  6  1  0.19981800  0.42570750  0.95585350  1
  C  7  1  0.33630550  0.33464700  0.99500000  1
  C  8  1  0.36999300  0.36863750  0.99671650  1
  C  9  1  0.43011650  0.37249000  0.96428600  1
  C  10  1  0.45980750  0.40327400  0.96821600  1
  C  11  1  0.42864100  0.43490350  0.00295250  1
  C  12  1  0.36583525  0.43364675  0.03353875  1
  C  13  1  0.33847050  0.40091650  0.03113450  1
  C  14  1  0.33346400  0.30284750  0.03495450  1
  C  15  1  0.37554250  0.30241500  0.95549100  1
  C  16  1  0.44310100  0.27442200  0.94994400  1
  C  17  1  0.47947550  0.24228000  0.91622800  1
  C  18  1  0.44872950  0.23404000  0.88776900  1
  C  19  1  0.38072800  0.26031700  0.89388600  1
  C  20  1  0.34536800  0.29347750  0.92667350  1
  C  21  1  0.30222500  0.26986450  0.03975450  1
  C  22  1  0.30302900  0.23761250  0.07342650  1
  C  23  1  0.33635800  0.23648400  0.10378600  1
  C  24  1  0.36905900  0.26793800  0.09949400  1
  C  25  1  0.36809000  0.29997800  0.06557200  1
  C  42  1  0.55928725  0.56215025  0.00495425  1
  C  43  1  0.56565750  0.59409450  0.97067250  1
  C  44  1  0.60404725  0.62190425  0.96687025  1
  C  45  1  0.63461350  0.62210600  0.99889300  1
  C  46  1  0.62706700  0.59045900  0.03361400  1
  C  47  1  0.59260275  0.56054025  0.03575525  1
  C  48  1  0.67718650  0.65163400  0.99667300  1
  C  49  1  0.74655300  0.61767450  0.99495150  1
  C  50  1  0.77813600  0.61383100  0.02737900  1
  C  51  1  0.84250625  0.58305625  0.02344625  1
  C  52  1  0.87763075  0.55143225  0.98870425  1
  C  53  1  0.84412100  0.55268450  0.95811650  1
  C  54  1  0.78165625  0.58540125  0.96052725  1
  C  55  1  0.68248800  0.68345100  0.95673300  1
  C  56  1  0.64468075  0.68383475  0.03621175  1
  C  57  1  0.67861900  0.71188250  0.04182550  1
  C  58  1  0.64908750  0.74403250  0.07554250  1
  C  59  1  0.58166050  0.75224150  0.10392850  1
  C  60  1  0.54611050  0.72593550  0.09773050  1
  C  61  1  0.57674650  0.69277350  0.06493950  1
  C  62  1  0.62310600  0.71642700  0.95192100  1
  C  63  1  0.62531775  0.74868525  0.91825525  1
  C  64  1  0.68783800  0.74985200  0.88792900  1
  C  65  1  0.74766700  0.71843300  0.89225000  1
  C  66  1  0.74482000  0.68637750  0.92615650  1
  C  83  1  0.56874600  0.98400250  0.56475950  1
  C  84  1  0.54083050  0.01827350  0.59672050  1
  C  85  1  0.57537050  0.02207900  0.62455800  1
  C  86  1  0.63791000  0.99006450  0.62478550  1
  C  87  1  0.66508275  0.95534325  0.59313425  1
  C  88  1  0.63279925  0.95319675  0.56318975  1
  C  89  1  0.67822225  0.99230725  0.65433725  1
  C  90  1  0.74587400  0.99405200  0.62040000  1
  C  91  1  0.80984150  0.96162850  0.61656250  1
  C  92  1  0.87028600  0.96555950  0.58579050  1
  C  93  1  0.87071850  0.00028800  0.55415300  1
  C  94  1  0.80666450  0.03087800  0.55540500  1
  C  95  1  0.74660600  0.02847750  0.58813050  1
  C  96  1  0.64355550  0.03224000  0.68616000  1
  C  97  1  0.68522850  0.95276950  0.68653450  1
  C  98  1  0.72473450  0.94719700  0.71460100  1
  C  99  1  0.72891200  0.91347950  0.74674550  1
  C  100  1  0.68990150  0.88504850  0.75493550  1
  C  101  1  0.64820950  0.89120050  0.72860350  1
  C  102  1  0.64606400  0.92399350  0.69544650  1
  C  103  1  0.57936575  0.03700625  0.71911525  1
  C  104  1  0.54786650  0.07067500  0.75137200  1
  C  105  1  0.57999950  0.10105650  0.75255450  1
  C  106  1  0.64414900  0.09677900  0.72115900  1
  C  107  1  0.67526000  0.06286600  0.68910600  1
  C  124  1  0.12843000  0.00227250  0.42686150  1
  C  125  1  0.16669125  0.96798325  0.39492225  1
  C  126  1  0.23284175  0.96418075  0.36709475  1
  C  127  1  0.26361400  0.99620850  0.36687350  1
  C  128  1  0.22446550  0.03094350  0.39850350  1
  C  129  1  0.16012725  0.03309225  0.42842925  1
  C  130  1  0.33567350  0.99398050  0.33733450  1
  C  131  1  0.37111950  0.99227000  0.37129700  1
  C  132  1  0.39885700  0.02470550  0.37513250  1
  C  133  1  0.43251750  0.02077450  0.40589350  1
  C  134  1  0.43608100  0.98603100  0.43751400  1
  C  135  1  0.40382325  0.95543925  0.43627325  1
  C  136  1  0.37403350  0.95783450  0.40355850  1
  C  137  1  0.37275800  0.95404050  0.30551950  1
  C  138  1  0.33533950  0.03351150  0.30512750  1
  C  139  1  0.39729700  0.03912150  0.27709450  1
  C  140  1  0.39989100  0.07284600  0.24495300  1
  C  141  1  0.34066950  0.10124500  0.23673900  1
  C  142  1  0.27884325  0.09504425  0.26302925  1
  C  143  1  0.27634025  0.06225325  0.29618925  1
  C  144  1  0.34628450  0.94920650  0.27256350  1
  C  145  1  0.38073800  0.91554900  0.24029500  1
  C  146  1  0.44444050  0.88524200  0.23912100  1
  C  147  1  0.47289350  0.88958050  0.27053250  1
  C  148  1  0.43800350  0.92346500  0.30261000  1
  C  329  1  0.34260600  0.13453700  0.20272600  1
  C  330  1  0.39043200  0.12617650  0.15920850  1
  C  331  1  0.38938100  0.16013000  0.12633100  1
  C  332  1  0.34022200  0.20269800  0.13633600  1
  C  333  1  0.29309000  0.21110850  0.17950550  1
  C  334  1  0.29447000  0.17767250  0.21200050  1
  C  336  1  0.48409450  0.11010850  0.07388650  1
  C  337  1  0.48461125  0.07626275  0.10581575  1
  C  343  1  0.69110650  0.85176800  0.78895900  1
  C  344  1  0.68699075  0.86016925  0.83249625  1
  C  345  1  0.68700650  0.82622700  0.86538600  1
  C  346  1  0.69046450  0.78363350  0.85537150  1
  C  347  1  0.69497650  0.77518200  0.81218100  1
  C  348  1  0.69541850  0.80860950  0.77967650  1
  C  350  1  0.67917350  0.87631200  0.91785300  1
  C  351  1  0.67777900  0.91014550  0.88591050  1
  C  357  1  0.48402750  0.20001900  0.85448600  1
  C  358  1  0.52349875  0.15651625  0.86289125  1
  C  359  1  0.55649850  0.12363400  0.82894300  1
  C  360  1  0.55000450  0.13362000  0.78633300  1
  C  361  1  0.51127350  0.17677350  0.77788050  1
  C  362  1  0.47912600  0.20927600  0.81131200  1
  C  364  1  0.60108925  0.07121875  0.87904975  1
  C  365  1  0.56767325  0.10315575  0.91288875  1
  C  371  1  0.54958650  0.78626900  0.13720800  1
  C  372  1  0.55390400  0.82979700  0.12882800  1
  C  373  1  0.51997650  0.86269000  0.16276600  1
  C  374  1  0.48082350  0.85268800  0.20533900  1
  C  375  1  0.47685550  0.80950550  0.21376950  1
  C  376  1  0.51072575  0.77699575  0.18034875  1
  C  378  1  0.56224000  0.91514750  0.11271450  1
  C  379  1  0.59469900  0.88319700  0.07888800  1
  C  441  1  0.52391950  0.53148350  0.00661150  1
  C  442  1  0.48616850  0.51529900  0.04664800  1
  C  443  1  0.45593200  0.48282200  0.04615500  1
  C  444  1  0.45888875  0.46727575  0.00560375  1
  C  445  1  0.49439750  0.48505850  0.96614050  1
  C  446  1  0.52715325  0.51512925  0.96660925  1
  C  448  1  0.41812225  0.48139975  0.12583875  1
  C  449  1  0.44428850  0.51506600  0.12633000  1
  C  455  1  0.07301150  0.45481650  0.98501350  1
  C  456  1  0.05906450  0.47101200  0.94498600  1
  C  457  1  0.99591400  0.50350700  0.94548900  1
  C  458  1  0.94286300  0.51906300  0.98604300  1
  C  459  1  0.95673850  0.50127550  0.02550250  1
  C  460  1  0.01998800  0.47118450  0.02502150  1
  C  462  1  0.03624425  0.50494725  0.86580325  1
  C  463  1  0.09648450  0.47123450  0.86530450  1
  C  469  1  0.06243725  0.00393575  0.45754075  1
  C  470  1  0.00852300  0.04397200  0.47371800  1
  C  471  1  0.94586500  0.04348300  0.50621100  1
  C  472  1  0.93329775  0.00293675  0.52177875  1
  C  473  1  0.98656825  0.96346975  0.50400475  1
  C  474  1  0.04934450  0.96393450  0.47391450  1
  C  476  1  0.90663850  0.12316900  0.50762000  1
  C  477  1  0.96638925  0.12365425  0.47390925  1
  C  483  1  0.53507500  0.98234800  0.53406500  1
  C  484  1  0.53731700  0.94231650  0.51786750  1
  C  485  1  0.50658200  0.94281650  0.48539250  1
  C  486  1  0.46902150  0.98336950  0.46986250  1
  C  487  1  0.46512850  0.02283050  0.48764850  1
  C  488  1  0.49834700  0.02235350  0.51772550  1
  C  490  1  0.54837850  0.86313250  0.48393850  1
  C  491  1  0.57504175  0.86263425  0.51760225  1
  H  26  1  0.52881700  0.22466350  0.91298350  1
  H  27  1  0.46715775  0.27760275  0.97070175  1
  H  28  1  0.35531300  0.25464900  0.87522800  1
  H  29  1  0.29561600  0.30961900  0.93029400  1
  H  30  1  0.27860300  0.26877900  0.01793500  1
  H  31  1  0.28010800  0.21453400  0.07512900  1
  H  32  1  0.39556525  0.26690425  0.12022025  1
  H  33  1  0.39564950  0.32027200  0.06292500  1
  H  34  1  0.29367150  0.40125450  0.05487250  1
  H  35  1  0.33825700  0.45707400  0.05786600  1
  H  36  1  0.50514550  0.40219300  0.94476400  1
  H  37  1  0.45400500  0.35293100  0.93675100  1
  H  38  1  0.30521250  0.39837800  0.93433100  1
  H  39  1  0.20175850  0.34444700  0.05201800  1
  H  40  1  0.09837375  0.38905175  0.04440975  1
  H  41  1  0.20129150  0.44954650  0.93179450  1
  H  67  1  0.67750950  0.76169300  0.07883200  1
  H  68  1  0.72659650  0.70873250  0.02111550  1
  H  69  1  0.49639550  0.73155850  0.11634650  1
  H  70  1  0.54680750  0.67658600  0.06128800  1
  H  71  1  0.57660225  0.71748475  0.97371475  1
  H  72  1  0.58104550  0.77174850  0.91654050  1
  H  73  1  0.79383800  0.71948350  0.87154150  1
  H  74  1  0.79000200  0.66609900  0.92881800  1
  H  75  1  0.76090750  0.58505600  0.93678800  1
  H  76  1  0.86423125  0.52925725  0.93378825  1
  H  77  1  0.86334250  0.58414050  0.04689750  1
  H  78  1  0.75499100  0.63339250  0.05491150  1
  H  79  1  0.64925625  0.58783475  0.05727375  1
  H  80  1  0.60942075  0.64183325  0.93961725  1
  H  81  1  0.54296125  0.59724225  0.94721525  1
  H  82  1  0.59388175  0.53668125  0.05979425  1
  H  108  1  0.76059050  0.91022250  0.76441950  1
  H  109  1  0.75198100  0.96793750  0.71146250  1
  H  110  1  0.61713250  0.87255300  0.73421300  1
  H  111  1  0.61251450  0.92761100  0.67923900  1
  H  112  1  0.55467950  0.01518600  0.72014700  1
  H  113  1  0.50186550  0.07236750  0.77440450  1
  H  114  1  0.66957025  0.11752775  0.72222475  1
  H  115  1  0.72309100  0.06024400  0.66884100  1
  H  116  1  0.70214600  0.05220750  0.58777050  1
  H  117  1  0.80248350  0.05520450  0.53197650  1
  H  118  1  0.91453900  0.94210650  0.58687850  1
  H  119  1  0.81419150  0.93409400  0.63612300  1
  H  120  1  0.71090400  0.93170100  0.59051800  1
  H  121  1  0.55349800  0.04933050  0.64449250  1
  H  122  1  0.49470900  0.04172600  0.59985300  1
  H  123  1  0.65813000  0.92917700  0.53931200  1
  H  149  1  0.44595300  0.07614100  0.22731600  1
  H  150  1  0.44212350  0.01840550  0.28024850  1
  H  151  1  0.23475800  0.11364900  0.25738100  1
  H  152  1  0.23024350  0.05857600  0.31234100  1
  H  153  1  0.30083100  0.97099200  0.27150900  1
  H  154  1  0.35948125  0.91380825  0.21724925  1
  H  155  1  0.52011700  0.86887700  0.26948200  1
  H  156  1  0.46295650  0.92615300  0.32286200  1
  H  157  1  0.35293950  0.93409450  0.40391050  1
  H  158  1  0.40058575  0.93109575  0.45968775  1
  H  159  1  0.45443575  0.04422775  0.40480075  1
  H  160  1  0.39522200  0.05224300  0.35557900  1
  H  161  1  0.24402175  0.05462075  0.40109375  1
  H  162  1  0.25811200  0.93692550  0.34717150  1
  H  163  1  0.14713400  0.94452050  0.39179350  1
  H  164  1  0.13758350  0.05714600  0.45227600  1
  H  339  1  0.51827700  0.10450600  0.04258600  1
  H  340  1  0.51925050  0.04524300  0.09855800  1
  H  341  1  0.25964250  0.18544550  0.24300550  1
  H  342  1  0.25698300  0.24166350  0.18760450  1
  H  353  1  0.67639150  0.88194650  0.94917150  1
  H  354  1  0.67410975  0.94118475  0.89317475  1
  H  355  1  0.69941700  0.80080850  0.74865550  1
  H  356  1  0.69755200  0.74460700  0.80407700  1
  H  367  1  0.62968850  0.03993450  0.88468050  1
  H  368  1  0.57123300  0.09591200  0.94393400  1
  H  369  1  0.45207425  0.24027175  0.80350875  1
  H  370  1  0.50579300  0.18486050  0.74729250  1
  H  381  1  0.56514250  0.94645250  0.10710150  1
  H  382  1  0.62208600  0.89045350  0.04786450  1
  H  383  1  0.50691150  0.74598000  0.18813700  1
  H  384  1  0.44885825  0.80140375  0.24433375  1
  H  451  1  0.39353000  0.46847950  0.15460650  1
  H  452  1  0.43994200  0.52737050  0.15547050  1
  H  453  1  0.55458300  0.52449250  0.93656350  1
  H  454  1  0.49728875  0.47621725  0.93580125  1
  H  465  1  0.02744600  0.51784300  0.83703900  1
  H  466  1  0.13350950  0.45892200  0.83616100  1
  H  467  1  0.02677050  0.46181750  0.05506550  1
  H  468  1  0.92051450  0.51012200  0.05584400  1
  H  479  1  0.86916175  0.15193925  0.52055025  1
  H  480  1  0.97436750  0.15279150  0.46163850  1
  H  481  1  0.08612625  0.93388725  0.46456125  1
  H  482  1  0.98063200  0.93313150  0.51285950  1
  H  493  1  0.55254875  0.83436675  0.47099375  1
  H  494  1  0.59983650  0.83349050  0.52988250  1
  H  495  1  0.49577650  0.05239950  0.52708850  1
  H  496  1  0.43771050  0.05317050  0.47881750  1
  N  335  1  0.43645700  0.15049300  0.08521300  1
  N  338  1  0.43795025  0.08559725  0.14680825  1
  N  349  1  0.68327350  0.83590350  0.90652250  1
  N  352  1  0.68149400  0.90077500  0.84490100  1
  N  363  1  0.59393300  0.08252900  0.83862400  1
  N  366  1  0.53034800  0.14413600  0.90351000  1
  N  377  1  0.52593500  0.90382200  0.15310800  1
  N  380  1  0.58902800  0.84219300  0.08824100  1
  N  447  1  0.42474050  0.46704350  0.08606550  1
  N  450  1  0.47728000  0.53022300  0.08699900  1
  N  461  1  0.98881600  0.51929600  0.90558200  1
  N  464  1  0.10534850  0.45607250  0.90463050  1
  N  475  1  0.89892750  0.08339650  0.52199350  1
  N  478  1  0.01452700  0.08432150  0.45877650  1
  N  489  1  0.51526200  0.90290950  0.46959650  1
  N  492  1  0.56874850  0.90196000  0.53277100  1
