# generated using pymatgen
data_Eu2H22C42N4O15
_symmetry_space_group_name_H-M   'P 1'
_cell_length_a   10.58795000
_cell_length_b   21.70485743
_cell_length_c   21.70863968
_cell_angle_alpha   86.62810598
_cell_angle_beta   75.93914687
_cell_angle_gamma   75.93664942
_symmetry_Int_Tables_number   1
_chemical_formula_structural   Eu2H22C42N4O15
_chemical_formula_sum   'Eu8 H88 C168 N16 O60'
_cell_volume   4694.33829140
_cell_formula_units_Z   4
loop_
 _symmetry_equiv_pos_site_id
 _symmetry_equiv_pos_as_xyz
  1  'x, y, z'
loop_
 _atom_site_type_symbol
 _atom_site_label
 _atom_site_symmetry_multiplicity
 _atom_site_fract_x
 _atom_site_fract_y
 _atom_site_fract_z
 _atom_site_occupancy
  Eu  Eu1  1  0.60478000  0.29223000  0.92370000  1.0
  Eu  Eu2  1  0.82124000  0.70803000  0.07547000  1.0
  Eu  Eu3  1  0.47119000  0.92403000  0.70782000  1.0
  Eu  Eu4  1  0.10338000  0.07561000  0.29238000  1.0
  Eu  Eu5  1  0.64512000  0.57632000  0.20778000  1.0
  Eu  Eu6  1  0.42884000  0.42496000  0.79206000  1.0
  Eu  Eu7  1  0.77879000  0.79217000  0.57624000  1.0
  Eu  Eu8  1  0.14650000  0.20766000  0.42438000  1.0
  H  H1  1  0.50459000  0.34107000  0.16633000  1.0
  H  H2  1  0.37889000  0.29309000  0.27838000  1.0
  H  H3  1  0.60425000  0.57920000  0.83908000  1.0
  H  H4  1  0.64321000  0.13626000  0.88446000  1.0
  H  H5  1  0.80950000  0.03187000  0.85524000  1.0
  H  H6  1  0.05060000  0.02353000  0.85342000  1.0
  H  H7  1  0.22758000  0.07657000  0.86988000  1.0
  H  H8  1  0.28533000  0.17089000  0.90410000  1.0
  H  H9  1  0.21325000  0.28294000  0.94571000  1.0
  H  H10  1  0.02542000  0.37878000  0.98038000  1.0
  H  H11  1  0.79333000  0.37706000  0.97313000  1.0
  H  H12  1  0.01477000  0.65798000  0.83191000  1.0
  H  H13  1  0.95060000  0.70696000  0.72035000  1.0
  H  H14  1  0.02316000  0.42075000  0.16116000  1.0
  H  H15  1  0.66495000  0.86357000  0.11520000  1.0
  H  H16  1  0.69735000  0.96791000  0.14467000  1.0
  H  H17  1  0.92805000  0.97650000  0.14672000  1.0
  H  H18  1  0.17429000  0.92366000  0.13049000  1.0
  H  H19  1  0.36044000  0.82948000  0.09652000  1.0
  H  H20  1  0.44219000  0.71737000  0.05450000  1.0
  H  H21  1  0.38492000  0.62158000  0.01959000  1.0
  H  H22  1  0.14413000  0.62307000  0.02664000  1.0
  H  H23  1  0.32890000  0.16645000  0.65798000  1.0
  H  H24  1  0.34176000  0.27887000  0.70602000  1.0
  H  H25  1  0.55627000  0.83890000  0.42062000  1.0
  H  H26  1  0.47208000  0.88469000  0.86363000  1.0
  H  H27  1  0.33521000  0.85526000  0.96801000  1.0
  H  H28  1  0.09598000  0.85334000  0.97644000  1.0
  H  H29  1  0.90243000  0.86973000  0.92353000  1.0
  H  H30  1  0.81030000  0.90386000  0.82927000  1.0
  H  H31  1  0.84057000  0.94561000  0.71732000  1.0
  H  H32  1  0.99360000  0.98045000  0.62146000  1.0
  H  H33  1  0.23296000  0.97323000  0.62308000  1.0
  H  H34  1  0.15207000  0.83191000  0.34204000  1.0
  H  H35  1  0.32748000  0.72036000  0.29334000  1.0
  H  H36  1  0.81621000  0.16121000  0.57891000  1.0
  H  H37  1  0.22038000  0.11542000  0.13648000  1.0
  H  H38  1  0.15835000  0.14469000  0.03209000  1.0
  H  H39  1  0.92565000  0.14653000  0.02361000  1.0
  H  H40  1  0.69566000  0.13016000  0.07652000  1.0
  H  H41  1  0.54374000  0.09599000  0.17071000  1.0
  H  H42  1  0.50392000  0.05428000  0.28275000  1.0
  H  H43  1  0.59593000  0.01963000  0.37861000  1.0
  H  H44  1  0.82968000  0.02688000  0.37706000  1.0
  H  H45  1  0.74529000  0.33369000  0.15890000  1.0
  H  H46  1  0.87104000  0.22163000  0.20686000  1.0
  H  H47  1  0.64573000  0.66096000  0.92070000  1.0
  H  H48  1  0.60675000  0.61557000  0.36373000  1.0
  H  H49  1  0.44047000  0.64475000  0.46812000  1.0
  H  H50  1  0.19936000  0.64657000  0.47646000  1.0
  H  H51  1  0.02238000  0.63013000  0.42340000  1.0
  H  H52  1  0.96464000  0.59592000  0.32910000  1.0
  H  H53  1  0.03671000  0.55430000  0.21707000  1.0
  H  H54  1  0.22457000  0.51962000  0.12124000  1.0
  H  H55  1  0.45662000  0.52689000  0.12297000  1.0
  H  H56  1  0.23538000  0.66818000  0.84171000  1.0
  H  H57  1  0.29953000  0.77990000  0.79323000  1.0
  H  H58  1  0.22699000  0.33886000  0.07909000  1.0
  H  H59  1  0.58527000  0.38475000  0.63657000  1.0
  H  H60  1  0.55278000  0.35532000  0.53219000  1.0
  H  H61  1  0.32210000  0.35335000  0.52357000  1.0
  H  H62  1  0.07583000  0.36955000  0.57639000  1.0
  H  H63  1  0.88962000  0.40351000  0.67058000  1.0
  H  H64  1  0.80789000  0.44549000  0.78259000  1.0
  H  H65  1  0.86509000  0.48041000  0.87842000  1.0
  H  H66  1  0.10590000  0.47334000  0.87695000  1.0
  H  H67  1  0.92111000  0.84212000  0.33372000  1.0
  H  H68  1  0.90841000  0.79409000  0.22128000  1.0
  H  H69  1  0.69371000  0.07963000  0.66113000  1.0
  H  H70  1  0.77790000  0.63636000  0.61535000  1.0
  H  H71  1  0.91473000  0.53198000  0.64473000  1.0
  H  H72  1  0.15400000  0.52354000  0.64665000  1.0
  H  H73  1  0.34751000  0.57646000  0.63025000  1.0
  H  H74  1  0.43964000  0.67074000  0.59615000  1.0
  H  H75  1  0.40938000  0.78271000  0.55435000  1.0
  H  H76  1  0.25634000  0.87859000  0.51953000  1.0
  H  H77  1  0.01698000  0.87698000  0.52676000  1.0
  H  H78  1  0.09716000  0.15809000  0.66826000  1.0
  H  H79  1  0.92201000  0.20696000  0.77961000  1.0
  H  H80  1  0.43403000  0.92099000  0.33885000  1.0
  H  H81  1  0.02962000  0.36354000  0.38457000  1.0
  H  H82  1  0.09167000  0.46794000  0.35530000  1.0
  H  H83  1  0.32437000  0.47642000  0.35347000  1.0
  H  H84  1  0.55436000  0.42349000  0.36982000  1.0
  H  H85  1  0.70629000  0.32927000  0.40399000  1.0
  H  H86  1  0.74608000  0.21722000  0.44571000  1.0
  H  H87  1  0.65406000  0.12134000  0.48037000  1.0
  H  H88  1  0.42031000  0.12290000  0.47309000  1.0
  C  C1  1  0.52888000  0.25889000  0.05733000  1.0
  C  C2  1  0.46916000  0.25805000  0.12586000  1.0
  C  C3  1  0.46530000  0.29884000  0.17322000  1.0
  C  C4  1  0.40034000  0.27439000  0.23088000  1.0
  C  C5  1  0.36717000  0.22043000  0.21576000  1.0
  C  C6  1  0.29670000  0.17630000  0.25644000  1.0
  C  C7  1  0.59421000  0.45367000  0.89945000  1.0
  C  C8  1  0.60899000  0.51437000  0.92048000  1.0
  C  C9  1  0.61426000  0.57067000  0.88753000  1.0
  C  C10  1  0.74838000  0.13030000  0.88473000  1.0
  C  C11  1  0.84237000  0.07222000  0.86767000  1.0
  C  C12  1  0.97533000  0.06766000  0.86681000  1.0
  C  C13  1  0.01451000  0.12097000  0.88371000  1.0
  C  C14  1  0.15016000  0.11980000  0.88450000  1.0
  C  C15  1  0.18238000  0.17194000  0.90330000  1.0
  C  C16  1  0.08200000  0.22931000  0.92234000  1.0
  C  C17  1  0.11085000  0.28351000  0.94389000  1.0
  C  C18  1  0.00768000  0.33662000  0.96266000  1.0
  C  C19  1  0.87719000  0.33602000  0.95894000  1.0
  C  C20  1  0.94702000  0.23273000  0.92043000  1.0
  C  C21  1  0.91243000  0.17758000  0.90106000  1.0
  C  C22  1  0.84914000  0.73912000  0.94159000  1.0
  C  C23  1  0.85506000  0.74009000  0.87330000  1.0
  C  C24  1  0.93940000  0.70001000  0.82543000  1.0
  C  C25  1  0.90636000  0.72488000  0.76815000  1.0
  C  C26  1  0.80338000  0.77838000  0.78400000  1.0
  C  C27  1  0.73053000  0.82329000  0.74353000  1.0
  C  C28  1  0.94771000  0.54627000  0.10156000  1.0
  C  C29  1  0.04378000  0.48557000  0.07991000  1.0
  C  C30  1  0.07265000  0.42918000  0.11264000  1.0
  C  C31  1  0.76435000  0.86963000  0.11489000  1.0
  C  C32  1  0.78307000  0.92768000  0.13220000  1.0
  C  C33  1  0.91041000  0.93235000  0.13322000  1.0
  C  C34  1  0.01974000  0.87911000  0.11635000  1.0
  C  C35  1  0.15484000  0.88038000  0.11580000  1.0
  C  C36  1  0.25791000  0.82829000  0.09710000  1.0
  C  C37  1  0.23410000  0.77089000  0.07784000  1.0
  C  C38  1  0.33859000  0.71677000  0.05627000  1.0
  C  C39  1  0.30731000  0.66366000  0.03733000  1.0
  C  C40  1  0.17261000  0.66417000  0.04088000  1.0
  C  C41  1  0.10077000  0.76740000  0.07950000  1.0
  C  C42  1  0.99176000  0.82249000  0.09879000  1.0
  C  C43  1  0.41312000  0.05772000  0.73979000  1.0
  C  C44  1  0.40383000  0.12634000  0.74110000  1.0
  C  C45  1  0.36054000  0.17368000  0.70033000  1.0
  C  C46  1  0.36762000  0.23142000  0.72481000  1.0
  C  C47  1  0.41569000  0.21638000  0.77884000  1.0
  C  C48  1  0.44575000  0.25711000  0.82294000  1.0
  C  C49  1  0.50605000  0.89841000  0.54622000  1.0
  C  C50  1  0.47101000  0.92011000  0.48551000  1.0
  C  C51  1  0.49840000  0.88744000  0.42907000  1.0
  C  C52  1  0.36664000  0.88490000  0.86965000  1.0
  C  C53  1  0.28985000  0.86771000  0.92770000  1.0
  C  C54  1  0.15777000  0.86679000  0.93231000  1.0
  C  C55  1  0.10158000  0.88369000  0.87906000  1.0
  C  C56  1  0.96513000  0.88438000  0.88029000  1.0
  C  C57  1  0.91405000  0.90313000  0.82819000  1.0
  C  C58  1  0.99527000  0.92227000  0.77082000  1.0
  C  C59  1  0.94479000  0.94384000  0.71668000  1.0
  C  C60  1  0.02911000  0.96271000  0.66359000  1.0
  C  C61  1  0.16332000  0.95904000  0.66413000  1.0
  C  C62  1  0.13213000  0.92045000  0.76736000  1.0
  C  C63  1  0.18618000  0.90114000  0.82246000  1.0
  C  C64  1  0.20923000  0.94167000  0.26130000  1.0
  C  C65  1  0.27172000  0.87336000  0.26043000  1.0
  C  C66  1  0.23461000  0.82545000  0.30030000  1.0
  C  C67  1  0.32511000  0.76816000  0.27557000  1.0
  C  C68  1  0.41323000  0.78410000  0.22249000  1.0
  C  C69  1  0.52850000  0.74433000  0.17798000  1.0
  C  C70  1  0.95147000  0.10070000  0.45377000  1.0
  C  C71  1  0.87632000  0.07956000  0.51446000  1.0
  C  C72  1  0.81484000  0.11266000  0.57067000  1.0
  C  C73  1  0.12116000  0.11518000  0.13048000  1.0
  C  C74  1  0.08516000  0.13228000  0.07240000  1.0
  C  C75  1  0.95680000  0.13317000  0.06777000  1.0
  C  C76  1  0.86434000  0.11632000  0.12103000  1.0
  C  C77  1  0.72989000  0.11555000  0.11977000  1.0
  C  C78  1  0.64561000  0.09676000  0.17185000  1.0
  C  C79  1  0.68865000  0.07770000  0.22924000  1.0
  C  C80  1  0.60570000  0.05614000  0.28338000  1.0
  C  C81  1  0.65580000  0.03737000  0.33652000  1.0
  C  C82  1  0.78687000  0.04107000  0.33600000  1.0
  C  C83  1  0.82017000  0.07960000  0.23274000  1.0
  C  C84  1  0.90987000  0.09894000  0.17766000  1.0
  C  C85  1  0.72106000  0.44272000  0.24109000  1.0
  C  C86  1  0.78083000  0.37418000  0.24187000  1.0
  C  C87  1  0.78462000  0.32680000  0.20111000  1.0
  C  C88  1  0.84964000  0.26913000  0.22555000  1.0
  C  C89  1  0.88292000  0.28427000  0.27947000  1.0
  C  C90  1  0.95321000  0.24367000  0.32369000  1.0
  C  C91  1  0.65518000  0.60133000  0.04632000  1.0
  C  C92  1  0.64097000  0.57985000  0.98568000  1.0
  C  C93  1  0.63574000  0.61254000  0.92926000  1.0
  C  C94  1  0.50159000  0.61527000  0.36970000  1.0
  C  C95  1  0.40759000  0.63232000  0.42778000  1.0
  C  C96  1  0.27465000  0.63318000  0.43233000  1.0
  C  C97  1  0.23547000  0.61629000  0.37902000  1.0
  C  C98  1  0.09979000  0.61552000  0.38019000  1.0
  C  C99  1  0.06759000  0.59672000  0.32805000  1.0
  C  C100  1  0.16797000  0.57767000  0.27069000  1.0
  C  C101  1  0.13911000  0.55612000  0.21651000  1.0
  C  C102  1  0.24229000  0.53735000  0.16340000  1.0
  C  C103  1  0.37278000  0.54107000  0.16400000  1.0
  C  C104  1  0.30295000  0.57957000  0.26728000  1.0
  C  C105  1  0.33755000  0.59894000  0.32242000  1.0
  C  C106  1  0.40084000  0.55867000  0.76069000  1.0
  C  C107  1  0.39493000  0.62700000  0.75964000  1.0
  C  C108  1  0.31069000  0.67484000  0.79975000  1.0
  C  C109  1  0.34389000  0.73218000  0.77506000  1.0
  C  C110  1  0.44704000  0.71631000  0.72164000  1.0
  C  C111  1  0.52235000  0.75583000  0.67676000  1.0
  C  C112  1  0.30209000  0.39850000  0.95378000  1.0
  C  C113  1  0.20604000  0.42017000  0.01447000  1.0
  C  C114  1  0.17728000  0.38740000  0.07081000  1.0
  C  C115  1  0.48587000  0.38499000  0.63051000  1.0
  C  C116  1  0.46712000  0.36775000  0.57244000  1.0
  C  C117  1  0.33976000  0.36678000  0.56774000  1.0
  C  C118  1  0.23041000  0.38363000  0.62096000  1.0
  C  C119  1  0.09530000  0.38421000  0.61967000  1.0
  C  C120  1  0.99220000  0.40290000  0.67174000  1.0
  C  C121  1  0.01601000  0.42214000  0.72914000  1.0
  C  C122  1  0.91148000  0.44372000  0.78323000  1.0
  C  C123  1  0.94272000  0.46265000  0.83635000  1.0
  C  C124  1  0.07741000  0.45911000  0.83586000  1.0
  C  C125  1  0.14934000  0.42048000  0.73265000  1.0
  C  C126  1  0.25839000  0.40115000  0.67760000  1.0
  C  C127  1  0.83647000  0.76023000  0.44240000  1.0
  C  C128  1  0.84590000  0.75901000  0.37378000  1.0
  C  C129  1  0.88944000  0.79977000  0.32648000  1.0
  C  C130  1  0.88251000  0.77530000  0.26871000  1.0
  C  C131  1  0.83427000  0.72131000  0.28370000  1.0
  C  C132  1  0.80412000  0.67724000  0.24299000  1.0
  C  C133  1  0.74409000  0.95379000  0.60167000  1.0
  C  C134  1  0.77895000  0.01456000  0.58010000  1.0
  C  C135  1  0.75155000  0.07108000  0.61262000  1.0
  C  C136  1  0.88334000  0.63033000  0.61511000  1.0
  C  C137  1  0.96014000  0.57228000  0.63229000  1.0
  C  C138  1  0.09220000  0.56768000  0.63322000  1.0
  C  C139  1  0.14836000  0.62095000  0.61633000  1.0
  C  C140  1  0.28480000  0.61972000  0.61563000  1.0
  C  C141  1  0.33589000  0.67183000  0.59688000  1.0
  C  C142  1  0.25466000  0.72921000  0.57774000  1.0
  C  C143  1  0.30515000  0.78335000  0.55615000  1.0
  C  C144  1  0.22083000  0.83646000  0.53728000  1.0
  C  C145  1  0.08662000  0.83591000  0.54094000  1.0
  C  C146  1  0.11780000  0.73267000  0.57955000  1.0
  C  C147  1  0.06376000  0.67756000  0.59888000  1.0
  C  C148  1  0.04044000  0.23877000  0.55836000  1.0
  C  C149  1  0.97777000  0.23971000  0.62664000  1.0
  C  C150  1  0.01465000  0.19984000  0.67459000  1.0
  C  C151  1  0.92429000  0.22474000  0.73183000  1.0
  C  C152  1  0.83661000  0.27802000  0.71587000  1.0
  C  C153  1  0.72262000  0.32317000  0.75570000  1.0
  C  C154  1  0.29853000  0.04627000  0.39914000  1.0
  C  C155  1  0.37364000  0.98560000  0.42036000  1.0
  C  C156  1  0.43518000  0.92931000  0.38740000  1.0
  C  C157  1  0.12884000  0.36954000  0.38482000  1.0
  C  C158  1  0.16485000  0.42763000  0.36771000  1.0
  C  C159  1  0.29320000  0.43226000  0.36683000  1.0
  C  C160  1  0.38565000  0.37899000  0.38368000  1.0
  C  C161  1  0.52013000  0.38024000  0.38443000  1.0
  C  C162  1  0.60442000  0.32814000  0.40322000  1.0
  C  C163  1  0.56137000  0.27074000  0.42228000  1.0
  C  C164  1  0.64431000  0.21659000  0.44385000  1.0
  C  C165  1  0.59419000  0.16345000  0.46262000  1.0
  C  C166  1  0.46314000  0.16396000  0.45891000  1.0
  C  C167  1  0.42983000  0.26725000  0.42039000  1.0
  C  C168  1  0.34014000  0.32235000  0.40105000  1.0
  N  N1  1  0.78200000  0.18150000  0.90091000  1.0
  N  N2  1  0.84772000  0.28598000  0.93781000  1.0
  N  N3  1  0.86529000  0.81852000  0.09863000  1.0
  N  N4  1  0.07210000  0.71417000  0.06194000  1.0
  N  N5  1  0.31674000  0.90113000  0.81850000  1.0
  N  N6  1  0.21399000  0.93786000  0.71410000  1.0
  N  N7  1  0.03644000  0.09898000  0.18163000  1.0
  N  N8  1  0.86627000  0.06220000  0.28600000  1.0
  N  N9  1  0.46798000  0.59909000  0.31850000  1.0
  N  N10  1  0.40224000  0.56219000  0.21404000  1.0
  N  N11  1  0.38488000  0.40126000  0.68161000  1.0
  N  N12  1  0.17797000  0.43806000  0.78587000  1.0
  N  N13  1  0.93323000  0.68150000  0.59888000  1.0
  N  N14  1  0.03600000  0.78591000  0.56207000  1.0
  N  N15  1  0.21357000  0.31838000  0.40102000  1.0
  N  N16  1  0.38372000  0.21398000  0.43780000  1.0
  O  O1  1  0.27196000  0.13118000  0.23025000  1.0
  O  O2  1  0.26565000  0.18786000  0.31584000  1.0
  O  O3  1  0.40812000  0.21006000  0.15118000  1.0
  O  O4  1  0.51981000  0.21888000  0.01897000  1.0
  O  O5  1  0.59091000  0.30303000  0.03778000  1.0
  O  O6  1  0.60266000  0.40597000  0.93598000  1.0
  O  O7  1  0.57584000  0.45610000  0.84341000  1.0
  O  O8  1  0.63435000  0.86832000  0.76955000  1.0
  O  O9  1  0.77272000  0.81233000  0.68408000  1.0
  O  O10  1  0.76990000  0.78780000  0.84865000  1.0
  O  O11  1  0.76050000  0.77810000  0.98065000  1.0
  O  O12  1  0.93868000  0.69620000  0.96025000  1.0
  O  O13  1  0.94610000  0.59443000  0.06574000  1.0
  O  O14  1  0.87520000  0.54349000  0.15739000  1.0
  O  O15  1  0.49862000  0.23085000  0.86745000  1.0
  O  O16  1  0.41542000  0.31650000  0.81188000  1.0
  O  O17  1  0.43935000  0.15182000  0.78911000  1.0
  O  O18  1  0.46437000  0.01906000  0.77850000  1.0
  O  O19  1  0.36731000  0.03829000  0.69679000  1.0
  O  O20  1  0.45865000  0.93418000  0.59447000  1.0
  O  O21  1  0.58182000  0.84272000  0.54343000  1.0
  O  O22  1  0.59958000  0.77153000  0.13445000  1.0
  O  O23  1  0.54661000  0.68456000  0.18757000  1.0
  O  O24  1  0.38194000  0.84877000  0.21289000  1.0
  O  O25  1  0.25885000  0.98060000  0.22214000  1.0
  O  O26  1  0.10094000  0.96044000  0.30412000  1.0
  O  O27  1  0.99104000  0.06421000  0.40607000  1.0
  O  O28  1  0.96683000  0.15687000  0.45627000  1.0
  O  O29  1  0.97763000  0.27006000  0.36881000  1.0
  O  O30  1  0.98433000  0.18425000  0.31225000  1.0
  O  O31  1  0.84195000  0.34886000  0.28983000  1.0
  O  O32  1  0.73014000  0.48105000  0.28112000  1.0
  O  O33  1  0.65899000  0.46229000  0.19697000  1.0
  O  O34  1  0.64617000  0.56516000  0.09423000  1.0
  O  O35  1  0.67342000  0.65742000  0.04377000  1.0
  O  O36  1  0.61719000  0.72857000  0.63178000  1.0
  O  O37  1  0.48417000  0.81548000  0.68751000  1.0
  O  O38  1  0.48004000  0.65170000  0.71206000  1.0
  O  O39  1  0.48947000  0.51951000  0.72182000  1.0
  O  O40  1  0.31135000  0.54006000  0.80368000  1.0
  O  O41  1  0.30371000  0.43425000  0.90562000  1.0
  O  O42  1  0.37462000  0.34264000  0.95655000  1.0
  O  O43  1  0.75028000  0.63306000  0.26927000  1.0
  O  O44  1  0.83520000  0.68799000  0.18358000  1.0
  O  O45  1  0.81032000  0.71107000  0.34826000  1.0
  O  O46  1  0.78553000  0.72141000  0.48101000  1.0
  O  O47  1  0.88188000  0.80332000  0.46191000  1.0
  O  O48  1  0.79122000  0.90576000  0.56572000  1.0
  O  O49  1  0.66850000  0.95649000  0.65744000  1.0
  O  O50  1  0.65411000  0.36805000  0.72871000  1.0
  O  O51  1  0.70324000  0.31261000  0.81538000  1.0
  O  O52  1  0.86787000  0.28740000  0.65118000  1.0
  O  O53  1  0.99114000  0.27792000  0.51934000  1.0
  O  O54  1  0.14858000  0.19584000  0.53971000  1.0
  O  O55  1  0.25905000  0.09402000  0.43556000  1.0
  O  O56  1  0.28313000  0.04375000  0.34301000  1.0
  O  O57  1  0.62498000  0.51946000  0.98081000  1.0
  O  O58  1  0.12489000  0.48060000  0.01947000  1.0
  O  O59  1  0.39470000  0.98050000  0.48071000  1.0
  O  O60  1  0.85516000  0.01923000  0.51970000  1.0
