# generated using pymatgen
data_ZnH8C12(NO2)2
_symmetry_space_group_name_H-M   'P 1'
_cell_length_a   7.00974000
_cell_length_b   15.60879000
_cell_length_c   15.61626000
_cell_angle_alpha   87.13458000
_cell_angle_beta   77.04266000
_cell_angle_gamma   77.05385000
_symmetry_Int_Tables_number   1
_chemical_formula_structural   ZnH8C12(NO2)2
_chemical_formula_sum   'Zn4 H32 C48 N8 O16'
_cell_volume   1622.79846685
_cell_formula_units_Z   4
loop_
 _symmetry_equiv_pos_site_id
 _symmetry_equiv_pos_as_xyz
  1  'x, y, z'
loop_
 _atom_site_type_symbol
 _atom_site_label
 _atom_site_symmetry_multiplicity
 _atom_site_fract_x
 _atom_site_fract_y
 _atom_site_fract_z
 _atom_site_occupancy
  Zn  Zn1  1  0.86350000  0.26207000  0.76139000  1.0
  Zn  Zn2  1  0.88826000  0.73782000  0.23789000  1.0
  Zn  Zn3  1  0.37482000  0.76091000  0.73802000  1.0
  Zn  Zn4  1  0.87297000  0.23848000  0.26221000  1.0
  H  H1  1  0.73148000  0.83953000  0.74166000  1.0
  H  H2  1  0.80446000  0.99066000  0.74558000  1.0
  H  H3  1  0.51943000  0.12192000  0.75254000  1.0
  H  H4  1  0.12986000  0.94527000  0.74811000  1.0
  H  H5  1  0.31156000  0.16105000  0.25865000  1.0
  H  H6  1  0.54036000  0.00987000  0.25424000  1.0
  H  H7  1  0.39365000  0.87858000  0.24714000  1.0
  H  H8  1  0.82282000  0.05475000  0.25251000  1.0
  H  H9  1  0.52663000  0.74136000  0.16053000  1.0
  H  H10  1  0.44891000  0.74561000  0.00954000  1.0
  H  H11  1  0.72686000  0.75285000  0.87818000  1.0
  H  H12  1  0.12167000  0.74773000  0.05437000  1.0
  H  H13  1  0.42901000  0.25833000  0.83916000  1.0
  H  H14  1  0.20501000  0.25437000  0.99036000  1.0
  H  H15  1  0.35921000  0.24729000  0.12138000  1.0
  H  H16  1  0.92489000  0.25176000  0.94495000  1.0
  H  H17  1  0.01767000  0.75861000  0.65972000  1.0
  H  H18  1  0.94484000  0.75465000  0.50878000  1.0
  H  H19  1  0.22902000  0.74701000  0.37763000  1.0
  H  H20  1  0.61972000  0.75148000  0.55392000  1.0
  H  H21  1  0.43645000  0.24128000  0.33969000  1.0
  H  H22  1  0.20724000  0.24538000  0.49033000  1.0
  H  H23  1  0.35119000  0.25312000  0.62198000  1.0
  H  H24  1  0.92366000  0.24803000  0.44707000  1.0
  H  H25  1  0.22275000  0.33979000  0.75871000  1.0
  H  H26  1  0.30212000  0.49043000  0.75471000  1.0
  H  H27  1  0.02571000  0.62245000  0.74693000  1.0
  H  H28  1  0.62841000  0.44731000  0.75188000  1.0
  H  H29  1  0.32090000  0.66025000  0.24142000  1.0
  H  H30  1  0.54629000  0.50934000  0.24534000  1.0
  H  H31  1  0.39339000  0.37771000  0.25300000  1.0
  H  H32  1  0.82651000  0.55314000  0.24849000  1.0
  C  C1  1  0.61486000  0.89895000  0.74358000  1.0
  C  C2  1  0.65359000  0.98222000  0.74643000  1.0
  C  C3  1  0.49581000  0.05551000  0.75073000  1.0
  C  C4  1  0.30310000  0.04273000  0.75196000  1.0
  C  C5  1  0.27756000  0.95712000  0.74767000  1.0
  C  C6  1  0.12563000  0.11768000  0.75734000  1.0
  C  C7  1  0.25680000  0.10145000  0.25671000  1.0
  C  C8  1  0.38183000  0.01826000  0.25354000  1.0
  C  C9  1  0.30163000  0.94490000  0.24918000  1.0
  C  C10  1  0.09733000  0.95734000  0.24819000  1.0
  C  C11  1  0.98191000  0.04290000  0.25281000  1.0
  C  C12  1  0.99986000  0.88240000  0.24267000  1.0
  C  C13  1  0.64099000  0.74336000  0.10102000  1.0
  C  C14  1  0.59905000  0.74640000  0.01785000  1.0
  C  C15  1  0.75237000  0.75084000  0.94455000  1.0
  C  C16  1  0.94401000  0.75196000  0.95717000  1.0
  C  C17  1  0.97424000  0.74743000  0.04263000  1.0
  C  C18  1  0.11593000  0.75745000  0.88220000  1.0
  C  C19  1  0.48606000  0.25650000  0.89864000  1.0
  C  C20  1  0.36431000  0.25361000  0.98186000  1.0
  C  C21  1  0.44925000  0.24910000  0.05508000  1.0
  C  C22  1  0.65492000  0.24740000  0.04256000  1.0
  C  C23  1  0.76542000  0.25216000  0.95698000  1.0
  C  C24  1  0.75839000  0.24074000  0.11749000  1.0
  C  C25  1  0.13451000  0.75662000  0.60034000  1.0
  C  C26  1  0.09578000  0.75365000  0.51714000  1.0
  C  C27  1  0.25357000  0.74887000  0.44383000  1.0
  C  C28  1  0.44684000  0.74715000  0.45616000  1.0
  C  C29  1  0.47223000  0.75200000  0.54179000  1.0
  C  C30  1  0.62412000  0.74068000  0.38074000  1.0
  C  C31  1  0.49103000  0.24323000  0.39932000  1.0
  C  C32  1  0.36549000  0.24634000  0.48235000  1.0
  C  C33  1  0.44444000  0.25120000  0.55592000  1.0
  C  C34  1  0.64841000  0.25278000  0.54386000  1.0
  C  C35  1  0.76468000  0.24773000  0.45843000  1.0
  C  C36  1  0.74465000  0.25926000  0.61903000  1.0
  C  C37  1  0.10883000  0.39950000  0.75679000  1.0
  C  C38  1  0.15178000  0.48254000  0.75372000  1.0
  C  C39  1  0.99949000  0.55614000  0.74882000  1.0
  C  C40  1  0.80783000  0.54394000  0.74713000  1.0
  C  C41  1  0.77623000  0.45857000  0.75221000  1.0
  C  C42  1  0.63738000  0.61929000  0.74058000  1.0
  C  C43  1  0.26451000  0.60055000  0.24338000  1.0
  C  C44  1  0.38697000  0.51748000  0.24641000  1.0
  C  C45  1  0.30289000  0.44396000  0.25121000  1.0
  C  C46  1  0.09738000  0.45611000  0.25290000  1.0
  C  C47  1  0.98597000  0.54156000  0.24798000  1.0
  C  C48  1  0.99554000  0.38073000  0.25920000  1.0
  N  N1  1  0.42961000  0.88647000  0.74349000  1.0
  N  N2  1  0.05899000  0.11359000  0.25711000  1.0
  N  N3  1  0.82653000  0.74317000  0.11328000  1.0
  N  N4  1  0.68364000  0.25669000  0.88639000  1.0
  N  N5  1  0.31999000  0.75669000  0.61251000  1.0
  N  N6  1  0.68869000  0.24302000  0.38749000  1.0
  N  N7  1  0.92297000  0.38761000  0.75701000  1.0
  N  N8  1  0.06701000  0.61243000  0.24319000  1.0
  O  O1  1  0.15074000  0.19517000  0.77045000  1.0
  O  O2  1  0.96048000  0.10395000  0.74906000  1.0
  O  O3  1  0.11524000  0.80486000  0.22934000  1.0
  O  O4  1  0.81273000  0.89614000  0.25094000  1.0
  O  O5  1  0.07749000  0.77065000  0.80483000  1.0
  O  O6  1  0.28944000  0.74913000  0.89588000  1.0
  O  O7  1  0.65466000  0.22943000  0.19518000  1.0
  O  O8  1  0.93909000  0.24638000  0.10367000  1.0
  O  O9  1  0.59924000  0.72736000  0.30333000  1.0
  O  O10  1  0.79009000  0.74852000  0.39410000  1.0
  O  O11  1  0.62910000  0.27261000  0.69643000  1.0
  O  O12  1  0.93187000  0.25143000  0.60564000  1.0
  O  O13  1  0.67583000  0.69664000  0.72740000  1.0
  O  O14  1  0.46350000  0.60599000  0.74829000  1.0
  O  O15  1  0.09731000  0.30335000  0.27267000  1.0
  O  O16  1  0.81643000  0.39406000  0.25107000  1.0
