# generated using pymatgen
data_H6C9N
_symmetry_space_group_name_H-M   'P 1'
_cell_length_a   9.99426667
_cell_length_b   15.90590000
_cell_length_c   25.76460000
_cell_angle_alpha   91.48790000
_cell_angle_beta   91.03550000
_cell_angle_gamma   91.67750000
_symmetry_Int_Tables_number   1
_chemical_formula_structural   H6C9N
_chemical_formula_sum   'H36 C54 N6'
_cell_volume   4091.87938502
_cell_formula_units_Z   6
loop_
 _symmetry_equiv_pos_site_id
 _symmetry_equiv_pos_as_xyz
  1  'x, y, z'
loop_
 _atom_site_type_symbol
 _atom_site_label
 _atom_site_symmetry_multiplicity
 _atom_site_fract_x
 _atom_site_fract_y
 _atom_site_fract_z
 _atom_site_occupancy
  C  1  1  0.00830800  0.98797167  0.96034517  1
  C  2  1  0.03994600  0.91194367  0.93368700  1
  C  3  1  0.03633700  0.90445033  0.87895900  1
  C  4  1  0.01006900  0.97574300  0.84988100  1
  C  5  1  0.98611200  0.05406300  0.87432633  1
  C  6  1  0.97943400  0.05793500  0.92904233  1
  C  10  1  0.00827900  0.99393133  0.01654883  1
  C  11  1  0.97939300  0.92288867  0.04742750  1
  C  12  1  0.98606700  0.92701233  0.10224133  1
  C  13  1  0.00992000  0.00624100  0.12703650  1
  C  14  1  0.03621700  0.07851400  0.09834483  1
  C  15  1  0.03992500  0.07114167  0.04367117  1
  C  24  1  0.01557700  0.39393333  0.73922750  1
  C  25  1  0.05074300  0.54503700  0.75484967  1
  C  26  1  0.02699100  0.48781300  0.66842400  1
  C  27  1  0.00947900  0.62661067  0.74149200  1
  C  28  1  0.02494800  0.69617767  0.77615700  1
  C  29  1  0.08277700  0.68756167  0.82620700  1
  C  30  1  0.13109800  0.60813500  0.83903933  1
  C  31  1  0.11808700  0.53947300  0.80368050  1
  C  32  1  0.95706700  0.37648300  0.78786300  1
  C  33  1  0.94927900  0.29485433  0.80751900  1
  C  34  1  0.99407000  0.22546933  0.77805900  1
  C  35  1  0.04227800  0.24049600  0.72779000  1
  C  36  1  0.05325100  0.32263367  0.70907550  1
  C  37  1  0.91207900  0.46393200  0.63803600  1
  C  38  1  0.90866000  0.47549500  0.58403800  1
  C  39  1  0.02011200  0.51168300  0.55891283  1
  C  40  1  0.13465700  0.53642800  0.58921567  1
  C  41  1  0.13826600  0.52408000  0.64312750  1
  C  54  1  0.01503500  0.52487200  0.50576650  1
  C  55  1  0.99562800  0.14350767  0.79747933  1
  C  56  1  0.08914400  0.75406900  0.86348250  1
  C  61  1  0.01568200  0.58831300  0.23775817  1
  C  62  1  0.05066000  0.43851400  0.22263083  1
  C  63  1  0.02740100  0.49486567  0.30873117  1
  C  64  1  0.00934000  0.35540933  0.23538850  1
  C  65  1  0.02485800  0.28639567  0.20097433  1
  C  66  1  0.08256800  0.29716600  0.15174800  1
  C  67  1  0.13083500  0.37839967  0.13959383  1
  C  68  1  0.11787800  0.44658500  0.17475583  1
  C  69  1  0.95695800  0.60358267  0.18830517  1
  C  70  1  0.94905800  0.68492500  0.16854817  1
  C  71  1  0.99399600  0.75598633  0.19863217  1
  C  72  1  0.04255800  0.74273800  0.24955683  1
  C  73  1  0.05348300  0.66101933  0.26844283  1
  C  74  1  0.91282400  0.51465700  0.33758350  1
  C  75  1  0.90995300  0.50326200  0.39156750  1
  C  76  1  0.02166400  0.47136100  0.41823217  1
  C  77  1  0.13576900  0.45055000  0.38944117  1
  C  78  1  0.13884200  0.46275067  0.33554517  1
  C  91  1  0.01762000  0.45848967  0.47133817  1
  C  92  1  0.99530300  0.83803200  0.17926283  1
  C  93  1  0.08896900  0.23087533  0.11458050  1
  H  7  1  0.06463400  0.86035333  0.95406500  1
  H  8  1  0.95594000  0.11421700  0.94607000  1
  H  9  1  0.01025100  0.97014400  0.81028200  1
  H  16  1  0.95590600  0.86572733  0.03005600  1
  H  17  1  0.01002000  0.01185733  0.16663833  1
  H  18  1  0.06460600  0.12365600  0.02365517  1
  H  42  1  0.95994600  0.63554500  0.70709700  1
  H  43  1  0.17704300  0.59942800  0.87426800  1
  H  44  1  0.15978600  0.48441967  0.81425733  1
  H  45  1  0.98773300  0.75236600  0.76510033  1
  H  46  1  0.09649200  0.33003167  0.67376000  1
  H  47  1  0.91820200  0.42384100  0.80993400  1
  H  48  1  0.90955600  0.28673333  0.84344167  1
  H  49  1  0.07657900  0.19214267  0.70513400  1
  H  50  1  0.82976700  0.43809567  0.65530100  1
  H  51  1  0.21690500  0.56296733  0.57219950  1
  H  52  1  0.22301200  0.54155900  0.66402500  1
  H  53  1  0.82361000  0.45784567  0.56329433  1
  H  57  1  0.05397200  0.57957567  0.49440000  1
  H  58  1  0.02797100  0.09644400  0.77348900  1
  H  59  1  0.12069500  0.74299200  0.90061300  1
  H  79  1  0.96009500  0.34463100  0.26912550  1
  H  80  1  0.17672700  0.38881300  0.10502317  1
  H  81  1  0.15957700  0.50319100  0.16477350  1
  H  82  1  0.98774300  0.22880800  0.21151850  1
  H  83  1  0.09687300  0.65522333  0.30436133  1
  H  84  1  0.91795300  0.55477700  0.16569583  1
  H  85  1  0.90909200  0.69156633  0.13208433  1
  H  86  1  0.07675000  0.79239067  0.27272283  1
  H  87  1  0.83040600  0.53745300  0.31920350  1
  H  88  1  0.21823700  0.42720500  0.40757600  1
  H  89  1  0.22339300  0.44833867  0.31579017  1
  H  90  1  0.82519300  0.51798500  0.41117667  1
  H  94  1  0.05758500  0.40585300  0.48385050  1
  H  95  1  0.02805200  0.88622367  0.20370717  1
  H  96  1  0.12050000  0.24312300  0.07790750  1
  N  19  1  0.05323100  0.15127700  0.12628400  1
  N  20  1  0.97640000  0.85386767  0.12822017  1
  N  21  1  0.97661000  0.12687667  0.84822800  1
  N  22  1  0.05339200  0.83233200  0.85126767  1
  N  23  1  0.03086500  0.47541133  0.72171967  1
  N  60  1  0.03093400  0.50739700  0.25548350  1
