# generated using pymatgen
data_H7C11N
_symmetry_space_group_name_H-M   'P 1'
_cell_length_a   33.58480000
_cell_length_b   52.37590000
_cell_length_c   52.37580000
_cell_angle_alpha   60.00018947
_cell_angle_beta   89.99870000
_cell_angle_gamma   89.99930000
_symmetry_Int_Tables_number   1
_chemical_formula_structural   H7C11N
_chemical_formula_sum   'H252 C396 N36'
_cell_volume   79787.78255524
_cell_formula_units_Z   36
loop_
 _symmetry_equiv_pos_site_id
 _symmetry_equiv_pos_as_xyz
  1  'x, y, z'
loop_
 _atom_site_type_symbol
 _atom_site_label
 _atom_site_symmetry_multiplicity
 _atom_site_fract_x
 _atom_site_fract_y
 _atom_site_fract_z
 _atom_site_occupancy
  H  7  1  0.85081100  0.61916400  0.14789600  1
  H  8  1  0.94632000  0.61167500  0.20328700  1
  H  9  1  0.82888100  0.61701100  0.22789900  1
  H  13  1  0.88236300  0.61443800  0.25852600  1
  H  14  1  0.95920100  0.61864400  0.15536700  1
  H  15  1  0.78518000  0.63504500  0.16050400  1
  H  22  1  0.85081100  0.08350800  0.23127800  1
  H  23  1  0.94632200  0.13889500  0.18337300  1
  H  24  1  0.82888400  0.16350800  0.15342500  1
  H  28  1  0.88236500  0.19413200  0.12537000  1
  H  29  1  0.95920200  0.09097700  0.22432700  1
  H  30  1  0.78518100  0.09611400  0.20279200  1
  H  37  1  0.85082500  0.16690300  0.68351800  1
  H  38  1  0.94633800  0.11897400  0.67607300  1
  H  39  1  0.82890000  0.08902400  0.68142000  1
  H  43  1  0.88238600  0.06095000  0.67888500  1
  H  44  1  0.95922400  0.15996500  0.68297000  1
  H  45  1  0.78519600  0.13841300  0.69941300  1
  H  52  1  0.35081600  0.29391500  0.89390400  1
  H  53  1  0.44632400  0.30136400  0.83852500  1
  H  54  1  0.32888700  0.29599800  0.81393500  1
  H  58  1  0.38236900  0.29853100  0.78332400  1
  H  59  1  0.45921600  0.29449200  0.88640100  1
  H  60  1  0.28518800  0.27800600  0.88131600  1
  H  67  1  0.35081900  0.82953000  0.81053500  1
  H  68  1  0.44632700  0.77413800  0.85843900  1
  H  69  1  0.32889000  0.74953800  0.88839800  1
  H  73  1  0.38236900  0.71890900  0.91644900  1
  H  74  1  0.45921600  0.82203600  0.81746400  1
  H  75  1  0.28519100  0.81693100  0.83902400  1
  H  82  1  0.35081600  0.74614300  0.35828000  1
  H  83  1  0.44633000  0.79406100  0.36573700  1
  H  84  1  0.32889000  0.82400700  0.36040500  1
  H  88  1  0.38237500  0.85207500  0.36295000  1
  H  89  1  0.45921000  0.75308500  0.35881100  1
  H  90  1  0.28518800  0.77462700  0.34239900  1
  H  97  1  0.20765000  0.74673400  0.88814900  1
  H  98  1  0.11142200  0.79959700  0.83805000  1
  H  99  1  0.22800500  0.82025500  0.80435500  1
  H  103  1  0.17416500  0.85363600  0.77895900  1
  H  104  1  0.10277800  0.76134700  0.88968200  1
  H  105  1  0.27191400  0.75583700  0.85621000  1
  H  112  1  0.20764700  0.29908500  0.81111000  1
  H  113  1  0.11141900  0.29629400  0.86398700  1
  H  114  1  0.22799600  0.30933400  0.88464600  1
  H  118  1  0.17415900  0.30132000  0.91803800  1
  H  119  1  0.10280800  0.28288500  0.82574000  1
  H  120  1  0.27191400  0.32190700  0.82022000  1
  H  127  1  0.20764100  0.82374100  0.36349200  1
  H  128  1  0.11142500  0.77364600  0.36070500  1
  H  129  1  0.22801100  0.73996100  0.37373000  1
  H  133  1  0.17418000  0.71457700  0.36572000  1
  H  134  1  0.10279000  0.82529000  0.34731500  1
  H  135  1  0.27191700  0.79181200  0.38630700  1
  H  142  1  0.70764600  0.16631900  0.15367800  1
  H  143  1  0.61141900  0.11343900  0.20376200  1
  H  144  1  0.72799700  0.09278100  0.23746100  1
  H  148  1  0.67415900  0.05938300  0.26283600  1
  H  149  1  0.60280500  0.15168700  0.15211000  1
  H  150  1  0.77191300  0.15720700  0.18561600  1
  H  157  1  0.70764000  0.61393500  0.23071400  1
  H  158  1  0.61141900  0.61673100  0.17783300  1
  H  159  1  0.72800000  0.60370800  0.15716500  1
  H  163  1  0.67416500  0.61172400  0.12377200  1
  H  164  1  0.60279300  0.63012200  0.21608800  1
  H  165  1  0.77191200  0.59111700  0.22159400  1
  H  172  1  0.70765400  0.08929600  0.67832000  1
  H  173  1  0.61143400  0.13938900  0.68110500  1
  H  174  1  0.72801700  0.17307400  0.66808100  1
  H  178  1  0.67418300  0.19846300  0.67608400  1
  H  179  1  0.60279900  0.08774600  0.69449300  1
  H  180  1  0.77193100  0.12122300  0.65550700  1
  H  199  1  0.90652100  0.58090700  0.30884200  1
  H  200  1  0.93688500  0.57685100  0.35189800  1
  H  201  1  0.00882200  0.62393800  0.25905400  1
  H  202  1  0.08456500  0.53763100  0.44925600  1
  H  203  1  0.96229600  0.53029300  0.43487500  1
  H  204  1  0.95936300  0.48439100  0.48014100  1
  H  205  1  0.08127700  0.49191800  0.49475000  1
  H  206  1  0.11718100  0.62184800  0.40217000  1
  H  207  1  0.04801800  0.71586700  0.35516700  1
  H  208  1  0.01608100  0.67340600  0.35853700  1
  H  209  1  0.14853100  0.66417000  0.39924600  1
  H  216  1  0.99602300  0.55033800  0.38501900  1
  H  217  1  0.05544700  0.58959900  0.42725900  1
  H  218  1  0.02845300  0.63969900  0.33696900  1
  H  219  1  0.03988400  0.61930000  0.30234300  1
  H  241  1  0.90653400  0.24444900  0.10858700  1
  H  242  1  0.93690400  0.28750800  0.06959400  1
  H  243  1  0.00882500  0.19465800  0.11532800  1
  H  244  1  0.08456500  0.38487400  0.01143900  1
  H  245  1  0.96230400  0.37047000  0.03318800  1
  H  246  1  0.95936400  0.41574300  0.03382000  1
  H  247  1  0.08126800  0.43037100  0.01165500  1
  H  248  1  0.11717500  0.33778900  0.97430000  1
  H  249  1  0.04800600  0.29077800  0.92729700  1
  H  250  1  0.01607500  0.29414700  0.96639300  1
  H  251  1  0.14851900  0.33486600  0.93489900  1
  H  258  1  0.99603700  0.32062800  0.06298300  1
  H  259  1  0.05543800  0.36287800  0.98146800  1
  H  260  1  0.02845600  0.27258500  0.02166000  1
  H  261  1  0.03989300  0.23795000  0.07668400  1
  H  283  1  0.90653000  0.04418400  0.64531900  1
  H  284  1  0.93689000  0.00518800  0.64125200  1
  H  285  1  0.00883700  0.05092900  0.68834900  1
  H  286  1  0.08454700  0.94703500  0.60202700  1
  H  287  1  0.96229100  0.96879700  0.59467700  1
  H  288  1  0.95935400  0.96943800  0.54877100  1
  H  289  1  0.08125400  0.94725900  0.55631000  1
  H  290  1  0.11715700  0.90989800  0.68624200  1
  H  291  1  0.04800600  0.86289800  0.78026600  1
  H  292  1  0.01606900  0.90199100  0.73780400  1
  H  293  1  0.14850700  0.87049900  0.72856400  1
  H  300  1  0.99602400  0.99858300  0.61473500  1
  H  301  1  0.05542000  0.91706600  0.65399100  1
  H  302  1  0.02844700  0.95725400  0.70409800  1
  H  303  1  0.03989300  0.01228100  0.68370300  1
  H  325  1  0.40650800  0.33209700  0.73298500  1
  H  326  1  0.43687900  0.33616400  0.68992300  1
  H  327  1  0.50882500  0.28908600  0.78276200  1
  H  328  1  0.58455600  0.37540000  0.59256200  1
  H  329  1  0.46228900  0.38274400  0.60695600  1
  H  330  1  0.45935600  0.42864900  0.56168800  1
  H  331  1  0.58126600  0.42111600  0.54706800  1
  H  332  1  0.61716900  0.29118700  0.63963600  1
  H  333  1  0.54801900  0.19716400  0.68663700  1
  H  334  1  0.51607800  0.23962100  0.68327000  1
  H  335  1  0.64852800  0.24886700  0.64255600  1
  H  342  1  0.49601600  0.36268600  0.65680700  1
  H  343  1  0.55543900  0.32343700  0.61454800  1
  H  344  1  0.52845000  0.27332600  0.70484200  1
  H  345  1  0.53989000  0.29373600  0.73946700  1
  H  367  1  0.40652300  0.66858800  0.93323300  1
  H  368  1  0.43688500  0.62553200  0.97223200  1
  H  369  1  0.50882800  0.71837100  0.92647800  1
  H  370  1  0.58456500  0.52817100  0.03036900  1
  H  371  1  0.46229800  0.54255400  0.00864900  1
  H  372  1  0.45936500  0.49728600  0.00801300  1
  H  373  1  0.58127800  0.48267600  0.03015100  1
  H  374  1  0.61717800  0.57525700  0.06750300  1
  H  375  1  0.54800700  0.62225300  0.11452300  1
  H  376  1  0.51607300  0.61888500  0.07542900  1
  H  377  1  0.64852800  0.57818300  0.10690200  1
  H  384  1  0.49602500  0.59240700  0.97883900  1
  H  385  1  0.55544500  0.55016400  0.06034400  1
  H  386  1  0.52845000  0.64045700  0.02015200  1
  H  387  1  0.53988700  0.67508100  0.96512800  1
  H  409  1  0.40652900  0.86884800  0.39650300  1
  H  410  1  0.43689700  0.90784100  0.40057000  1
  H  411  1  0.50883100  0.86209500  0.35347100  1
  H  412  1  0.58456200  0.96598400  0.43979200  1
  H  413  1  0.46230100  0.94424200  0.44713800  1
  H  414  1  0.45936200  0.94360700  0.49304400  1
  H  415  1  0.58126900  0.96576600  0.48550600  1
  H  416  1  0.61717500  0.00312300  0.35556900  1
  H  417  1  0.54800400  0.05013200  0.26155500  1
  H  418  1  0.51607600  0.01103800  0.30401800  1
  H  419  1  0.64851900  0.04252200  0.31324500  1
  H  426  1  0.49603100  0.91444600  0.42708800  1
  H  427  1  0.55543600  0.99595800  0.38782600  1
  H  428  1  0.52845600  0.95576800  0.33772300  1
  H  429  1  0.53989600  0.90074000  0.35811900  1
  H  451  1  0.16087600  0.32201500  0.73713100  1
  H  452  1  0.12678000  0.32403200  0.69616400  1
  H  453  1  0.05985100  0.28293800  0.79057800  1
  H  454  1  0.97230700  0.36735300  0.60407200  1
  H  455  1  0.09680500  0.37017600  0.61423800  1
  H  456  1  0.09995900  0.41588600  0.56880000  1
  H  457  1  0.97579300  0.41278400  0.55835200  1
  H  458  1  0.93404700  0.28541100  0.65146200  1
  H  459  1  0.99471000  0.18844900  0.69871100  1
  H  460  1  0.03085300  0.22893100  0.69583000  1
  H  461  1  0.89831000  0.24485900  0.65372900  1
  H  468  1  0.06761600  0.35161000  0.66486600  1
  H  469  1  0.99634500  0.31445300  0.62601900  1
  H  470  1  0.02806300  0.26413300  0.71541600  1
  H  471  1  0.02548400  0.28537000  0.74962800  1
  H  493  1  0.16086700  0.67274400  0.93917600  1
  H  494  1  0.12676500  0.63177600  0.97812100  1
  H  495  1  0.05985700  0.72619800  0.92483400  1
  H  496  1  0.97230200  0.53968500  0.02690900  1
  H  497  1  0.09679600  0.54985300  0.01391100  1
  H  498  1  0.09995000  0.50441600  0.01363700  1
  H  499  1  0.97578600  0.49396500  0.02719900  1
  H  500  1  0.93405200  0.58706300  0.06147200  1
  H  501  1  0.99469900  0.63433700  0.11116400  1
  H  502  1  0.03084700  0.63144700  0.07357000  1
  H  503  1  0.89830800  0.58933800  0.09975100  1
  H  510  1  0.06760500  0.60048100  0.98185100  1
  H  511  1  0.99634100  0.56163000  0.05786200  1
  H  512  1  0.02805700  0.65102900  0.01878600  1
  H  513  1  0.02548400  0.68524700  0.96334100  1
  H  535  1  0.16087900  0.87479600  0.38640700  1
  H  536  1  0.12678600  0.91375300  0.38841600  1
  H  537  1  0.05984500  0.86041900  0.34734300  1
  H  538  1  0.97230000  0.96252100  0.43173800  1
  H  539  1  0.09680200  0.94955800  0.43455300  1
  H  540  1  0.09995000  0.94928700  0.48026300  1
  H  541  1  0.97577900  0.96281000  0.47717000  1
  H  542  1  0.93404400  0.99707500  0.34979700  1
  H  543  1  0.99470500  0.04677900  0.25283400  1
  H  544  1  0.03085300  0.00918800  0.29331800  1
  H  545  1  0.89830000  0.03535200  0.30924200  1
  H  552  1  0.06761900  0.91747900  0.41599700  1
  H  553  1  0.99633700  0.99347700  0.37883400  1
  H  554  1  0.02806300  0.95439100  0.32852300  1
  H  555  1  0.02548400  0.89894200  0.34976900  1
  H  577  1  0.66087900  0.59101600  0.30468900  1
  H  578  1  0.62678600  0.58900500  0.34565500  1
  H  579  1  0.55984500  0.63008200  0.25124800  1
  H  580  1  0.47230300  0.54568200  0.43774800  1
  H  581  1  0.59680300  0.54286700  0.42759300  1
  H  582  1  0.59995300  0.49715800  0.47303200  1
  H  583  1  0.47578600  0.50025100  0.48347000  1
  H  584  1  0.43403800  0.62762800  0.39035400  1
  H  585  1  0.49470900  0.72458800  0.34310000  1
  H  586  1  0.53085300  0.68410200  0.34599300  1
  H  587  1  0.39829900  0.66818500  0.38807400  1
  H  594  1  0.56762300  0.56142500  0.37696300  1
  H  595  1  0.49633700  0.59858400  0.41580000  1
  H  596  1  0.52806300  0.64890100  0.32640400  1
  H  597  1  0.52548200  0.62765500  0.29219700  1
  H  619  1  0.66087600  0.24029300  0.10262500  1
  H  620  1  0.62678000  0.28126000  0.06367500  1
  H  621  1  0.55984800  0.18684900  0.11699500  1
  H  622  1  0.47230600  0.37335700  0.01490600  1
  H  623  1  0.59680300  0.36318900  0.02789300  1
  H  624  1  0.59995900  0.40862600  0.02816600  1
  H  625  1  0.47579200  0.41907600  0.01461700  1
  H  626  1  0.43404100  0.32596400  0.98035900  1
  H  627  1  0.49470000  0.27872000  0.93063900  1
  H  628  1  0.53084700  0.28160000  0.96823700  1
  H  629  1  0.39829900  0.32369700  0.94207600  1
  H  636  1  0.56761700  0.31256100  0.05995700  1
  H  637  1  0.49634300  0.35140900  0.98395200  1
  H  638  1  0.52806000  0.26201100  0.02302800  1
  H  639  1  0.52548200  0.22779800  0.07847800  1
  H  661  1  0.66088500  0.03824700  0.65539100  1
  H  662  1  0.62678900  0.99929100  0.65338300  1
  H  663  1  0.55986300  0.05261000  0.69447900  1
  H  664  1  0.47231500  0.95051400  0.61007800  1
  H  665  1  0.59681100  0.96349900  0.60724800  1
  H  666  1  0.59995900  0.96377100  0.56153800  1
  H  667  1  0.47579200  0.95022500  0.56464700  1
  H  668  1  0.43406200  0.91596400  0.69201700  1
  H  669  1  0.49470900  0.86625800  0.78898500  1
  H  670  1  0.53086200  0.90384800  0.74850000  1
  H  671  1  0.39831100  0.87768900  0.73257000  1
  H  678  1  0.56762600  0.99556300  0.62581500  1
  H  679  1  0.49635200  0.91955900  0.66297700  1
  H  680  1  0.52807500  0.95863800  0.71329600  1
  H  681  1  0.52549900  0.01409100  0.69205200  1
  C  1  1  0.88973400  0.61358700  0.21984200  1
  C  2  1  0.84855900  0.61607800  0.21341700  1
  C  3  1  0.83371100  0.61756200  0.18746000  1
  C  4  1  0.86127900  0.61744700  0.16707400  1
  C  5  1  0.90285600  0.61526200  0.17245800  1
  C  6  1  0.91635500  0.61321900  0.19906000  1
  C  10  1  0.79308600  0.62069200  0.18114300  1
  C  11  1  0.93066200  0.61579100  0.15236900  1
  C  12  1  0.90240300  0.61168900  0.24607800  1
  C  16  1  0.88973700  0.15545000  0.16490500  1
  C  17  1  0.84856100  0.14902800  0.16884200  1
  C  18  1  0.83371200  0.12307000  0.19331500  1
  C  19  1  0.86127900  0.10268600  0.21381500  1
  C  20  1  0.90285700  0.10806800  0.21061500  1
  C  21  1  0.91635800  0.13466700  0.18605100  1
  C  25  1  0.79308700  0.11675400  0.19650200  1
  C  26  1  0.93066200  0.08797900  0.23017500  1
  C  27  1  0.90240700  0.18168500  0.14056400  1
  C  31  1  0.88975300  0.10050400  0.67799500  1
  C  32  1  0.84857700  0.10444600  0.68047500  1
  C  33  1  0.83372600  0.12892800  0.68193900  1
  C  34  1  0.86129500  0.14943300  0.68181700  1
  C  35  1  0.90287200  0.14623000  0.67963900  1
  C  36  1  0.91637300  0.12165900  0.67761600  1
  C  40  1  0.79310200  0.13211800  0.68506800  1
  C  41  1  0.93067800  0.16579800  0.68015200  1
  C  42  1  0.90242300  0.07615600  0.67611400  1
  C  46  1  0.38973900  0.29943500  0.82198200  1
  C  47  1  0.34856200  0.29694800  0.82840800  1
  C  48  1  0.33371600  0.29548400  0.85435600  1
  C  49  1  0.36128500  0.29561700  0.87473100  1
  C  50  1  0.40286100  0.29779900  0.86934800  1
  C  51  1  0.41636100  0.29981900  0.84275300  1
  C  55  1  0.29309100  0.29235200  0.86067400  1
  C  56  1  0.43066800  0.29729400  0.88942400  1
  C  57  1  0.40240800  0.30130900  0.79575600  1
  C  61  1  0.38974200  0.75759000  0.87691000  1
  C  62  1  0.34856800  0.76401600  0.87297800  1
  C  63  1  0.33371900  0.78997100  0.84850100  1
  C  64  1  0.36128800  0.81035300  0.82799700  1
  C  65  1  0.40286400  0.80497000  0.83119800  1
  C  66  1  0.41636400  0.77836800  0.85576000  1
  C  70  1  0.29309400  0.79629000  0.84531900  1
  C  71  1  0.43067100  0.82505100  0.81163200  1
  C  72  1  0.40241100  0.73135400  0.90125100  1
  C  76  1  0.38974400  0.81252700  0.36382800  1
  C  77  1  0.34856800  0.80858600  0.36134900  1
  C  78  1  0.33371600  0.78410800  0.35987800  1
  C  79  1  0.36128500  0.76360600  0.35999200  1
  C  80  1  0.40286400  0.76681400  0.36216200  1
  C  81  1  0.41636400  0.79137700  0.36419600  1
  C  85  1  0.29309100  0.78092300  0.35674300  1
  C  86  1  0.43066800  0.74724800  0.36164200  1
  C  87  1  0.40241400  0.83687200  0.36571200  1
  C  91  1  0.16748300  0.81376900  0.81729800  1
  C  92  1  0.20863900  0.80723200  0.82098200  1
  C  93  1  0.22381800  0.78296000  0.84691800  1
  C  94  1  0.19682100  0.76444000  0.86930800  1
  C  95  1  0.15535000  0.77018900  0.86645200  1
  C  96  1  0.14132800  0.79507700  0.84035900  1
  C  100  1  0.26429200  0.77650800  0.84994500  1
  C  101  1  0.12836700  0.75248600  0.88847000  1
  C  102  1  0.15435500  0.83823600  0.79142300  1
  C  106  1  0.16747700  0.30287500  0.87815800  1
  C  107  1  0.20863300  0.30574100  0.87161500  1
  C  108  1  0.22381500  0.30408000  0.84734300  1
  C  109  1  0.19681800  0.30021400  0.82882000  1
  C  110  1  0.15534700  0.29731900  0.83456900  1
  C  111  1  0.14132500  0.29851200  0.85946200  1
  C  115  1  0.26428900  0.30750600  0.84089000  1
  C  116  1  0.12836700  0.29300700  0.81686400  1
  C  117  1  0.15435200  0.30427200  0.90263200  1
  C  121  1  0.16748900  0.75290300  0.36727200  1
  C  122  1  0.20864200  0.75658200  0.37013900  1
  C  123  1  0.22381500  0.78251500  0.36848500  1
  C  124  1  0.19681800  0.80490800  0.36460700  1
  C  125  1  0.15534700  0.80204400  0.36172400  1
  C  126  1  0.14132800  0.77595700  0.36291500  1
  C  130  1  0.26428900  0.78555000  0.37190000  1
  C  131  1  0.12835800  0.82405600  0.35742000  1
  C  132  1  0.15436700  0.72703100  0.36866900  1
  C  136  1  0.66747700  0.09926500  0.22451500  1
  C  137  1  0.70863300  0.10580800  0.22083800  1
  C  138  1  0.72381200  0.13008800  0.19490700  1
  C  139  1  0.69681800  0.14860200  0.17251100  1
  C  140  1  0.65534700  0.14285500  0.17537000  1
  C  141  1  0.64132300  0.11796500  0.20145700  1
  C  145  1  0.76428500  0.13653600  0.19187800  1
  C  146  1  0.62836700  0.16056000  0.15335300  1
  C  147  1  0.65435200  0.07479100  0.25038300  1
  C  151  1  0.66748000  0.61016100  0.16365500  1
  C  152  1  0.70863400  0.60729900  0.17019600  1
  C  153  1  0.72381200  0.60895100  0.19447500  1
  C  154  1  0.69681500  0.61282200  0.21299500  1
  C  155  1  0.65534100  0.61570600  0.20725000  1
  C  156  1  0.64132300  0.61451500  0.18235600  1
  C  160  1  0.76428400  0.60553100  0.20092600  1
  C  161  1  0.62835800  0.62001100  0.22496000  1
  C  162  1  0.65435500  0.60877200  0.13917700  1
  C  166  1  0.66749500  0.16013500  0.67453400  1
  C  167  1  0.70865100  0.15645300  0.67167400  1
  C  168  1  0.72382800  0.13052000  0.67333000  1
  C  169  1  0.69683000  0.10812800  0.67720600  1
  C  170  1  0.65535600  0.11099100  0.68008600  1
  C  171  1  0.64133800  0.13707900  0.67889100  1
  C  175  1  0.76430100  0.12748900  0.66991300  1
  C  176  1  0.62837000  0.08898000  0.68439100  1
  C  177  1  0.65437000  0.18600400  0.67314200  1
  C  181  1  0.02377200  0.53855300  0.43745000  1
  C  182  1  0.99140100  0.59776000  0.33141400  1
  C  183  1  0.06357900  0.64344900  0.38050300  1
  C  184  1  0.01155200  0.61142200  0.30398600  1
  C  185  1  0.99348900  0.61397000  0.27856100  1
  C  186  1  0.95451400  0.60344800  0.27974100  1
  C  187  1  0.93448200  0.58934900  0.30715500  1
  C  188  1  0.95263900  0.58662200  0.33258000  1
  C  189  1  0.98778500  0.52237400  0.44706100  1
  C  190  1  0.98591400  0.49545100  0.47380400  1
  C  191  1  0.01998500  0.48379600  0.49167000  1
  C  192  1  0.05604900  0.49982100  0.48226500  1
  C  193  1  0.05784400  0.52683700  0.45558300  1
  C  194  1  0.10203400  0.64143200  0.39241500  1
  C  195  1  0.12074200  0.66639900  0.39038200  1
  C  196  1  0.10152500  0.69413800  0.37630100  1
  C  197  1  0.06276300  0.69611400  0.36514300  1
  C  198  1  0.04418900  0.67117500  0.36695100  1
  C  210  1  0.04517800  0.61827000  0.38184300  1
  C  211  1  0.04399000  0.59093900  0.40850100  1
  C  212  1  0.02554400  0.56583300  0.41024300  1
  C  213  1  0.00844700  0.56853800  0.38432000  1
  C  214  1  0.00934300  0.59540400  0.35719400  1
  C  215  1  0.02778600  0.62004300  0.35641900  1
  C  223  1  0.02377500  0.37306100  0.02233300  1
  C  224  1  0.99141500  0.26702200  0.06916200  1
  C  225  1  0.06357000  0.31612700  0.97436900  1
  C  226  1  0.01156400  0.23959300  0.08292300  1
  C  227  1  0.99349400  0.21416600  0.10579500  1
  C  228  1  0.95451700  0.21534500  0.11513300  1
  C  229  1  0.93449200  0.24276200  0.10182900  1
  C  230  1  0.95265100  0.26818800  0.07913200  1
  C  231  1  0.98778600  0.38267100  0.02890100  1
  C  232  1  0.98591300  0.40940900  0.02908800  1
  C  233  1  0.01998200  0.42728000  0.02286800  1
  C  234  1  0.05604300  0.41788200  0.01624300  1
  C  235  1  0.05784100  0.39119900  0.01590800  1
  C  236  1  0.10201600  0.32804900  0.96446300  1
  C  237  1  0.12072700  0.32600600  0.94153400  1
  C  238  1  0.10150700  0.31192000  0.92788100  1
  C  239  1  0.06274500  0.30076700  0.93706500  1
  C  240  1  0.04417700  0.30257300  0.96019800  1
  C  252  1  0.04517800  0.31746100  0.99821600  1
  C  253  1  0.04399000  0.34411700  0.99889000  1
  C  254  1  0.02555000  0.34585400  0.02226100  1
  C  255  1  0.00847400  0.31992500  0.04548600  1
  C  256  1  0.00936100  0.29280400  0.04573800  1
  C  257  1  0.02779500  0.29203200  0.02187100  1
  C  265  1  0.02376000  0.95793600  0.60294500  1
  C  266  1  0.99140600  0.00475600  0.66216400  1
  C  267  1  0.06355500  0.90996400  0.70784200  1
  C  268  1  0.01156400  0.01852100  0.67582400  1
  C  269  1  0.99350000  0.04139300  0.67838100  1
  C  270  1  0.95452100  0.05073200  0.66786700  1
  C  271  1  0.93448900  0.03742700  0.65375900  1
  C  272  1  0.95264200  0.01472800  0.65103100  1
  C  273  1  0.98777100  0.96450600  0.58676600  1
  C  274  1  0.98590100  0.96470100  0.55983700  1
  C  275  1  0.01997000  0.95848200  0.54818500  1
  C  276  1  0.05602800  0.95184900  0.56421100  1
  C  277  1  0.05782900  0.95151500  0.59122800  1
  C  278  1  0.10200100  0.90005900  0.70582100  1
  C  279  1  0.12071500  0.87713200  0.73079200  1
  C  280  1  0.10150100  0.86347900  0.75853300  1
  C  281  1  0.06274500  0.87266700  0.76050800  1
  C  282  1  0.04416500  0.89579200  0.73556700  1
  C  294  1  0.04516000  0.93381000  0.68266500  1
  C  295  1  0.04395400  0.93448000  0.65533500  1
  C  296  1  0.02553500  0.95786000  0.63022400  1
  C  297  1  0.00846800  0.98108700  0.63292900  1
  C  298  1  0.00934600  0.98133400  0.65980200  1
  C  299  1  0.02778000  0.95746400  0.68444000  1
  C  307  1  0.52376400  0.37447900  0.60437000  1
  C  308  1  0.49139500  0.31525300  0.71040700  1
  C  309  1  0.56356700  0.26958400  0.66129800  1
  C  310  1  0.51154700  0.30158900  0.73783400  1
  C  311  1  0.49348200  0.29904000  0.76326000  1
  C  312  1  0.45450000  0.30954800  0.76208400  1
  C  313  1  0.43446700  0.32365300  0.73467000  1
  C  314  1  0.45262100  0.32637400  0.70924600  1
  C  315  1  0.48777700  0.39066300  0.59476300  1
  C  316  1  0.48590700  0.41758400  0.56802300  1
  C  317  1  0.51997600  0.42923700  0.55015500  1
  C  318  1  0.55603700  0.41321200  0.55955500  1
  C  319  1  0.55783000  0.38618700  0.58623200  1
  C  320  1  0.60202500  0.27160400  0.64938700  1
  C  321  1  0.62073600  0.24663600  0.65142000  1
  C  322  1  0.60152500  0.21889700  0.66550200  1
  C  323  1  0.56276300  0.21692000  0.67665700  1
  C  324  1  0.54417800  0.24185900  0.67484200  1
  C  336  1  0.54516600  0.29475900  0.65996400  1
  C  337  1  0.54394500  0.32208500  0.63330300  1
  C  338  1  0.52553200  0.34719600  0.63157500  1
  C  339  1  0.50846200  0.34449100  0.65750500  1
  C  340  1  0.50933700  0.31761900  0.68462300  1
  C  341  1  0.52778000  0.29298200  0.68539300  1
  C  349  1  0.52377200  0.53997600  0.01948600  1
  C  350  1  0.49140400  0.64601300  0.97265800  1
  C  351  1  0.56357300  0.59692000  0.06743800  1
  C  352  1  0.51155600  0.67344100  0.95889000  1
  C  353  1  0.49349400  0.69886700  0.93601300  1
  C  354  1  0.45451800  0.69768700  0.92667300  1
  C  355  1  0.43448500  0.67027500  0.93998600  1
  C  356  1  0.45263900  0.64484900  0.96268400  1
  C  357  1  0.48778600  0.53036600  0.01291600  1
  C  358  1  0.48591600  0.50362400  0.01273700  1
  C  359  1  0.51998500  0.48575800  0.01894700  1
  C  360  1  0.55604900  0.49516000  0.02556800  1
  C  361  1  0.55784400  0.52184300  0.02590400  1
  C  362  1  0.60202800  0.58501000  0.07733300  1
  C  363  1  0.62073600  0.58704500  0.10026800  1
  C  364  1  0.60151600  0.60112400  0.11392600  1
  C  365  1  0.56275400  0.61228000  0.10474300  1
  C  366  1  0.54418000  0.61047200  0.08161200  1
  C  378  1  0.54517500  0.59558200  0.04359800  1
  C  379  1  0.54398700  0.56892300  0.04292500  1
  C  380  1  0.52554400  0.56718400  0.01955800  1
  C  381  1  0.50844700  0.59310600  0.99634300  1
  C  382  1  0.50934300  0.62023200  0.99608200  1
  C  383  1  0.52778300  0.62100800  0.01994500  1
  C  391  1  0.52377200  0.95509300  0.43887300  1
  C  392  1  0.49141300  0.90826800  0.37966000  1
  C  393  1  0.56356700  0.00305700  0.33397500  1
  C  394  1  0.51156800  0.89450300  0.36599800  1
  C  395  1  0.49349700  0.87163200  0.36344200  1
  C  396  1  0.45451800  0.86229700  0.37395300  1
  C  397  1  0.43448800  0.87560400  0.38806100  1
  C  398  1  0.45264500  0.89830100  0.39079100  1
  C  399  1  0.48778300  0.94852700  0.45505100  1
  C  400  1  0.48591300  0.94833900  0.48197600  1
  C  401  1  0.51997900  0.95455600  0.49362800  1
  C  402  1  0.55604300  0.96118000  0.47760300  1
  C  403  1  0.55784100  0.96151500  0.45058800  1
  C  404  1  0.60201600  0.01296200  0.33599200  1
  C  405  1  0.62072700  0.03589000  0.31102000  1
  C  406  1  0.60150700  0.04954400  0.28328100  1
  C  407  1  0.56274500  0.04036400  0.28131100  1
  C  408  1  0.54417800  0.01722800  0.30625200  1
  C  420  1  0.54517500  0.97921200  0.35915400  1
  C  421  1  0.54398700  0.97853700  0.38648700  1
  C  422  1  0.52554400  0.95516700  0.41159200  1
  C  423  1  0.50846800  0.93194400  0.40888800  1
  C  424  1  0.50935500  0.93169000  0.38202000  1
  C  425  1  0.52778900  0.95555900  0.35738000  1
  C  433  1  0.03420800  0.36413000  0.61381000  1
  C  434  1  0.07261600  0.30486800  0.71870000  1
  C  435  1  0.98620800  0.26136300  0.67330500  1
  C  436  1  0.05429500  0.29266900  0.74673400  1
  C  437  1  0.07451500  0.29138200  0.77091500  1
  C  438  1  0.11391700  0.30211800  0.76790600  1
  C  439  1  0.13241400  0.31400100  0.74009200  1
  C  440  1  0.11216300  0.31535500  0.71591400  1
  C  441  1  0.07092500  0.37895900  0.60287800  1
  C  442  1  0.07290500  0.40577400  0.57602700  1
  C  443  1  0.03826400  0.41862000  0.55926600  1
  C  444  1  0.00148500  0.40392600  0.56993200  1
  C  445  1  0.99954700  0.37707000  0.59677400  1
  C  446  1  0.94746500  0.26515700  0.66122100  1
  C  447  1  0.92624100  0.24125000  0.66272100  1
  C  448  1  0.94317600  0.21281500  0.67598700  1
  C  449  1  0.98164800  0.20879500  0.68846200  1
  C  450  1  0.00276600  0.23266400  0.68710700  1
  C  462  1  0.00814300  0.28577100  0.67122300  1
  C  463  1  0.01012000  0.31278700  0.64423900  1
  C  464  1  0.03223700  0.33709700  0.64131000  1
  C  465  1  0.05260700  0.33387600  0.66639000  1
  C  466  1  0.05159400  0.30729900  0.69380500  1
  C  467  1  0.02909900  0.28352900  0.69574000  1
  C  475  1  0.03420300  0.54942100  0.02039400  1
  C  476  1  0.07261000  0.65431800  0.97476300  1
  C  477  1  0.98620500  0.60891700  0.06366800  1
  C  478  1  0.05430700  0.68235900  0.95895100  1
  C  479  1  0.07451500  0.70653300  0.93604000  1
  C  480  1  0.11390500  0.70351900  0.92829600  1
  C  481  1  0.13240500  0.67570500  0.94423100  1
  C  482  1  0.11215500  0.65152900  0.96705500  1
  C  483  1  0.07091600  0.53849700  0.01648100  1
  C  484  1  0.07289900  0.51164300  0.01652500  1
  C  485  1  0.03825800  0.49488100  0.02044500  1
  C  486  1  0.00147900  0.50554500  0.02447600  1
  C  487  1  0.99954400  0.53237700  0.02451000  1
  C  488  1  0.94746200  0.59683600  0.07195600  1
  C  489  1  0.92624000  0.59833100  0.09436600  1
  C  490  1  0.94316300  0.61161400  0.10952200  1
  C  491  1  0.98163800  0.62408500  0.10107000  1
  C  492  1  0.00276000  0.62272600  0.07856000  1
  C  504  1  0.00814300  0.60683500  0.04134200  1
  C  505  1  0.01013200  0.57985000  0.04131500  1
  C  506  1  0.03223400  0.57692200  0.01992800  1
  C  507  1  0.05259800  0.60200400  0.99806400  1
  C  508  1  0.05158800  0.62941900  0.99722700  1
  C  509  1  0.02909600  0.63135500  0.01906400  1
  C  517  1  0.03420600  0.95601800  0.42851200  1
  C  518  1  0.07261600  0.91037400  0.36926100  1
  C  519  1  0.98619900  0.99927100  0.32574600  1
  C  520  1  0.05429800  0.89454200  0.35705900  1
  C  521  1  0.07451200  0.87163900  0.35578500  1
  C  522  1  0.11390800  0.86390500  0.36652900  1
  C  523  1  0.13241400  0.87984600  0.37839900  1
  C  524  1  0.11216600  0.90267400  0.37974500  1
  C  525  1  0.07091600  0.95211900  0.44334300  1
  C  526  1  0.07289600  0.95216300  0.47015400  1
  C  527  1  0.03825200  0.95607200  0.48300200  1
  C  528  1  0.00147000  0.96008800  0.46831100  1
  C  529  1  0.99953800  0.96011200  0.44145100  1
  C  530  1  0.94745300  0.00755600  0.32953900  1
  C  531  1  0.92622600  0.02996000  0.30563100  1
  C  532  1  0.94315800  0.04512500  0.27719600  1
  C  533  1  0.98163600  0.03667700  0.27317700  1
  C  534  1  0.00275100  0.01415500  0.29704400  1
  C  546  1  0.00814300  0.97695200  0.35015500  1
  C  547  1  0.01009900  0.97691700  0.37717200  1
  C  548  1  0.03224000  0.95555000  0.40147800  1
  C  549  1  0.05263400  0.93370000  0.39825400  1
  C  550  1  0.05160000  0.93284500  0.37168700  1
  C  551  1  0.02910200  0.95467600  0.34791400  1
  C  559  1  0.53420600  0.54890700  0.42801600  1
  C  560  1  0.57261900  0.60816600  0.32312100  1
  C  561  1  0.48620200  0.65167400  0.36850900  1
  C  562  1  0.55429500  0.62035700  0.29509100  1
  C  563  1  0.57451300  0.62164100  0.27091000  1
  C  564  1  0.61391400  0.61090800  0.27391600  1
  C  565  1  0.63242000  0.59903400  0.30172800  1
  C  566  1  0.61216700  0.59767800  0.32590600  1
  C  567  1  0.57091900  0.53408100  0.43894900  1
  C  568  1  0.57290200  0.50726600  0.46580200  1
  C  569  1  0.53825800  0.49441500  0.48255700  1
  C  570  1  0.50147700  0.50910700  0.47188600  1
  C  571  1  0.49954100  0.53596800  0.44505000  1
  C  572  1  0.44745500  0.64788200  0.38058900  1
  C  573  1  0.42622500  0.67179400  0.37907700  1
  C  574  1  0.44316200  0.70022700  0.36580700  1
  C  575  1  0.48164000  0.70424400  0.35334300  1
  C  576  1  0.50275400  0.68037400  0.35469500  1
  C  588  1  0.50813700  0.62726500  0.37059500  1
  C  589  1  0.51009700  0.60024700  0.39757700  1
  C  590  1  0.53223800  0.57594100  0.40051400  1
  C  591  1  0.55262200  0.57916400  0.37543700  1
  C  592  1  0.55160100  0.60573400  0.34802000  1
  C  593  1  0.52909900  0.62950700  0.34607900  1
  C  601  1  0.53420900  0.36361900  0.02141800  1
  C  602  1  0.57261600  0.25872400  0.06704700  1
  C  603  1  0.48620500  0.30412400  0.97814800  1
  C  604  1  0.55429500  0.23069200  0.08288300  1
  C  605  1  0.57451300  0.20651200  0.10577500  1
  C  606  1  0.61391400  0.20951900  0.11350400  1
  C  607  1  0.63241400  0.23733300  0.09757100  1
  C  608  1  0.61216400  0.26151100  0.07474900  1
  C  609  1  0.57092200  0.37454900  0.02531600  1
  C  610  1  0.57290500  0.40139900  0.02528300  1
  C  611  1  0.53826400  0.41815900  0.02136900  1
  C  612  1  0.50148600  0.40749500  0.01734000  1
  C  613  1  0.49954400  0.38065400  0.01732500  1
  C  614  1  0.44746100  0.31620600  0.96986200  1
  C  615  1  0.42623100  0.31470400  0.94745800  1
  C  616  1  0.44316700  0.30144400  0.93228300  1
  C  617  1  0.48164000  0.28896700  0.94073800  1
  C  618  1  0.50276000  0.29032300  0.96325000  1
  C  630  1  0.50814000  0.30620300  0.00047600  1
  C  631  1  0.51011700  0.33318800  0.00050700  1
  C  632  1  0.53223800  0.33611800  0.02188600  1
  C  633  1  0.55260700  0.31103600  0.04374600  1
  C  634  1  0.55159500  0.28362100  0.04458500  1
  C  635  1  0.52909600  0.28168600  0.02274800  1
  C  643  1  0.53421800  0.95702200  0.61330000  1
  C  644  1  0.57263100  0.00265800  0.67255800  1
  C  645  1  0.48621700  0.91375900  0.71606900  1
  C  646  1  0.55432200  0.01847600  0.68477800  1
  C  647  1  0.57452800  0.04139300  0.68603200  1
  C  648  1  0.61392000  0.04913600  0.67527400  1
  C  649  1  0.63242600  0.03319200  0.66340700  1
  C  650  1  0.61217600  0.01036300  0.66206400  1
  C  651  1  0.57092800  0.96093000  0.59846300  1
  C  652  1  0.57290800  0.96088600  0.57165300  1
  C  653  1  0.53826400  0.95697200  0.55880900  1
  C  654  1  0.50148600  0.95294300  0.57350600  1
  C  655  1  0.49955600  0.95291000  0.60037100  1
  C  656  1  0.44747000  0.90547600  0.71227400  1
  C  657  1  0.42624600  0.88306900  0.73618000  1
  C  658  1  0.44317000  0.86790900  0.76461900  1
  C  659  1  0.48164600  0.87635600  0.76863700  1
  C  660  1  0.50277200  0.89886300  0.74476800  1
  C  672  1  0.50816100  0.93608000  0.69166100  1
  C  673  1  0.51014400  0.93610400  0.66464800  1
  C  674  1  0.53225200  0.95748900  0.64033500  1
  C  675  1  0.55261900  0.97935200  0.64355100  1
  C  676  1  0.55161200  0.98019100  0.67012800  1
  C  677  1  0.52911400  0.95835700  0.69390100  1
  N  220  1  0.11789800  0.71840200  0.37378800  1
  N  221  1  0.01606300  0.45831500  0.51653600  1
  N  222  1  0.93870400  0.60643700  0.25511400  1
  N  262  1  0.11788300  0.30940300  0.90613200  1
  N  263  1  0.01605700  0.45214600  0.02348700  1
  N  264  1  0.93870900  0.19071700  0.13677500  1
  N  304  1  0.11788600  0.84173900  0.78279900  1
  N  305  1  0.01604800  0.95910300  0.52269900  1
  N  306  1  0.93871900  0.07237700  0.67084700  1
  N  346  1  0.61790400  0.19463300  0.66801600  1
  N  347  1  0.51605500  0.45472300  0.52528800  1
  N  348  1  0.43870100  0.30657800  0.78670800  1
  N  388  1  0.61788900  0.60364000  0.13567500  1
  N  389  1  0.51606700  0.46089200  0.01833200  1
  N  390  1  0.43871000  0.72231500  0.90503500  1
  N  430  1  0.61788600  0.07129000  0.25901700  1
  N  431  1  0.51606100  0.95393500  0.51911600  1
  N  432  1  0.43871300  0.84065300  0.37097100  1
  N  472  1  0.92137100  0.19130600  0.67639000  1
  N  473  1  0.04225700  0.44407300  0.53436400  1
  N  474  1  0.13479900  0.30262300  0.78931100  1
  N  514  1  0.92136200  0.61200600  0.13063600  1
  N  515  1  0.04224800  0.46998000  0.01989100  1
  N  516  1  0.13480200  0.72493200  0.90640700  1
  N  556  1  0.92136000  0.06624100  0.25569000  1
  N  557  1  0.04224200  0.95551800  0.50845500  1
  N  558  1  0.13479600  0.84200100  0.36702500  1
  N  598  1  0.42136000  0.72173800  0.36541000  1
  N  599  1  0.54225100  0.46896500  0.50745900  1
  N  600  1  0.63479900  0.61040600  0.25250900  1
  N  640  1  0.42136000  0.30103800  0.91118100  1
  N  641  1  0.54225700  0.44306100  0.02191800  1
  N  642  1  0.63479900  0.18811400  0.13541200  1
  N  682  1  0.42136600  0.84680000  0.78612500  1
  N  683  1  0.54225100  0.95752700  0.53335400  1
  N  684  1  0.63480800  0.07103700  0.67478300  1
