# generated using pymatgen
data_CuH12(C5N)4
_symmetry_space_group_name_H-M   'P 1'
_cell_length_a   14.09062000
_cell_length_b   14.10104000
_cell_length_c   19.74315000
_cell_angle_alpha   90.00000000
_cell_angle_beta   90.00000000
_cell_angle_gamma   89.90646000
_symmetry_Int_Tables_number   1
_chemical_formula_structural   CuH12(C5N)4
_chemical_formula_sum   'Cu4 H48 C80 N16'
_cell_volume   3922.80855514
_cell_formula_units_Z   4
loop_
 _symmetry_equiv_pos_site_id
 _symmetry_equiv_pos_as_xyz
  1  'x, y, z'
loop_
 _atom_site_type_symbol
 _atom_site_label
 _atom_site_symmetry_multiplicity
 _atom_site_fract_x
 _atom_site_fract_y
 _atom_site_fract_z
 _atom_site_occupancy
  Cu  Cu0  1  0.50001000  0.50000000  0.99948000  1
  Cu  Cu1  1  0.00000000  0.00000000  0.50062000  1
  Cu  Cu2  1  0.99997000  0.00004000  0.99839000  1
  Cu  Cu3  1  0.50001000  0.50001000  0.50123000  1
  H  H4  1  0.66269000  0.39917000  0.22760000  1
  H  H5  1  0.75603000  0.30217000  0.13171000  1
  H  H6  1  0.67936000  0.15854000  0.07174000  1
  H  H7  1  0.81560000  0.04495000  0.07499000  1
  H  H8  1  0.49452000  0.65283000  0.26221000  1
  H  H9  1  0.49576000  0.64679000  0.38786000  1
  H  H10  1  0.33732000  0.60083000  0.22759000  1
  H  H11  1  0.24398000  0.69783000  0.13171000  1
  H  H12  1  0.32064000  0.84146000  0.07174000  1
  H  H13  1  0.18441000  0.95506000  0.07498000  1
  H  H14  1  0.50548000  0.34717000  0.26221000  1
  H  H15  1  0.50424000  0.35321000  0.38786000  1
  H  H16  1  0.10042000  0.16242000  0.72879000  1
  H  H17  1  0.19523000  0.25764000  0.63244000  1
  H  H18  1  0.33831000  0.17564000  0.57221000  1
  H  H19  1  0.46534000  0.29883000  0.56627000  1
  H  H20  1  0.84695000  0.99572000  0.76342000  1
  H  H21  1  0.85275000  0.99766000  0.88877000  1
  H  H22  1  0.89959000  0.83758000  0.72879000  1
  H  H23  1  0.80478000  0.74235000  0.63244000  1
  H  H24  1  0.66170000  0.82436000  0.57221000  1
  H  H25  1  0.53466000  0.70117000  0.56627000  1
  H  H26  1  0.15305000  0.00429000  0.76342000  1
  H  H27  1  0.14725000  0.00232000  0.88877000  1
  H  H28  1  0.16250000  0.10041000  0.27241000  1
  H  H29  1  0.25577000  0.19747000  0.36828000  1
  H  H30  1  0.17884000  0.34130000  0.42824000  1
  H  H31  1  0.31489000  0.45469000  0.42496000  1
  H  H32  1  0.99484000  0.84718000  0.23819000  1
  H  H33  1  0.99595000  0.85322000  0.11250000  1
  H  H34  1  0.83750000  0.89959000  0.27241000  1
  H  H35  1  0.74423000  0.80252000  0.36828000  1
  H  H36  1  0.82116000  0.65870000  0.42824000  1
  H  H37  1  0.68512000  0.54531000  0.42496000  1
  H  H38  1  0.00516000  0.15282000  0.23819000  1
  H  H39  1  0.00406000  0.14678000  0.11250000  1
  H  H40  1  0.60092000  0.33737000  0.77110000  1
  H  H41  1  0.69564000  0.24203000  0.86756000  1
  H  H42  1  0.83850000  0.32410000  0.92786000  1
  H  H43  1  0.96577000  0.20064000  0.93371000  1
  H  H44  1  0.34694000  0.50451000  0.73647000  1
  H  H45  1  0.35282000  0.50250000  0.61108000  1
  H  H46  1  0.39909000  0.66263000  0.77110000  1
  H  H47  1  0.30437000  0.75797000  0.86756000  1
  H  H48  1  0.16151000  0.67590000  0.92786000  1
  H  H49  1  0.03424000  0.79938000  0.93371000  1
  H  H50  1  0.65307000  0.49549000  0.73647000  1
  H  H51  1  0.64719000  0.49750000  0.61108000  1
  C  C52  1  0.56809000  0.44365000  0.14151000  1
  C  C53  1  0.64536000  0.39490000  0.17433000  1
  C  C54  1  0.69325000  0.34558000  0.12522000  1
  C  C55  1  0.64602000  0.36441000  0.06218000  1
  C  C56  1  0.74184000  0.17073000  0.04060000  1
  C  C57  1  0.81721000  0.10700000  0.04214000  1
  C  C58  1  0.49609000  0.58473000  0.28804000  1
  C  C59  1  0.49671000  0.58174000  0.35818000  1
  C  C60  1  0.43191000  0.55635000  0.14151000  1
  C  C61  1  0.35464000  0.60510000  0.17434000  1
  C  C62  1  0.30674000  0.65443000  0.12522000  1
  C  C63  1  0.35398000  0.63559000  0.06218000  1
  C  C64  1  0.25817000  0.82928000  0.04060000  1
  C  C65  1  0.18280000  0.89301000  0.04214000  1
  C  C66  1  0.50391000  0.41528000  0.28804000  1
  C  C67  1  0.50329000  0.41826000  0.35818000  1
  C  C68  1  0.05568000  0.06860000  0.64249000  1
  C  C69  1  0.10413000  0.14583000  0.67538000  1
  C  C70  1  0.15232000  0.19462000  0.62616000  1
  C  C71  1  0.13309000  0.14797000  0.56305000  1
  C  C72  1  0.32969000  0.23752000  0.53991000  1
  C  C73  1  0.40086000  0.30544000  0.53621000  1
  C  C74  1  0.91521000  0.99682000  0.78917000  1
  C  C75  1  0.91804000  0.99785000  0.85930000  1
  C  C76  1  0.94432000  0.93140000  0.64249000  1
  C  C77  1  0.89588000  0.85416000  0.67537000  1
  C  C78  1  0.84770000  0.80538000  0.62616000  1
  C  C79  1  0.86692000  0.85203000  0.56306000  1
  C  C80  1  0.67032000  0.76248000  0.53990000  1
  C  C81  1  0.59915000  0.69457000  0.53621000  1
  C  C82  1  0.08479000  0.00319000  0.78917000  1
  C  C83  1  0.08195000  0.00214000  0.85930000  1
  C  C84  1  0.06815000  0.05614000  0.35863000  1
  C  C85  1  0.14528000  0.10475000  0.32569000  1
  C  C86  1  0.19312000  0.15409000  0.37475000  1
  C  C87  1  0.14599000  0.13535000  0.43782000  1
  C  C88  1  0.24143000  0.32893000  0.45928000  1
  C  C89  1  0.31663000  0.39263000  0.45780000  1
  C  C90  1  0.99628000  0.91525000  0.21230000  1
  C  C91  1  0.99684000  0.91827000  0.14216000  1
  C  C92  1  0.93185000  0.94386000  0.35863000  1
  C  C93  1  0.85472000  0.89525000  0.32570000  1
  C  C94  1  0.80689000  0.84590000  0.37475000  1
  C  C95  1  0.85401000  0.86465000  0.43782000  1
  C  C96  1  0.75858000  0.67107000  0.45927000  1
  C  C97  1  0.68337000  0.60738000  0.45780000  1
  C  C98  1  0.00372000  0.08475000  0.21230000  1
  C  C99  1  0.00316000  0.08173000  0.14216000  1
  C  C100  1  0.55581000  0.43132000  0.85739000  1
  C  C101  1  0.60444000  0.35399000  0.82451000  1
  C  C102  1  0.65263000  0.30512000  0.87379000  1
  C  C103  1  0.63325000  0.35186000  0.93688000  1
  C  C104  1  0.82993000  0.26209000  0.96002000  1
  C  C105  1  0.90129000  0.19416000  0.96376000  1
  C  C106  1  0.41521000  0.50329000  0.71072000  1
  C  C107  1  0.41807000  0.50224000  0.64057000  1
  C  C108  1  0.44419000  0.56867000  0.85739000  1
  C  C109  1  0.39557000  0.64601000  0.82452000  1
  C  C110  1  0.34738000  0.69487000  0.87380000  1
  C  C111  1  0.36675000  0.64813000  0.93687000  1
  C  C112  1  0.17008000  0.73791000  0.96002000  1
  C  C113  1  0.09872000  0.80585000  0.96376000  1
  C  C114  1  0.58480000  0.49670000  0.71072000  1
  C  C115  1  0.58194000  0.49775000  0.64057000  1
  C  C116  1  0.67201000  0.32526000  0.99951000  1
  C  C117  1  0.74755000  0.25217000  0.99967000  1
  C  C118  1  0.32799000  0.67474000  0.99952000  1
  C  C119  1  0.25245000  0.74784000  0.99968000  1
  C  C120  1  0.17189000  0.17453000  0.50045000  1
  C  C121  1  0.24731000  0.24753000  0.50025000  1
  C  C122  1  0.82812000  0.82547000  0.50045000  1
  C  C123  1  0.75270000  0.75247000  0.50026000  1
  C  C124  1  0.50000000  0.50000000  0.17558000  1
  C  C125  1  0.50000000  0.50000000  0.24985000  1
  C  C126  1  0.00000000  0.00000000  0.67656000  1
  C  C127  1  0.00000000  0.99999000  0.75085000  1
  C  C128  1  0.00000000  0.00000000  0.32465000  1
  C  C129  1  0.00000000  0.00000000  0.25042000  1
  C  C130  1  0.50000000  0.50000000  0.82332000  1
  C  C131  1  0.50000000  0.50000000  0.74903000  1
  N  N132  1  0.57083000  0.42692000  0.07267000  1
  N  N133  1  0.42917000  0.57308000  0.07267000  1
  N  N134  1  0.07158000  0.07214000  0.57357000  1
  N  N135  1  0.92842000  0.92786000  0.57357000  1
  N  N136  1  0.07096000  0.07287000  0.42744000  1
  N  N137  1  0.92905000  0.92713000  0.42744000  1
  N  N138  1  0.57167000  0.42780000  0.92631000  1
  N  N139  1  0.42833000  0.57219000  0.92631000  1
  N  N140  1  0.89703000  0.11796000  0.00510000  1
  N  N141  1  0.10299000  0.88206000  0.00510000  1
  N  N142  1  0.39636000  0.38168000  0.49494000  1
  N  N143  1  0.60364000  0.61832000  0.49494000  1
  N  N144  1  0.50000000  0.50000000  0.39439000  1
  N  N145  1  0.00000000  0.99999000  0.89569000  1
  N  N146  1  0.00000000  0.00000000  0.10597000  1
  N  N147  1  0.50000000  0.50000000  0.60414000  1
