# generated using pymatgen
data_H32C49(SN6)2
_symmetry_space_group_name_H-M   'P 1'
_cell_length_a   30.59840000
_cell_length_b   47.63775000
_cell_length_c   47.63770000
_cell_angle_alpha   119.99989584
_cell_angle_beta   90.00000000
_cell_angle_gamma   90.00000000
_symmetry_Int_Tables_number   1
_chemical_formula_structural   H32C49(SN6)2
_chemical_formula_sum   'H192 C294 S12 N72'
_cell_volume   60135.62530761
_cell_formula_units_Z   6
loop_
 _symmetry_equiv_pos_site_id
 _symmetry_equiv_pos_as_xyz
  1  'x, y, z'
loop_
 _atom_site_type_symbol
 _atom_site_label
 _atom_site_symmetry_multiplicity
 _atom_site_fract_x
 _atom_site_fract_y
 _atom_site_fract_z
 _atom_site_occupancy
  H  9  1  0.51815100  0.96710700  0.38388800  1
  H  10  1  0.58350100  0.96896200  0.35765200  1
  H  11  1  0.64923600  0.93324600  0.36211500  1
  H  12  1  0.72783800  0.94543300  0.28072200  1
  H  13  1  0.70778700  0.99244200  0.33013300  1
  H  14  1  0.68229600  0.96729400  0.41830300  1
  H  15  1  0.74650000  0.96709100  0.44587600  1
  H  29  1  0.09974300  0.93645700  0.65987100  1
  H  30  1  0.11897600  0.98424300  0.65905800  1
  H  31  1  0.17969800  0.92767500  0.56828100  1
  H  32  1  0.14173800  0.96237700  0.54813000  1
  H  33  1  0.07656800  0.96415000  0.52214400  1
  H  34  1  0.24481900  0.96420500  0.60865500  1
  H  36  1  0.30928600  0.96421800  0.58056800  1
  H  43  1  0.80213900  0.99311800  0.48681200  1
  H  53  1  0.43794400  0.92795000  0.37021400  1
  H  54  1  0.38321500  0.93235600  0.36111600  1
  H  56  1  0.28566400  0.94048100  0.40676100  1
  H  60  1  0.66929600  0.88647000  0.31286200  1
  H  64  1  0.39894200  0.89808400  0.36431500  1
  H  65  1  0.31857500  0.90988900  0.37646200  1
  H  66  1  0.30146300  0.90635200  0.40996000  1
  H  67  1  0.08554600  0.88472200  0.65217200  1
  H  68  1  0.16045500  0.87982400  0.56915600  1
  H  75  1  0.52122600  0.99536400  0.48600200  1
  H  77  1  0.02122200  0.99563600  0.51098300  1
  H  103  1  0.93309800  0.65689300  0.71895700  1
  H  104  1  0.95230600  0.65609000  0.67035600  1
  H  105  1  0.99386600  0.56619000  0.68485900  1
  H  106  1  0.01308800  0.56532500  0.63613300  1
  H  107  1  0.97508100  0.54516600  0.58131200  1
  H  108  1  0.90990600  0.51917200  0.55357700  1
  H  109  1  0.85148300  0.61012000  0.58472300  1
  H  110  1  0.91683900  0.63637100  0.61279400  1
  H  111  1  0.98259700  0.63188500  0.57263500  1
  H  112  1  0.00263300  0.68114200  0.57510800  1
  H  113  1  0.06111000  0.71333500  0.66624100  1
  H  114  1  0.04109200  0.66391900  0.66384700  1
  H  115  1  0.07816000  0.60570400  0.63997100  1
  H  116  1  0.01561700  0.57570300  0.55049700  1
  H  117  1  0.07982000  0.54813500  0.52271400  1
  H  122  1  0.14261700  0.57759000  0.61186900  1
  H  137  1  0.59973300  0.05457300  0.33714200  1
  H  138  1  0.61898300  0.00678400  0.33794200  1
  H  139  1  0.66043900  0.11119900  0.42786500  1
  H  140  1  0.67970300  0.06334100  0.42872300  1
  H  141  1  0.64173600  0.02864200  0.44886500  1
  H  142  1  0.57656200  0.02687300  0.47485000  1
  H  143  1  0.74480400  0.02681300  0.38834100  1
  H  146  1  0.80925900  0.02683400  0.41645700  1
  H  172  1  0.26634300  0.27510100  0.93942300  1
  H  173  1  0.28557300  0.32369200  0.98721600  1
  H  174  1  0.32717300  0.30917700  0.88282200  1
  H  175  1  0.34640600  0.35789400  0.93068300  1
  H  176  1  0.30838400  0.41270300  0.96533300  1
  H  177  1  0.24320800  0.44043400  0.96706200  1
  H  178  1  0.18479000  0.40930900  0.02688300  1
  H  179  1  0.25014900  0.38125000  0.02507500  1
  H  180  1  0.31596300  0.42141000  0.06074800  1
  H  181  1  0.33601300  0.41894900  0.10753200  1
  H  182  1  0.39443200  0.32779100  0.04859000  1
  H  183  1  0.37439100  0.33018400  0.00157400  1
  H  184  1  0.41148200  0.35405500  0.96725400  1
  H  185  1  0.34895200  0.44353700  0.02668100  1
  H  186  1  0.41317100  0.47130900  0.02691800  1
  H  191  1  0.47596200  0.38213900  0.96726400  1
  H  217  1  0.43298600  0.33418500  0.27810600  1
  H  218  1  0.45222900  0.33499500  0.32670100  1
  H  219  1  0.49393700  0.42480900  0.31210700  1
  H  220  1  0.51318300  0.42568000  0.36083100  1
  H  221  1  0.47504700  0.44584700  0.41561600  1
  H  222  1  0.40988300  0.47184100  0.44338000  1
  H  223  1  0.35154700  0.38089200  0.41236900  1
  H  224  1  0.41688000  0.35464300  0.38426200  1
  H  225  1  0.48270400  0.35917100  0.42439700  1
  H  226  1  0.50272200  0.30991100  0.42192300  1
  H  227  1  0.56102200  0.27764700  0.33071900  1
  H  228  1  0.54102100  0.32706700  0.33311400  1
  H  229  1  0.57819600  0.38527000  0.35703900  1
  H  230  1  0.51558800  0.41538600  0.44651400  1
  H  231  1  0.57978800  0.44295700  0.47429900  1
  H  236  1  0.64265100  0.41338400  0.38514100  1
  H  247  1  0.01815300  0.02391700  0.61310700  1
  H  248  1  0.08350000  0.02205700  0.63934200  1
  H  249  1  0.14922900  0.05777300  0.63487900  1
  H  250  1  0.16929500  0.10454900  0.68412800  1
  H  251  1  0.22785100  0.04559400  0.71627100  1
  H  252  1  0.20779400  0.99858200  0.66686400  1
  H  253  1  0.18229600  0.02372500  0.57870800  1
  H  254  1  0.24650500  0.02396200  0.55115700  1
  H  282  1  0.76636500  0.71593000  0.05757200  1
  H  283  1  0.78560400  0.66734100  0.00978000  1
  H  284  1  0.82713700  0.68183700  0.11418000  1
  H  285  1  0.84638400  0.63312500  0.06631800  1
  H  286  1  0.80838400  0.57830500  0.03165300  1
  H  287  1  0.74320300  0.55058000  0.02992200  1
  H  288  1  0.68478500  0.58173000  0.97012200  1
  H  289  1  0.75015200  0.60978400  0.97193200  1
  H  290  1  0.81595200  0.56961900  0.93625200  1
  H  291  1  0.83601100  0.57207900  0.88947000  1
  H  292  1  0.89446800  0.66322100  0.94841500  1
  H  293  1  0.87441700  0.66083200  0.99543000  1
  H  294  1  0.91147800  0.63696700  0.02976300  1
  H  295  1  0.84896000  0.54748700  0.97030400  1
  H  296  1  0.91317500  0.51971500  0.97008200  1
  H  301  1  0.97595200  0.60888200  0.02976400  1
  H  316  1  0.27128100  0.36722400  0.43778500  1
  H  317  1  0.21655300  0.35812700  0.42427800  1
  H  318  1  0.23227900  0.36131600  0.46174500  1
  H  320  1  0.15191200  0.37346300  0.46208900  1
  H  321  1  0.11899900  0.40376200  0.46179500  1
  H  322  1  0.13479000  0.40695900  0.49912300  1
  H  324  1  0.13548300  0.50722700  0.50779000  1
  H  326  1  0.35460900  0.48332700  0.48586100  1
  H  335  1  0.93798900  0.06306500  0.62679900  1
  H  336  1  0.88326400  0.05866300  0.63590800  1
  H  337  1  0.89899200  0.09293900  0.63271200  1
  H  339  1  0.81861900  0.08114500  0.62058400  1
  H  340  1  0.78569700  0.05055900  0.59028900  1
  H  341  1  0.80149000  0.08469300  0.58709700  1
  H  357  1  0.60467200  0.55635300  0.93107400  1
  H  358  1  0.54992000  0.56980200  0.93541900  1
  H  359  1  0.56574800  0.53235300  0.90115500  1
  H  361  1  0.48535800  0.53192300  0.91285400  1
  H  362  1  0.45239500  0.53216800  0.94340100  1
  H  363  1  0.46828800  0.49486300  0.90927800  1
  H  365  1  0.46882400  0.48618200  0.00087200  1
  H  367  1  0.68777800  0.50776300  0.99812500  1
  H  382  1  0.77133400  0.62378600  0.55933000  1
  H  383  1  0.71658800  0.63289000  0.57278700  1
  H  384  1  0.73240000  0.62970900  0.53533900  1
  H  386  1  0.65201400  0.61757700  0.53491700  1
  H  387  1  0.61905500  0.58727800  0.53516700  1
  H  388  1  0.63493800  0.58409300  0.49786000  1
  H  390  1  0.63548700  0.48383600  0.48919000  1
  H  392  1  0.85449300  0.50796300  0.51091800  1
  H  399  1  0.30215500  0.99795500  0.51022600  1
  H  415  1  0.10470700  0.43467100  0.06592300  1
  H  416  1  0.04996200  0.42121700  0.06158500  1
  H  417  1  0.06578300  0.45866700  0.09584500  1
  H  419  1  0.98539100  0.45908600  0.08415000  1
  H  420  1  0.95241700  0.45883800  0.05360800  1
  H  421  1  0.96830800  0.49614400  0.08772600  1
  H  423  1  0.96880600  0.50485500  0.99617600  1
  H  425  1  0.18778000  0.48325700  0.99885600  1
  H  440  1  0.10437400  0.82467100  0.51926700  1
  H  441  1  0.06810000  0.79360200  0.49317000  1
  H  442  1  0.12478300  0.78522800  0.49325500  1
  H  444  1  0.08009800  0.73432900  0.47454600  1
  H  445  1  0.04167100  0.71910500  0.49124700  1
  H  446  1  0.09813100  0.71068800  0.49137200  1
  H  448  1  0.05447500  0.72096800  0.57921000  1
  H  461  1  0.77101100  0.68710600  0.16936200  1
  H  462  1  0.73474600  0.69208900  0.20043800  1
  H  463  1  0.79143500  0.70053500  0.20880000  1
  H  465  1  0.74677400  0.73274000  0.25970800  1
  H  466  1  0.70835900  0.76467200  0.27493900  1
  H  467  1  0.76482600  0.77320300  0.28334400  1
  H  468  1  0.72119700  0.85076700  0.27306500  1
  H  470  1  0.75214400  0.75994300  0.10930800  1
  H  485  1  0.43771200  0.47474800  0.30690400  1
  H  486  1  0.40143800  0.50084900  0.30193800  1
  H  487  1  0.45812500  0.50076400  0.29347800  1
  H  489  1  0.41344200  0.51948000  0.26129400  1
  H  490  1  0.37501600  0.50278700  0.22936900  1
  H  491  1  0.43147900  0.50265900  0.22082800  1
  H  493  1  0.38779700  0.41482900  0.14326600  1
  H  495  1  0.41888100  0.34185000  0.23403700  1
  H  510  1  0.60435500  0.16637900  0.47776100  1
  H  511  1  0.56808500  0.19745100  0.50385400  1
  H  512  1  0.62477100  0.20582100  0.50376700  1
  H  514  1  0.58009200  0.25672200  0.52246600  1
  H  515  1  0.54167100  0.27194500  0.50576100  1
  H  516  1  0.59813900  0.28035300  0.50563200  1
  H  518  1  0.55460400  0.27007800  0.41778300  1
  H  520  1  0.58546800  0.10630900  0.34487100  1
  H  535  1  0.27103600  0.30391600  0.82764300  1
  H  536  1  0.23475600  0.29894400  0.79657700  1
  H  537  1  0.29144200  0.29049100  0.78819900  1
  H  539  1  0.24675400  0.25829700  0.73730300  1
  H  540  1  0.20833000  0.22637000  0.72207900  1
  H  541  1  0.26479400  0.21783200  0.71366000  1
  H  543  1  0.22113100  0.14027300  0.72394300  1
  H  545  1  0.25215900  0.23107700  0.88768600  1
  H  560  1  0.93770700  0.51625700  0.69009500  1
  H  561  1  0.90143100  0.49016300  0.69506900  1
  H  562  1  0.95811700  0.49023900  0.70351900  1
  H  564  1  0.91343700  0.47153100  0.73571200  1
  H  565  1  0.87501600  0.48823200  0.76764000  1
  H  566  1  0.93148000  0.48835200  0.77617800  1
  H  568  1  0.88777700  0.57618900  0.85373000  1
  H  570  1  0.91873400  0.64911000  0.76291600  1
  C  1  1  0.74614200  0.98073500  0.43478400  1
  C  2  1  0.70807500  0.98096300  0.41837900  1
  C  3  1  0.67333400  0.96844400  0.35093100  1
  C  4  1  0.69804100  0.97042000  0.32667600  1
  C  5  1  0.71042100  0.94263100  0.29750800  1
  C  6  1  0.66471100  0.93659700  0.34501300  1
  C  7  1  0.54444900  0.97964600  0.39780600  1
  C  8  1  0.58332100  0.98055000  0.38240000  1
  C  17  1  0.28354700  0.99267700  0.56171900  1
  C  18  1  0.20483000  0.99154500  0.59448600  1
  C  19  1  0.24389400  0.97605300  0.59575300  1
  C  20  1  0.28222300  0.97624600  0.57943400  1
  C  21  1  0.16357000  0.99251700  0.61317900  1
  C  22  1  0.12143700  0.99430500  0.59673900  1
  C  23  1  0.15471900  0.96169900  0.61481700  1
  C  24  1  0.12956100  0.96257800  0.64035000  1
  C  25  1  0.11774700  0.93421100  0.64079800  1
  C  26  1  0.16437000  0.93028300  0.58849900  1
  C  27  1  0.11660600  0.97629400  0.56245100  1
  C  28  1  0.07802600  0.97723300  0.54689300  1
  C  37  1  0.95420700  0.99546100  0.51290700  1
  C  38  1  0.94526600  0.97830400  0.47923100  1
  C  39  1  0.90408200  0.97881400  0.46684900  1
  C  44  1  0.99622000  0.99416700  0.52354400  1
  C  45  1  0.36904800  0.99436000  0.50967600  1
  C  46  1  0.37728000  0.97694500  0.47581200  1
  C  47  1  0.41929600  0.97739700  0.46317000  1
  C  49  1  0.39267300  0.94176000  0.40901900  1
  C  50  1  0.35084100  0.94139500  0.42163900  1
  C  52  1  0.40386700  0.92403200  0.37418100  1
  C  55  1  0.31216600  0.92344600  0.40242700  1
  C  57  1  0.32745700  0.99546300  0.52190700  1
  C  58  1  0.70052700  0.91131400  0.29181100  1
  C  59  1  0.67722900  0.90871700  0.31602800  1
  C  62  1  0.12941700  0.90326900  0.61501700  1
  C  63  1  0.15262400  0.90181400  0.58875800  1
  C  70  1  0.09720000  0.86715800  0.63125800  1
  C  73  1  0.72240900  0.85643000  0.25564500  1
  C  74  1  0.04165100  0.99548300  0.56510900  1
  C  76  1  0.54164900  0.99553600  0.43188500  1
  C  78  1  0.11685800  0.55870100  0.56456300  1
  C  79  1  0.07946400  0.55921900  0.54744900  1
  C  80  1  0.04140300  0.57562900  0.56408700  1
  C  81  1  0.03817100  0.59151300  0.59845400  1
  C  82  1  0.07722800  0.59278600  0.61522200  1
  C  83  1  0.11555100  0.57645100  0.59870800  1
  C  84  1  0.99691100  0.61020500  0.61619100  1
  C  85  1  0.00669500  0.64309300  0.61902900  1
  C  86  1  0.03136600  0.66736200  0.64526900  1
  C  87  1  0.04373600  0.69652800  0.64663900  1
  C  88  1  0.03383400  0.70221500  0.62101400  1
  C  89  1  0.01055800  0.67798500  0.59419600  1
  C  90  1  0.99805400  0.64899800  0.59309300  1
  C  91  1  0.95476900  0.59377300  0.59797000  1
  C  92  1  0.98803900  0.61185000  0.64864900  1
  C  93  1  0.96289700  0.63738400  0.67331100  1
  C  94  1  0.95108600  0.63781700  0.70211800  1
  C  95  1  0.96276600  0.61202900  0.70726800  1
  C  96  1  0.98602500  0.58579400  0.68247700  1
  C  97  1  0.99773700  0.58553100  0.65374100  1
  C  98  1  0.94994800  0.55948400  0.58170700  1
  C  99  1  0.91137100  0.54391900  0.56521300  1
  C  100  1  0.87498100  0.56212900  0.56519000  1
  C  101  1  0.87778300  0.59620600  0.58335000  1
  C  102  1  0.91665800  0.61162300  0.59964900  1
  C  123  1  0.78352400  0.99838600  0.43532000  1
  C  124  1  0.70483000  0.99945800  0.40250800  1
  C  125  1  0.74387900  0.01497100  0.40124900  1
  C  126  1  0.78220400  0.01479600  0.41758400  1
  C  127  1  0.66357000  0.99850300  0.38381900  1
  C  128  1  0.62143700  0.99671100  0.40025500  1
  C  129  1  0.65472000  0.02932100  0.38218300  1
  C  130  1  0.62957200  0.02844700  0.35665100  1
  C  131  1  0.61775100  0.05681400  0.35620700  1
  C  132  1  0.62936900  0.08775900  0.38201600  1
  C  133  1  0.65260900  0.08920900  0.40825800  1
  C  134  1  0.66435800  0.06073700  0.40851100  1
  C  135  1  0.61660700  0.01472100  0.43454400  1
  C  136  1  0.57803000  0.01377400  0.45010200  1
  C  147  1  0.45022200  0.42945100  0.99567400  1
  C  148  1  0.41281200  0.44657200  0.01327300  1
  C  149  1  0.37474100  0.42994100  0.01303500  1
  C  150  1  0.37147900  0.39557200  0.99454200  1
  C  151  1  0.41055700  0.37880400  0.97908300  1
  C  152  1  0.44889900  0.39530700  0.97927300  1
  C  153  1  0.33022600  0.37784600  0.99550900  1
  C  154  1  0.33998400  0.37499700  0.02555600  1
  C  155  1  0.36467800  0.34876900  0.02359600  1
  C  156  1  0.37706100  0.34739600  0.05138700  1
  C  157  1  0.36717200  0.37302500  0.08270100  1
  C  158  1  0.34392200  0.39985200  0.08528800  1
  C  159  1  0.33140900  0.40094700  0.05740300  1
  C  160  1  0.28809600  0.39607800  0.99731200  1
  C  161  1  0.32137500  0.34538500  0.96470200  1
  C  162  1  0.29617800  0.32073400  0.96555500  1
  C  163  1  0.28438600  0.29191800  0.93718500  1
  C  164  1  0.29608000  0.28676200  0.90624800  1
  C  165  1  0.31931600  0.31156300  0.90480800  1
  C  166  1  0.33103900  0.34029000  0.93328300  1
  C  167  1  0.28325600  0.41232100  0.97926600  1
  C  168  1  0.24467200  0.42880200  0.98018100  1
  C  169  1  0.20828800  0.42883900  0.99842200  1
  C  170  1  0.21109200  0.41068600  0.01434600  1
  C  171  1  0.24997000  0.39439200  0.01346900  1
  C  192  1  0.61686200  0.43232700  0.43244600  1
  C  193  1  0.57945500  0.43183000  0.44955900  1
  C  194  1  0.54138700  0.41543400  0.43292100  1
  C  195  1  0.53817500  0.39951400  0.39855200  1
  C  196  1  0.57725200  0.39821100  0.38178700  1
  C  197  1  0.61557400  0.41454500  0.39830000  1
  C  198  1  0.49692400  0.38081900  0.38081000  1
  C  199  1  0.50670900  0.34793100  0.37797100  1
  C  200  1  0.53132800  0.32364000  0.35170900  1
  C  201  1  0.54369100  0.29447300  0.35033900  1
  C  202  1  0.53382800  0.28880000  0.37598000  1
  C  203  1  0.51062100  0.31305700  0.40282500  1
  C  204  1  0.49812000  0.34204400  0.40392700  1
  C  205  1  0.45477800  0.39724500  0.39902500  1
  C  206  1  0.48808400  0.37918400  0.34835500  1
  C  207  1  0.46286000  0.35368000  0.32372300  1
  C  208  1  0.45104900  0.35323200  0.29490800  1
  C  209  1  0.46277800  0.37899300  0.28973000  1
  C  210  1  0.48604800  0.40522700  0.31451200  1
  C  211  1  0.49779300  0.40548400  0.34323800  1
  C  212  1  0.44993100  0.43153200  0.41525400  1
  C  213  1  0.41136400  0.44709400  0.43176300  1
  C  214  1  0.37501900  0.42888600  0.43186100  1
  C  215  1  0.37782600  0.39480900  0.41370900  1
  C  216  1  0.41668800  0.37939300  0.39738400  1
  C  237  1  0.24614300  0.01029600  0.56222800  1
  C  238  1  0.20807800  0.01005900  0.57863300  1
  C  239  1  0.17333500  0.02257700  0.64606500  1
  C  240  1  0.19804500  0.02060200  0.67031900  1
  C  241  1  0.21041500  0.04839300  0.69949200  1
  C  242  1  0.20052900  0.07971000  0.70518300  1
  C  243  1  0.17722700  0.08230400  0.68096400  1
  C  244  1  0.16470700  0.05442400  0.65198100  1
  C  245  1  0.04444900  0.01137300  0.59918800  1
  C  246  1  0.08332000  0.01046700  0.61459500  1
  C  257  1  0.95020100  0.56157100  0.00136500  1
  C  258  1  0.91280900  0.54445000  0.98373500  1
  C  259  1  0.87474200  0.56108500  0.98396500  1
  C  260  1  0.87148000  0.59545000  0.00246300  1
  C  261  1  0.91055300  0.61221700  0.01793000  1
  C  262  1  0.94888800  0.59571400  0.01775000  1
  C  263  1  0.83022700  0.61317800  0.00149300  1
  C  264  1  0.83999200  0.61602700  0.97144900  1
  C  265  1  0.86469900  0.64224900  0.97340700  1
  C  266  1  0.87708700  0.64362000  0.94561600  1
  C  267  1  0.86718700  0.61799800  0.91430300  1
  C  268  1  0.84392400  0.59117400  0.91171300  1
  C  269  1  0.83140500  0.59007800  0.93959800  1
  C  270  1  0.78809500  0.59494500  0.99968600  1
  C  271  1  0.82137000  0.64563700  0.03230100  1
  C  272  1  0.79618700  0.67029100  0.03144100  1
  C  273  1  0.78436100  0.69909600  0.05981200  1
  C  274  1  0.79603700  0.70424700  0.09075100  1
  C  275  1  0.81927300  0.67944900  0.09219400  1
  C  276  1  0.83101600  0.65072600  0.06371800  1
  C  277  1  0.78325500  0.57869500  0.01772500  1
  C  278  1  0.74466900  0.56221900  0.01681300  1
  C  279  1  0.70827800  0.56219400  0.99858000  1
  C  280  1  0.71108800  0.58034900  0.98265700  1
  C  281  1  0.74996900  0.59664000  0.98353700  1
  C  302  1  0.20236900  0.50668000  0.51083000  1
  C  303  1  0.21060800  0.47281900  0.49439100  1
  C  304  1  0.25262700  0.46017900  0.48130900  1
  C  305  1  0.28755000  0.48110400  0.48407400  1
  C  306  1  0.27861500  0.51478100  0.50056500  1
  C  307  1  0.23742600  0.52717200  0.51343900  1
  C  309  1  0.22600400  0.40602500  0.46278400  1
  C  310  1  0.18417200  0.41864400  0.47576700  1
  C  315  1  0.23720400  0.37118800  0.44566800  1
  C  319  1  0.14549700  0.39942900  0.47449900  1
  C  323  1  0.16078200  0.51891400  0.52196100  1
  C  325  1  0.32956200  0.47037900  0.47219000  1
  C  327  1  0.86903000  0.99668600  0.48735300  1
  C  328  1  0.87728000  0.01409900  0.52121500  1
  C  329  1  0.91930100  0.01363900  0.53384600  1
  C  331  1  0.89270100  0.04927100  0.58800400  1
  C  332  1  0.85086500  0.04964500  0.57539600  1
  C  334  1  0.90391100  0.06699000  0.62284100  1
  C  338  1  0.81219600  0.06759400  0.59462000  1
  C  342  1  0.82744100  0.99560900  0.47513100  1
  C  343  1  0.53571700  0.48318000  0.99734700  1
  C  344  1  0.54397600  0.49964500  0.97995000  1
  C  345  1  0.58597800  0.51278500  0.98046100  1
  C  346  1  0.62085900  0.51006400  0.99868300  1
  C  347  1  0.61191100  0.49353000  0.01582200  1
  C  348  1  0.57074500  0.48058600  0.01525900  1
  C  350  1  0.55940100  0.53129500  0.94481100  1
  C  351  1  0.51758200  0.51826400  0.94438400  1
  C  356  1  0.57060800  0.54843200  0.92711100  1
  C  360  1  0.47893600  0.51949700  0.92639300  1
  C  364  1  0.49413000  0.47202200  0.99840300  1
  C  366  1  0.66286400  0.52206000  0.00008900  1
  C  368  1  0.70238300  0.48434200  0.48616800  1
  C  369  1  0.71063700  0.51820300  0.50263200  1
  C  370  1  0.75264500  0.53083200  0.51576100  1
  C  371  1  0.78753100  0.50989500  0.51303200  1
  C  372  1  0.77858200  0.47622000  0.49651200  1
  C  373  1  0.73741100  0.46384000  0.48358400  1
  C  375  1  0.72606100  0.58499300  0.53427800  1
  C  376  1  0.68424100  0.57238700  0.52125500  1
  C  381  1  0.73727000  0.61983000  0.55141500  1
  C  385  1  0.64559200  0.59161200  0.52249200  1
  C  389  1  0.66079200  0.47212300  0.47503500  1
  C  391  1  0.82953300  0.52053400  0.52500600  1
  C  393  1  0.45420900  0.99557400  0.48409600  1
  C  394  1  0.44528400  0.01274200  0.51777300  1
  C  395  1  0.40410900  0.01223300  0.53016900  1
  C  400  1  0.49622500  0.99684500  0.47344600  1
  C  401  1  0.03571000  0.50782900  0.99965000  1
  C  402  1  0.04397500  0.49136800  0.01704900  1
  C  403  1  0.08598400  0.47823200  0.01653400  1
  C  404  1  0.12086100  0.48096200  0.99831600  1
  C  405  1  0.11190000  0.49749000  0.98117100  1
  C  406  1  0.07073100  0.51042500  0.98173500  1
  C  408  1  0.05942300  0.45972300  0.05219000  1
  C  409  1  0.01760100  0.47274700  0.05261700  1
  C  414  1  0.07064300  0.44258700  0.06988800  1
  C  418  1  0.97895900  0.47151200  0.07061300  1
  C  422  1  0.99411900  0.51900000  0.99861400  1
  C  424  1  0.16286700  0.46896200  0.99689900  1
  C  426  1  0.06748900  0.76978800  0.60934000  1
  C  427  1  0.07532000  0.77687700  0.58403800  1
  C  428  1  0.08589200  0.80881600  0.59076800  1
  C  429  1  0.08929400  0.83498500  0.62315200  1
  C  430  1  0.08188500  0.82747400  0.64801700  1
  C  431  1  0.07144000  0.79616500  0.64144200  1
  C  433  1  0.08922200  0.78973800  0.53336100  1
  C  434  1  0.07901300  0.75795100  0.52660800  1
  C  439  1  0.09707200  0.79885600  0.50835200  1
  C  443  1  0.07454500  0.72904900  0.49402600  1
  C  447  1  0.05570100  0.73838400  0.60229100  1
  C  449  1  0.73419000  0.83207000  0.22424100  1
  C  450  1  0.74200700  0.79967600  0.21715300  1
  C  451  1  0.75256600  0.77446300  0.18521300  1
  C  452  1  0.75596200  0.78067400  0.15904300  1
  C  453  1  0.74856300  0.81305200  0.16654900  1
  C  454  1  0.73813400  0.83778900  0.19786000  1
  C  456  1  0.75588600  0.73613700  0.20429500  1
  C  457  1  0.74569200  0.76117600  0.23608300  1
  C  460  1  0.76372200  0.70200900  0.19517700  1
  C  464  1  0.74123100  0.75750100  0.26498800  1
  C  469  1  0.76383800  0.75660300  0.12686900  1
  C  471  1  0.40082700  0.38469300  0.16194500  1
  C  472  1  0.40865800  0.40999200  0.19433900  1
  C  473  1  0.41923400  0.40325700  0.21954400  1
  C  474  1  0.42264200  0.37087300  0.21332400  1
  C  475  1  0.41523000  0.34600700  0.18094300  1
  C  476  1  0.40478200  0.35259000  0.15621700  1
  C  478  1  0.42256400  0.46066200  0.25788000  1
  C  479  1  0.41235100  0.46742000  0.23284800  1
  C  484  1  0.43041400  0.48566700  0.29200800  1
  C  488  1  0.40789000  0.50000400  0.23653200  1
  C  492  1  0.38903600  0.39174600  0.13759400  1
  C  494  1  0.43054800  0.36276100  0.23738400  1
  C  496  1  0.56750600  0.22124100  0.38766700  1
  C  497  1  0.57532700  0.21415600  0.41297300  1
  C  498  1  0.58588600  0.18221700  0.40624900  1
  C  499  1  0.58928800  0.15604300  0.37386700  1
  C  500  1  0.58188900  0.16355000  0.34899800  1
  C  501  1  0.57146400  0.19485900  0.35556600  1
  C  503  1  0.58921300  0.20130500  0.46365800  1
  C  504  1  0.57900700  0.23309100  0.47040400  1
  C  509  1  0.59706000  0.19219400  0.48867300  1
  C  513  1  0.57454600  0.26199800  0.50298300  1
  C  517  1  0.55575100  0.25264600  0.39470500  1
  C  519  1  0.59716800  0.12387000  0.36576600  1
  C  521  1  0.23417800  0.15895700  0.77275700  1
  C  522  1  0.24200800  0.19134900  0.77984500  1
  C  523  1  0.25258100  0.21655900  0.81178400  1
  C  524  1  0.25600600  0.21034200  0.83795100  1
  C  525  1  0.24857400  0.17796900  0.83044500  1
  C  526  1  0.23813200  0.15323400  0.79913600  1
  C  528  1  0.25589100  0.25489100  0.79271100  1
  C  529  1  0.24568200  0.22985500  0.76092100  1
  C  534  1  0.26373500  0.28901900  0.80182900  1
  C  538  1  0.24120800  0.23353600  0.73202000  1
  C  542  1  0.22238300  0.13460100  0.74135400  1
  C  544  1  0.26386600  0.23441300  0.87012500  1
  C  546  1  0.90085200  0.60632300  0.83505700  1
  C  547  1  0.90868300  0.58102200  0.80266500  1
  C  548  1  0.91925400  0.58775300  0.77745700  1
  C  549  1  0.92267200  0.62013500  0.78367400  1
  C  550  1  0.91523300  0.64500300  0.81604800  1
  C  551  1  0.90479200  0.63842700  0.84078100  1
  C  553  1  0.92256900  0.53034800  0.73912300  1
  C  554  1  0.91236200  0.52359400  0.76415700  1
  C  559  1  0.93040900  0.50534000  0.70499300  1
  C  563  1  0.90789200  0.49101000  0.76047500  1
  C  567  1  0.88904200  0.59927300  0.85940800  1
  C  569  1  0.93051200  0.62823900  0.75960000  1
  S  42  1  0.95105200  0.94221300  0.41803600  1
  S  72  1  0.73952800  0.86409000  0.16259300  1
  S  314  1  0.28441300  0.57597400  0.52564700  1
  S  355  1  0.61767600  0.46842700  0.05191600  1
  S  380  1  0.78433800  0.41502600  0.47143800  1
  S  398  1  0.45110500  0.04882800  0.57896900  1
  S  413  1  0.11766200  0.52262700  0.94510700  1
  S  438  1  0.07284200  0.83142300  0.70300900  1
  S  483  1  0.40618700  0.29102000  0.12989800  1
  S  508  1  0.57286300  0.15959000  0.29400000  1
  S  533  1  0.23949500  0.12693500  0.83440200  1
  S  558  1  0.90613100  0.69999200  0.86707800  1
  N  16  1  0.50419200  0.99375900  0.44522400  1
  N  35  1  0.32070500  0.99226500  0.54684800  1
  N  40  1  0.97312400  0.95952100  0.45539000  1
  N  41  1  0.90310900  0.96034100  0.43445500  1
  N  48  1  0.42445900  0.95966300  0.43047100  1
  N  51  1  0.34552700  0.95895200  0.45429500  1
  N  61  1  0.71296100  0.88586800  0.26362400  1
  N  69  1  0.11844300  0.87511500  0.61293000  1
  N  71  1  0.73253500  0.86608100  0.19859000  1
  N  118  1  0.95183400  0.60994700  0.73334300  1
  N  119  1  0.83752100  0.54878100  0.55008600  1
  N  120  1  0.15402700  0.54384600  0.55010500  1
  N  121  1  0.04626600  0.73040000  0.62375100  1
  N  144  1  0.61842400  0.11591200  0.38409000  1
  N  145  1  0.82068900  0.99879500  0.45018500  1
  N  187  1  0.28513500  0.26069300  0.87809200  1
  N  188  1  0.17082200  0.44392500  0.00015400  1
  N  189  1  0.48738400  0.44390500  0.99526000  1
  N  190  1  0.37961100  0.37029000  0.10814800  1
  N  232  1  0.45180700  0.38108200  0.26366500  1
  N  233  1  0.33756900  0.44222100  0.44698100  1
  N  234  1  0.65403400  0.44717400  0.44690300  1
  N  235  1  0.54624700  0.26061300  0.37324500  1
  N  255  1  0.00419800  0.99726400  0.55177000  1
  N  256  1  0.21296800  0.10515700  0.73336700  1
  N  297  1  0.78509600  0.73032000  0.11890600  1
  N  298  1  0.67081200  0.54710000  0.99684200  1
  N  299  1  0.98737600  0.54711500  0.00175500  1
  N  300  1  0.87963700  0.62073100  0.88885500  1
  N  308  1  0.25779400  0.42748000  0.46634400  1
  N  311  1  0.17885500  0.45130000  0.49086400  1
  N  312  1  0.30648200  0.53861700  0.50562100  1
  N  313  1  0.23646200  0.55956700  0.52735400  1
  N  330  1  0.92448000  0.03136500  0.56654200  1
  N  333  1  0.84553600  0.03209300  0.54274000  1
  N  349  1  0.59116100  0.52776900  0.96274900  1
  N  352  1  0.51225200  0.50314800  0.96192300  1
  N  353  1  0.63974900  0.48850200  0.03463800  1
  N  354  1  0.56976100  0.46666500  0.03373200  1
  N  374  1  0.75782400  0.56353100  0.53074300  1
  N  377  1  0.67891000  0.53973200  0.50613900  1
  N  378  1  0.80641700  0.45237700  0.49149100  1
  N  379  1  0.73642400  0.43144600  0.46967500  1
  N  396  1  0.47315800  0.03151600  0.54160800  1
  N  397  1  0.40315100  0.03070800  0.56256500  1
  N  407  1  0.09117700  0.46325100  0.03424900  1
  N  410  1  0.01225700  0.48786400  0.03507900  1
  N  411  1  0.13973800  0.50254000  0.96237200  1
  N  412  1  0.06974400  0.52437000  0.96328100  1
  N  432  1  0.09197100  0.81328000  0.56497900  1
  N  435  1  0.07256800  0.75344700  0.55227900  1
  N  436  1  0.08356200  0.84831100  0.68004300  1
  N  437  1  0.06583600  0.79543200  0.66900100  1
  N  455  1  0.75863200  0.74421100  0.18075200  1
  N  458  1  0.73925700  0.79135100  0.24058600  1
  N  459  1  0.75023300  0.82423500  0.14570700  1
  N  477  1  0.42531200  0.42904300  0.24979700  1
  N  480  1  0.40590600  0.44175200  0.20267200  1
  N  481  1  0.41691000  0.31398200  0.16975200  1
  N  482  1  0.39917700  0.32503100  0.12792100  1
  N  502  1  0.59195900  0.17775900  0.43204300  1
  N  505  1  0.57257200  0.23759000  0.44473000  1
  N  506  1  0.58356600  0.14270500  0.31697100  1
  N  507  1  0.56586600  0.19558600  0.32800300  1
  N  527  1  0.25865300  0.24681100  0.81624800  1
  N  530  1  0.23924400  0.19968000  0.75641800  1
  N  531  1  0.25023400  0.16678500  0.85128600  1
  N  532  1  0.23250100  0.12494600  0.79840800  1
  N  552  1  0.92532500  0.56196700  0.74720300  1
  N  555  1  0.90592500  0.54926300  0.79433400  1
  N  556  1  0.91688100  0.67702900  0.82723100  1
  N  557  1  0.89915200  0.66598600  0.86906700  1
