# generated using pymatgen
data_Cd7H8C20(N7O9)2
_symmetry_space_group_name_H-M   'P 1'
_cell_length_a   11.44073000
_cell_length_b   11.44758000
_cell_length_c   16.78231000
_cell_angle_alpha   81.88803000
_cell_angle_beta   81.88496000
_cell_angle_gamma   80.33667000
_symmetry_Int_Tables_number   1
_chemical_formula_structural   Cd7H8C20(N7O9)2
_chemical_formula_sum   'Cd14 H16 C40 N28 O36'
_cell_volume   2129.49321999
_cell_formula_units_Z   2
loop_
 _symmetry_equiv_pos_site_id
 _symmetry_equiv_pos_as_xyz
  1  'x, y, z'
loop_
 _atom_site_type_symbol
 _atom_site_label
 _atom_site_symmetry_multiplicity
 _atom_site_fract_x
 _atom_site_fract_y
 _atom_site_fract_z
 _atom_site_occupancy
  Cd  Cd1  1  0.78237000  0.61326000  0.48171000  1.0
  Cd  Cd2  1  0.59319000  0.95485000  0.13682000  1.0
  Cd  Cd3  1  0.96981000  0.49041000  0.88431000  1.0
  Cd  Cd4  1  0.38487000  0.21834000  0.01905000  1.0
  Cd  Cd5  1  0.04535000  0.40533000  0.36343000  1.0
  Cd  Cd6  1  0.50873000  0.02930000  0.61468000  1.0
  Cd  Cd7  1  0.22157000  0.38029000  0.51760000  1.0
  Cd  Cd8  1  0.40626000  0.04205000  0.86395000  1.0
  Cd  Cd9  1  0.02911000  0.50898000  0.11536000  1.0
  Cd  Cd10  1  0.61920000  0.77804000  0.98318000  1.0
  Cd  Cd11  1  0.95706000  0.59244000  0.63565000  1.0
  Cd  Cd12  1  0.49101000  0.96987000  0.38481000  1.0
  Cd  Cd13  1  0.81220000  0.18814000  0.24995000  1.0
  Cd  Cd14  1  0.18802000  0.81175000  0.74989000  1.0
  H  H1  1  0.54050000  0.66852000  0.58855000  1.0
  H  H2  1  0.41353000  0.64636000  0.53513000  1.0
  H  H3  1  0.60886000  0.53464000  0.36849000  1.0
  H  H4  1  0.45963000  0.60113000  0.40118000  1.0
  H  H5  1  0.33020000  0.46028000  0.91220000  1.0
  H  H6  1  0.35351000  0.58721000  0.96506000  1.0
  H  H7  1  0.46476000  0.39241000  0.13199000  1.0
  H  H8  1  0.39911000  0.54172000  0.09886000  1.0
  H  H9  1  0.47075000  0.38655000  0.39908000  1.0
  H  H10  1  0.58716000  0.35408000  0.46366000  1.0
  H  H11  1  0.38561000  0.41291000  0.64316000  1.0
  H  H12  1  0.54684000  0.39731000  0.59832000  1.0
  H  H13  1  0.61453000  0.52840000  0.10068000  1.0
  H  H14  1  0.64495000  0.41224000  0.03596000  1.0
  H  H15  1  0.58785000  0.61420000  0.85676000  1.0
  H  H16  1  0.60274000  0.45313000  0.90158000  1.0
  C  C1  1  0.78464000  0.31293000  0.91365000  1.0
  C  C2  1  0.81995000  0.22572000  0.06640000  1.0
  C  C3  1  0.80292000  0.66154000  0.21190000  1.0
  C  C4  1  0.83919000  0.29628000  0.99220000  1.0
  C  C5  1  0.50925000  0.63537000  0.53894000  1.0
  C  C6  1  0.76846000  0.69172000  0.12781000  1.0
  C  C7  1  0.76352000  0.70177000  0.28765000  1.0
  C  C8  1  0.75330000  0.12468000  0.09318000  1.0
  C  C9  1  0.53925000  0.54183000  0.42042000  1.0
  C  C10  1  0.67443000  0.80006000  0.31746000  1.0
  C  C11  1  0.68755000  0.21302000  0.58624000  1.0
  C  C12  1  0.77633000  0.17728000  0.43356000  1.0
  C  C13  1  0.33788000  0.19623000  0.28885000  1.0
  C  C14  1  0.70464000  0.15896000  0.50747000  1.0
  C  C15  1  0.36403000  0.49151000  0.96152000  1.0
  C  C16  1  0.30908000  0.22930000  0.37338000  1.0
  C  C17  1  0.29773000  0.23690000  0.21311000  1.0
  C  C18  1  0.87853000  0.24244000  0.40714000  1.0
  C  C19  1  0.45786000  0.46165000  0.07985000  1.0
  C  C20  1  0.20034000  0.32704000  0.18287000  1.0
  C  C21  1  0.21161000  0.68802000  0.08665000  1.0
  C  C22  1  0.17762000  0.77482000  0.93352000  1.0
  C  C23  1  0.19363000  0.33269000  0.78894000  1.0
  C  C24  1  0.15745000  0.70478000  0.00778000  1.0
  C  C25  1  0.50655000  0.41521000  0.44918000  1.0
  C  C26  1  0.22686000  0.30301000  0.87356000  1.0
  C  C27  1  0.23116000  0.29105000  0.71338000  1.0
  C  C28  1  0.24386000  0.87602000  0.90714000  1.0
  C  C29  1  0.45200000  0.40951000  0.58974000  1.0
  C  C30  1  0.31973000  0.19283000  0.68313000  1.0
  C  C31  1  0.31125000  0.78761000  0.41337000  1.0
  C  C32  1  0.22238000  0.82326000  0.56617000  1.0
  C  C33  1  0.66683000  0.80725000  0.71117000  1.0
  C  C34  1  0.29365000  0.84199000  0.49218000  1.0
  C  C35  1  0.58480000  0.49325000  0.05072000  1.0
  C  C36  1  0.69550000  0.77391000  0.62653000  1.0
  C  C37  1  0.70807000  0.76853000  0.78677000  1.0
  C  C38  1  0.12046000  0.75780000  0.59276000  1.0
  C  C39  1  0.59075000  0.54789000  0.91018000  1.0
  C  C40  1  0.80570000  0.67871000  0.81644000  1.0
  N  N1  1  0.83075000  0.63086000  0.34181000  1.0
  N  N2  1  0.92303000  0.36360000  0.08309000  1.0
  N  N3  1  0.90784000  0.55211000  0.30192000  1.0
  N  N4  1  0.58601000  0.58799000  0.48464000  1.0
  N  N5  1  0.87239000  0.27062000  0.12135000  1.0
  N  N6  1  0.89253000  0.56902000  0.22404000  1.0
  N  N7  1  0.90321000  0.37954000  0.00564000  1.0
  N  N8  1  0.36766000  0.16922000  0.15877000  1.0
  N  N9  1  0.63668000  0.07699000  0.41591000  1.0
  N  N10  1  0.44565000  0.09088000  0.19845000  1.0
  N  N11  1  0.41126000  0.41477000  0.01585000  1.0
  N  N12  1  0.73102000  0.12594000  0.37825000  1.0
  N  N13  1  0.42936000  0.10576000  0.27631000  1.0
  N  N14  1  0.62038000  0.09656000  0.49342000  1.0
  N  N15  1  0.16629000  0.36403000  0.65868000  1.0
  N  N16  1  0.07764000  0.63500000  0.91587000  1.0
  N  N17  1  0.09226000  0.44534000  0.69813000  1.0
  N  N18  1  0.41556000  0.41503000  0.51999000  1.0
  N  N19  1  0.12780000  0.72838000  0.87795000  1.0
  N  N20  1  0.10711000  0.42817000  0.77613000  1.0
  N  N21  1  0.09516000  0.62036000  0.99379000  1.0
  N  N22  1  0.63606000  0.83381000  0.84164000  1.0
  N  N23  1  0.36352000  0.92152000  0.58415000  1.0
  N  N24  1  0.55559000  0.90916000  0.80216000  1.0
  N  N25  1  0.58510000  0.58427000  0.97996000  1.0
  N  N26  1  0.26894000  0.87308000  0.62173000  1.0
  N  N27  1  0.57242000  0.89471000  0.72413000  1.0
  N  N28  1  0.37875000  0.90334000  0.50635000  1.0
  O  O1  1  0.84041000  0.37205000  0.85351000  1.0
  O  O2  1  0.66450000  0.75490000  0.11798000  1.0
  O  O3  1  0.62260000  0.88140000  0.26861000  1.0
  O  O4  1  0.72137000  0.10239000  0.17120000  1.0
  O  O5  1  0.83856000  0.64954000  0.07138000  1.0
  O  O6  1  0.68546000  0.27940000  0.91653000  1.0
  O  O7  1  0.50258000  0.94225000  0.02797000  1.0
  O  O8  1  0.65396000  0.80025000  0.39375000  1.0
  O  O9  1  0.72605000  0.06388000  0.04410000  1.0
  O  O10  1  0.62824000  0.15683000  0.64612000  1.0
  O  O11  1  0.24321000  0.33135000  0.38486000  1.0
  O  O12  1  0.11983000  0.38108000  0.23124000  1.0
  O  O13  1  0.90256000  0.27384000  0.32908000  1.0
  O  O14  1  0.35461000  0.16001000  0.42881000  1.0
  O  O15  1  0.72102000  0.31212000  0.58365000  1.0
  O  O16  1  0.05736000  0.49694000  0.47216000  1.0
  O  O17  1  0.19986000  0.34625000  0.10659000  1.0
  O  O18  1  0.93861000  0.26938000  0.45663000  1.0
  O  O19  1  0.15398000  0.63108000  0.14682000  1.0
  O  O20  1  0.32936000  0.23859000  0.88519000  1.0
  O  O21  1  0.37559000  0.11390000  0.73136000  1.0
  O  O22  1  0.27824000  0.89728000  0.82924000  1.0
  O  O23  1  0.15738000  0.34927000  0.92870000  1.0
  O  O24  1  0.31157000  0.71990000  0.08338000  1.0
  O  O25  1  0.49729000  0.05621000  0.97218000  1.0
  O  O26  1  0.33788000  0.19257000  0.60672000  1.0
  O  O27  1  0.26897000  0.93770000  0.95635000  1.0
  O  O28  1  0.36741000  0.84603000  0.35319000  1.0
  O  O29  1  0.76076000  0.67198000  0.61469000  1.0
  O  O30  1  0.88302000  0.62246000  0.76743000  1.0
  O  O31  1  0.09747000  0.72582000  0.67079000  1.0
  O  O32  1  0.64782000  0.84261000  0.57154000  1.0
  O  O33  1  0.28052000  0.68716000  0.41669000  1.0
  O  O34  1  0.94371000  0.49803000  0.52842000  1.0
  O  O35  1  0.80736000  0.65995000  0.89273000  1.0
  O  O36  1  0.05992000  0.73081000  0.54348000  1.0
