# generated using pymatgen
data_H15C27N3O2
_symmetry_space_group_name_H-M   'P 1'
_cell_length_a   18.22270000
_cell_length_b   18.22270000
_cell_length_c   61.73440000
_cell_angle_alpha   90.00000000
_cell_angle_beta   90.00000000
_cell_angle_gamma   120.00000000
_symmetry_Int_Tables_number   1
_chemical_formula_structural   H15C27N3O2
_chemical_formula_sum   'H180 C324 N36 O24'
_cell_volume   17753.47259812
_cell_formula_units_Z   12
loop_
 _symmetry_equiv_pos_site_id
 _symmetry_equiv_pos_as_xyz
  1  'x, y, z'
loop_
 _atom_site_type_symbol
 _atom_site_label
 _atom_site_symmetry_multiplicity
 _atom_site_fract_x
 _atom_site_fract_y
 _atom_site_fract_z
 _atom_site_occupancy
  C  1  1  0.97965600  0.02126100  0.98618200  1
  C  2  1  0.01454150  0.10398650  0.99496300  1
  C  3  1  0.97137350  0.15035450  0.99406100  1
  C  4  1  0.88882700  0.11027600  0.98492500  1
  C  5  1  0.84963600  0.02576600  0.97695700  1
  C  6  1  0.89701200  0.98318700  0.97692900  1
  C  9  1  0.02752950  0.97900850  0.98628900  1
  C  10  1  0.11016950  0.01673850  0.97704400  1
  C  11  1  0.15744450  0.97405850  0.97722700  1
  C  12  1  0.11812800  0.88973000  0.98531800  1
  C  13  1  0.03557150  0.85000250  0.99443200  1
  C  14  1  0.99251800  0.89648500  0.99521000  1
  C  23  1  0.04315200  0.01653700  0.65284700  1
  C  24  1  0.09092450  0.98163250  0.66166200  1
  C  25  1  0.18047550  0.02489750  0.66083100  1
  C  26  1  0.22300950  0.10750450  0.65173200  1
  C  27  1  0.17773000  0.14666000  0.64371200  1
  C  28  1  0.08778300  0.09923900  0.64362700  1
  C  31  1  0.95302400  0.96871300  0.65290000  1
  C  32  1  0.90809850  0.88612750  0.64362700  1
  C  33  1  0.81813900  0.83906500  0.64371900  1
  C  34  1  0.77314700  0.87847200  0.65176300  1
  C  35  1  0.81600250  0.96093850  0.66092800  1
  C  36  1  0.90552250  0.00381350  0.66177800  1
  C  45  1  0.97196850  0.94705150  0.31949900  1
  C  46  1  0.88916150  0.89921050  0.32823000  1
  C  47  1  0.84287350  0.80966150  0.32736700  1
  C  48  1  0.88305500  0.76720100  0.31828600  1
  C  49  1  0.96763950  0.81253350  0.31036500  1
  C  50  1  0.01019100  0.90248600  0.31032900  1
  C  53  1  0.01421950  0.03717550  0.31958300  1
  C  54  1  0.97661550  0.08208550  0.31026300  1
  C  55  1  0.01942600  0.17204100  0.31038600  1
  C  56  1  0.10370300  0.21705100  0.31850600  1
  C  57  1  0.14326150  0.17420850  0.32770500  1
  C  58  1  0.09668700  0.08469400  0.32854000  1
  C  67  1  0.42463600  0.43632600  0.60027800  1
  C  69  1  0.56746450  0.55274950  0.60014200  1
  C  71  1  0.49491200  0.49546800  0.56674200  1
  C  73  1  0.63931250  0.61504150  0.61149400  1
  C  74  1  0.63850000  0.62049300  0.63436600  1
  C  75  1  0.70261350  0.69077250  0.64540200  1
  C  76  1  0.77134550  0.75750450  0.63417600  1
  C  77  1  0.77758250  0.74753950  0.61164800  1
  C  78  1  0.71217350  0.67799250  0.60051800  1
  C  79  1  0.35372500  0.37308200  0.61171600  1
  C  80  1  0.35605000  0.36636500  0.63452900  1
  C  81  1  0.29307750  0.29512450  0.64552200  1
  C  82  1  0.22415150  0.22856150  0.63430900  1
  C  83  1  0.21636700  0.23966000  0.61192000  1
  C  84  1  0.28046550  0.31032750  0.60082500  1
  C  85  1  0.49417600  0.49579700  0.54367700  1
  C  86  1  0.41823850  0.44648550  0.53192200  1
  C  87  1  0.41757150  0.44669750  0.50915000  1
  C  88  1  0.49289050  0.49569450  0.49715500  1
  C  89  1  0.56883400  0.54487400  0.50890300  1
  C  90  1  0.56942550  0.54519250  0.53167600  1
  C  103  1  0.01134050  0.56603850  0.26701200  1
  C  105  1  0.98468900  0.42312400  0.26682500  1
  C  107  1  0.00085100  0.49612400  0.23345500  1
  C  109  1  0.97469850  0.35105250  0.27815000  1
  C  110  1  0.98039900  0.35153900  0.30103300  1
  C  111  1  0.98642550  0.28732350  0.31206300  1
  C  112  1  0.98473600  0.21882700  0.30079300  1
  C  113  1  0.96892400  0.21278000  0.27825500  1
  C  114  1  0.96500150  0.27832650  0.26713900  1
  C  115  1  0.01884200  0.63685600  0.27846100  1
  C  116  1  0.00931600  0.63428000  0.30125800  1
  C  117  1  0.00062750  0.69706450  0.31222000  1
  C  118  1  0.00336200  0.76621900  0.30103000  1
  C  119  1  0.02294000  0.77427700  0.27867400  1
  C  120  1  0.02980800  0.71032700  0.26759500  1
  C  121  1  0.00234500  0.49707400  0.21039500  1
  C  122  1  0.02978050  0.57322450  0.19867200  1
  C  123  1  0.03094350  0.57406050  0.17589900  1
  C  124  1  0.00416150  0.49872050  0.16387500  1
  C  125  1  0.97665900  0.42258400  0.17559200  1
  C  126  1  0.97606350  0.42180950  0.19836400  1
  C  139  1  0.56016300  0.98365700  0.93357700  1
  C  141  1  0.44381550  0.01018650  0.93356300  1
  C  143  1  0.50089200  0.99515900  0.90010200  1
  C  145  1  0.38154700  0.01964900  0.94495300  1
  C  146  1  0.37610350  0.01318550  0.96782000  1
  C  147  1  0.30579150  0.00686050  0.97887600  1
  C  148  1  0.23900100  0.00884400  0.96767600  1
  C  149  1  0.24899850  0.02531750  0.94515900  1
  C  150  1  0.31857950  0.02963550  0.93400800  1
  C  151  1  0.62336150  0.97578850  0.94498200  1
  C  152  1  0.63003050  0.98454250  0.96780200  1
  C  153  1  0.70120050  0.99258650  0.97878300  1
  C  154  1  0.76774150  0.99026350  0.96755000  1
  C  155  1  0.75670950  0.97169050  0.94514500  1
  C  156  1  0.68610450  0.96534450  0.93406400  1
  C  157  1  0.50020900  0.99423500  0.87703800  1
  C  158  1  0.54904150  0.96733950  0.86516600  1
  C  159  1  0.54828500  0.96642400  0.84239200  1
  C  160  1  0.49921600  0.99298700  0.83051600  1
  C  161  1  0.45058350  0.02009150  0.84238200  1
  C  162  1  0.45079750  0.02039350  0.86515300  1
  C  175  1  0.99129650  0.55899850  0.03771600  1
  C  177  1  0.01545300  0.44103600  0.03760100  1
  C  179  1  0.00395000  0.50004700  0.07111900  1
  C  181  1  0.02241100  0.37741200  0.02613100  1
  C  182  1  0.01190600  0.37016800  0.00336400  1
  C  183  1  0.00239000  0.29840200  0.99239500  1
  C  184  1  0.00550800  0.23204500  0.00351000  1
  C  185  1  0.02765900  0.24453500  0.02570800  1
  C  186  1  0.03402750  0.31506150  0.03687700  1
  C  187  1  0.98414200  0.62269700  0.02634300  1
  C  188  1  0.99393250  0.62983550  0.00355700  1
  C  189  1  0.00354850  0.70175350  0.99265200  1
  C  190  1  0.00102950  0.76825250  0.00385500  1
  C  191  1  0.97962150  0.75593750  0.02609900  1
  C  192  1  0.97300000  0.68516100  0.03719100  1
  C  193  1  0.00430850  0.49998150  0.09418600  1
  C  194  1  0.97904650  0.54993550  0.10615300  1
  C  195  1  0.97888600  0.54941400  0.12892800  1
  C  196  1  0.00453100  0.49939900  0.14070900  1
  C  197  1  0.03021750  0.44980850  0.12875000  1
  C  198  1  0.02982700  0.44984800  0.10597700  1
  C  211  1  0.43372800  0.42153500  0.37103000  1
  C  213  1  0.55165400  0.56367400  0.37086400  1
  C  215  1  0.49229550  0.49357050  0.40440500  1
  C  217  1  0.61544250  0.63404650  0.35937000  1
  C  218  1  0.62299250  0.63040250  0.33662600  1
  C  219  1  0.69482650  0.69251250  0.32565300  1
  C  220  1  0.76105300  0.76212200  0.33675700  1
  C  221  1  0.74829550  0.77222050  0.35891200  1
  C  222  1  0.67764550  0.70820350  0.37007900  1
  C  223  1  0.37017500  0.35053000  0.35967300  1
  C  224  1  0.36326100  0.35286700  0.33687200  1
  C  225  1  0.29159150  0.29029750  0.32594600  1
  C  226  1  0.22494450  0.22142650  0.33715200  1
  C  227  1  0.23688950  0.21282450  0.35944800  1
  C  228  1  0.30750800  0.27713500  0.37055000  1
  C  229  1  0.49212800  0.49417900  0.42746800  1
  C  230  1  0.44252550  0.41893250  0.43945500  1
  C  231  1  0.44292950  0.41942250  0.46222800  1
  C  232  1  0.49237350  0.49526750  0.47399000  1
  C  233  1  0.54154450  0.57058950  0.46201000  1
  C  234  1  0.54169200  0.57002000  0.43923600  1
  C  247  1  0.56977700  0.00580300  0.70428800  1
  C  249  1  0.42762600  0.98155900  0.70430700  1
  C  251  1  0.49867300  0.99342000  0.73775700  1
  C  253  1  0.35687850  0.97439850  0.69287500  1
  C  254  1  0.35984000  0.98452600  0.67009600  1
  C  255  1  0.29740650  0.99376750  0.65913800  1
  C  256  1  0.22799800  0.99071600  0.67027100  1
  C  257  1  0.21870700  0.96906200  0.69250000  1
  C  258  1  0.28303350  0.96293150  0.70365600  1
  C  259  1  0.64048800  0.01284400  0.69287000  1
  C  260  1  0.63757200  0.00282000  0.67009000  1
  C  261  1  0.69972200  0.99302800  0.65916200  1
  C  262  1  0.76885500  0.99560800  0.67032000  1
  C  263  1  0.77817650  0.01724650  0.69255400  1
  C  264  1  0.71419700  0.02406200  0.70367600  1
  C  265  1  0.49875600  0.99316100  0.76082400  1
  C  266  1  0.57429200  0.01868200  0.77267000  1
  C  267  1  0.57445000  0.01879600  0.79544300  1
  C  268  1  0.49899200  0.99277200  0.80734900  1
  C  269  1  0.42339900  0.96686400  0.79551100  1
  C  270  1  0.42331650  0.96734250  0.77273600  1
  C  1129  1  0.97965600  0.02126100  0.51642800  1
  C  1130  1  0.01454150  0.10398650  0.52520900  1
  C  1131  1  0.97137350  0.15035450  0.52430700  1
  C  1132  1  0.88882700  0.11027600  0.51517100  1
  C  1133  1  0.84963600  0.02576600  0.50720300  1
  C  1134  1  0.89701200  0.98318700  0.50717500  1
  C  1137  1  0.02752950  0.97900850  0.51653500  1
  C  1138  1  0.11016950  0.01673850  0.50729000  1
  C  1139  1  0.15744450  0.97405850  0.50747300  1
  C  1140  1  0.11812800  0.88973000  0.51556400  1
  C  1141  1  0.03557150  0.85000250  0.52467800  1
  C  1142  1  0.99251800  0.89648500  0.52545600  1
  C  1151  1  0.04315200  0.01653700  0.18309300  1
  C  1152  1  0.09092450  0.98163250  0.19190800  1
  C  1153  1  0.18047550  0.02489750  0.19107700  1
  C  1154  1  0.22300950  0.10750450  0.18197800  1
  C  1155  1  0.17773000  0.14666000  0.17395800  1
  C  1156  1  0.08778300  0.09923900  0.17387300  1
  C  1159  1  0.95302400  0.96871300  0.18314600  1
  C  1160  1  0.90809850  0.88612750  0.17387300  1
  C  1161  1  0.81813900  0.83906500  0.17396500  1
  C  1162  1  0.77314700  0.87847200  0.18200900  1
  C  1163  1  0.81600250  0.96093850  0.19117400  1
  C  1164  1  0.90552250  0.00381350  0.19202400  1
  C  1173  1  0.97196850  0.94705150  0.84974500  1
  C  1174  1  0.88916150  0.89921050  0.85847600  1
  C  1175  1  0.84287350  0.80966150  0.85761300  1
  C  1176  1  0.88305500  0.76720100  0.84853200  1
  C  1177  1  0.96763950  0.81253350  0.84061100  1
  C  1178  1  0.01019100  0.90248600  0.84057500  1
  C  1181  1  0.01421950  0.03717550  0.84982900  1
  C  1182  1  0.97661550  0.08208550  0.84050900  1
  C  1183  1  0.01942600  0.17204100  0.84063200  1
  C  1184  1  0.10370300  0.21705100  0.84875200  1
  C  1185  1  0.14326150  0.17420850  0.85795100  1
  C  1186  1  0.09668700  0.08469400  0.85878600  1
  C  1195  1  0.42463600  0.43632600  0.13052400  1
  C  1197  1  0.56746450  0.55274950  0.13038800  1
  C  1199  1  0.49491200  0.49546800  0.09698800  1
  C  1201  1  0.63931250  0.61504150  0.14174000  1
  C  1202  1  0.63850000  0.62049300  0.16461200  1
  C  1203  1  0.70261350  0.69077250  0.17564800  1
  C  1204  1  0.77134550  0.75750450  0.16442200  1
  C  1205  1  0.77758250  0.74753950  0.14189400  1
  C  1206  1  0.71217350  0.67799250  0.13076400  1
  C  1207  1  0.35372500  0.37308200  0.14196200  1
  C  1208  1  0.35605000  0.36636500  0.16477500  1
  C  1209  1  0.29307750  0.29512450  0.17576800  1
  C  1210  1  0.22415150  0.22856150  0.16455500  1
  C  1211  1  0.21636700  0.23966000  0.14216600  1
  C  1212  1  0.28046550  0.31032750  0.13107100  1
  C  1213  1  0.49417600  0.49579700  0.07392300  1
  C  1214  1  0.41823850  0.44648550  0.06216800  1
  C  1215  1  0.41757150  0.44669750  0.03939600  1
  C  1216  1  0.49289050  0.49569450  0.02740100  1
  C  1217  1  0.56883400  0.54487400  0.03914900  1
  C  1218  1  0.56942550  0.54519250  0.06192200  1
  C  1231  1  0.01134050  0.56603850  0.79725800  1
  C  1233  1  0.98468900  0.42312400  0.79707100  1
  C  1235  1  0.00085100  0.49612400  0.76370100  1
  C  1237  1  0.97469850  0.35105250  0.80839600  1
  C  1238  1  0.98039900  0.35153900  0.83127900  1
  C  1239  1  0.98642550  0.28732350  0.84230900  1
  C  1240  1  0.98473600  0.21882700  0.83103900  1
  C  1241  1  0.96892400  0.21278000  0.80850100  1
  C  1242  1  0.96500150  0.27832650  0.79738500  1
  C  1243  1  0.01884200  0.63685600  0.80870700  1
  C  1244  1  0.00931600  0.63428000  0.83150400  1
  C  1245  1  0.00062750  0.69706450  0.84246600  1
  C  1246  1  0.00336200  0.76621900  0.83127600  1
  C  1247  1  0.02294000  0.77427700  0.80892000  1
  C  1248  1  0.02980800  0.71032700  0.79784100  1
  C  1249  1  0.00234500  0.49707400  0.74064100  1
  C  1250  1  0.02978050  0.57322450  0.72891800  1
  C  1251  1  0.03094350  0.57406050  0.70614500  1
  C  1252  1  0.00416150  0.49872050  0.69412100  1
  C  1253  1  0.97665900  0.42258400  0.70583800  1
  C  1254  1  0.97606350  0.42180950  0.72861000  1
  C  1267  1  0.56016300  0.98365700  0.46382300  1
  C  1269  1  0.44381550  0.01018650  0.46380900  1
  C  1271  1  0.50089200  0.99515900  0.43034800  1
  C  1273  1  0.38154700  0.01964900  0.47519900  1
  C  1274  1  0.37610350  0.01318550  0.49806600  1
  C  1275  1  0.30579150  0.00686050  0.50912200  1
  C  1276  1  0.23900100  0.00884400  0.49792200  1
  C  1277  1  0.24899850  0.02531750  0.47540500  1
  C  1278  1  0.31857950  0.02963550  0.46425400  1
  C  1279  1  0.62336150  0.97578850  0.47522800  1
  C  1280  1  0.63003050  0.98454250  0.49804800  1
  C  1281  1  0.70120050  0.99258650  0.50902900  1
  C  1282  1  0.76774150  0.99026350  0.49779600  1
  C  1283  1  0.75670950  0.97169050  0.47539100  1
  C  1284  1  0.68610450  0.96534450  0.46431000  1
  C  1285  1  0.50020900  0.99423500  0.40728400  1
  C  1286  1  0.54904150  0.96733950  0.39541200  1
  C  1287  1  0.54828500  0.96642400  0.37263800  1
  C  1288  1  0.49921600  0.99298700  0.36076200  1
  C  1289  1  0.45058350  0.02009150  0.37262800  1
  C  1290  1  0.45079750  0.02039350  0.39539900  1
  C  1303  1  0.99129650  0.55899850  0.56796200  1
  C  1305  1  0.01545300  0.44103600  0.56784700  1
  C  1307  1  0.00395000  0.50004700  0.60136500  1
  C  1309  1  0.02241100  0.37741200  0.55637700  1
  C  1310  1  0.01190600  0.37016800  0.53361000  1
  C  1311  1  0.00239000  0.29840200  0.52264100  1
  C  1312  1  0.00550800  0.23204500  0.53375600  1
  C  1313  1  0.02765900  0.24453500  0.55595400  1
  C  1314  1  0.03402750  0.31506150  0.56712300  1
  C  1315  1  0.98414200  0.62269700  0.55658900  1
  C  1316  1  0.99393250  0.62983550  0.53380300  1
  C  1317  1  0.00354850  0.70175350  0.52289800  1
  C  1318  1  0.00102950  0.76825250  0.53410100  1
  C  1319  1  0.97962150  0.75593750  0.55634500  1
  C  1320  1  0.97300000  0.68516100  0.56743700  1
  C  1321  1  0.00430850  0.49998150  0.62443200  1
  C  1322  1  0.97904650  0.54993550  0.63639900  1
  C  1323  1  0.97888600  0.54941400  0.65917400  1
  C  1324  1  0.00453100  0.49939900  0.67095500  1
  C  1325  1  0.03021750  0.44980850  0.65899600  1
  C  1326  1  0.02982700  0.44984800  0.63622300  1
  C  1339  1  0.43372800  0.42153500  0.90127570  1
  C  1341  1  0.55165400  0.56367400  0.90110970  1
  C  1343  1  0.49229550  0.49357050  0.93465070  1
  C  1345  1  0.61544250  0.63404650  0.88961600  1
  C  1346  1  0.62299250  0.63040250  0.86687200  1
  C  1347  1  0.69482650  0.69251250  0.85589900  1
  C  1348  1  0.76105300  0.76212200  0.86700300  1
  C  1349  1  0.74829550  0.77222050  0.88915800  1
  C  1350  1  0.67764550  0.70820350  0.90032470  1
  C  1351  1  0.37017500  0.35053000  0.88991900  1
  C  1352  1  0.36326100  0.35286700  0.86711800  1
  C  1353  1  0.29159150  0.29029750  0.85619200  1
  C  1354  1  0.22494450  0.22142650  0.86739800  1
  C  1355  1  0.23688950  0.21282450  0.88969400  1
  C  1356  1  0.30750800  0.27713500  0.90079570  1
  C  1357  1  0.49212800  0.49417900  0.95771370  1
  C  1358  1  0.44252550  0.41893250  0.96970070  1
  C  1359  1  0.44292950  0.41942250  0.99247370  1
  C  1360  1  0.49237350  0.49526750  0.00423600  1
  C  1361  1  0.54154450  0.57058950  0.99225570  1
  C  1362  1  0.54169200  0.57002000  0.96948170  1
  C  1375  1  0.56977700  0.00580300  0.23453400  1
  C  1377  1  0.42762600  0.98155900  0.23455300  1
  C  1379  1  0.49867300  0.99342000  0.26800300  1
  C  1381  1  0.35687850  0.97439850  0.22312100  1
  C  1382  1  0.35984000  0.98452600  0.20034200  1
  C  1383  1  0.29740650  0.99376750  0.18938400  1
  C  1384  1  0.22799800  0.99071600  0.20051700  1
  C  1385  1  0.21870700  0.96906200  0.22274600  1
  C  1386  1  0.28303350  0.96293150  0.23390200  1
  C  1387  1  0.64048800  0.01284400  0.22311600  1
  C  1388  1  0.63757200  0.00282000  0.20033600  1
  C  1389  1  0.69972200  0.99302800  0.18940800  1
  C  1390  1  0.76885500  0.99560800  0.20056600  1
  C  1391  1  0.77817650  0.01724650  0.22280000  1
  C  1392  1  0.71419700  0.02406200  0.23392200  1
  C  1393  1  0.49875600  0.99316100  0.29107000  1
  C  1394  1  0.57429200  0.01868200  0.30291600  1
  C  1395  1  0.57445000  0.01879600  0.32568900  1
  C  1396  1  0.49899200  0.99277200  0.33759500  1
  C  1397  1  0.42339900  0.96686400  0.32575700  1
  C  1398  1  0.42331650  0.96734250  0.30298200  1
  H  7  1  0.07341350  0.13174650  0.00195400  1
  H  16  1  0.93358750  0.86888650  0.00216400  1
  H  19  1  0.88912700  0.90824100  0.95450900  1
  H  20  1  0.11825200  0.09090200  0.95439200  1
  H  21  1  0.84366500  0.16995500  0.96976400  1
  H  22  1  0.16297050  0.82933350  0.97035600  1
  H  29  1  0.05977450  0.92270950  0.66862200  1
  H  38  1  0.93687350  0.06269150  0.66876200  1
  H  41  1  0.02072500  0.10705300  0.62118700  1
  H  42  1  0.97412000  0.87786200  0.62099200  1
  H  43  1  0.32800250  0.15269850  0.63664000  1
  H  44  1  0.66810050  0.83378850  0.63671800  1
  H  51  1  0.86128450  0.93033250  0.33515200  1
  H  60  1  0.12417600  0.05337600  0.33556000  1
  H  63  1  0.08551850  0.96976350  0.28798800  1
  H  64  1  0.90271300  0.01615700  0.28755900  1
  H  65  1  0.82357500  0.66235800  0.30311900  1
  H  66  1  0.16429600  0.32210700  0.30347400  1
  H  91  1  0.30104050  0.28944550  0.66174100  1
  H  92  1  0.40719150  0.40959850  0.64329000  1
  H  93  1  0.17005050  0.19157350  0.60293600  1
  H  94  1  0.27572300  0.31180300  0.58433200  1
  H  95  1  0.36190900  0.41031300  0.53979100  1
  H  96  1  0.36075750  0.41143050  0.50141600  1
  H  97  1  0.62620100  0.58130200  0.53935700  1
  H  98  1  0.62525150  0.57998450  0.50098500  1
  H  99  1  0.71577250  0.67757350  0.58397900  1
  H  100  1  0.82331900  0.79612100  0.60266200  1
  H  101  1  0.69554800  0.69586700  0.66169900  1
  H  102  1  0.58767600  0.57716500  0.64320200  1
  H  127  1  0.98648550  0.68884050  0.32841200  1
  H  128  1  0.00083250  0.58289850  0.31000500  1
  H  129  1  0.02127150  0.82066250  0.26969900  1
  H  130  1  0.03621950  0.71520550  0.25110600  1
  H  131  1  0.05024800  0.62955300  0.20656500  1
  H  132  1  0.05304150  0.63099550  0.16818800  1
  H  133  1  0.95478850  0.36489250  0.20602100  1
  H  134  1  0.95495500  0.36615500  0.16765000  1
  H  135  1  0.96111050  0.27487750  0.25059900  1
  H  136  1  0.97173400  0.16703200  0.26926500  1
  H  137  1  0.99850950  0.29433350  0.32836500  1
  H  138  1  0.98809300  0.40241700  0.30987700  1
  H  163  1  0.70688450  0.00610450  0.99501000  1
  H  164  1  0.58682600  0.99241600  0.97658600  1
  H  165  1  0.80481150  0.97352350  0.93615250  1
  H  166  1  0.68466450  0.95934250  0.91756500  1
  H  167  1  0.58518150  0.94694950  0.87295100  1
  H  168  1  0.58316900  0.94463200  0.83456900  1
  H  169  1  0.41502650  0.04127050  0.87291900  1
  H  170  1  0.41545700  0.04158700  0.83455100  1
  H  171  1  0.31899600  0.03380900  0.91747300  1
  H  172  1  0.20040800  0.02250000  0.93618400  1
  H  173  1  0.30073650  0.99461950  0.99517000  1
  H  174  1  0.41946800  0.00566400  0.97663300  1
  H  199  1  0.01677750  0.70715050  0.97642000  1
  H  200  1  0.00208050  0.58678950  0.99477900  1
  H  201  1  0.98008000  0.80356000  0.03501100  1
  H  202  1  0.96569900  0.68309100  0.05365400  1
  H  203  1  0.95918500  0.58665300  0.09844300  1
  H  204  1  0.95801600  0.58494600  0.13682000  1
  H  205  1  0.04950550  0.41322650  0.09813800  1
  H  206  1  0.05097650  0.41392950  0.13651200  1
  H  207  1  0.04211000  0.31735600  0.05331500  1
  H  208  1  0.02771250  0.19713950  0.03460600  1
  H  209  1  0.98876700  0.29301000  0.97618700  1
  H  210  1  0.00335400  0.41310800  0.99465700  1
  H  235  1  0.28642200  0.29786200  0.30968800  1
  H  236  1  0.40659550  0.40382150  0.32807500  1
  H  237  1  0.18925500  0.16576400  0.36838400  1
  H  238  1  0.30947550  0.27209450  0.38702400  1
  H  239  1  0.40629250  0.36221050  0.43176100  1
  H  240  1  0.40772200  0.36299700  0.47013500  1
  H  241  1  0.57802250  0.62633650  0.43137900  1
  H  242  1  0.57702900  0.62734000  0.46975600  1
  H  243  1  0.67527050  0.71418850  0.38650900  1
  H  244  1  0.79569550  0.81967850  0.36780600  1
  H  245  1  0.70032850  0.68414950  0.30945900  1
  H  246  1  0.57995150  0.57893650  0.32792700  1
  H  271  1  0.69172250  0.97967450  0.64293800  1
  H  272  1  0.58629000  0.99461800  0.66134400  1
  H  273  1  0.82540850  0.01685250  0.70145000  1
  H  274  1  0.71962200  0.03153300  0.72013300  1
  H  275  1  0.63075550  0.03882450  0.76487200  1
  H  276  1  0.63106100  0.03985200  0.80324300  1
  H  277  1  0.36681250  0.94745350  0.76498500  1
  H  278  1  0.36689600  0.94584000  0.80336400  1
  H  279  1  0.27747500  0.95516200  0.72010600  1
  H  280  1  0.17135950  0.96915650  0.70141400  1
  H  281  1  0.30547950  0.00721650  0.64292000  1
  H  282  1  0.41124400  0.99300000  0.66136200  1
  H  1135  1  0.07341350  0.13174650  0.53220000  1
  H  1144  1  0.93358750  0.86888650  0.53241000  1
  H  1147  1  0.88912700  0.90824100  0.48475500  1
  H  1148  1  0.11825200  0.09090200  0.48463800  1
  H  1149  1  0.84366500  0.16995500  0.50001000  1
  H  1150  1  0.16297050  0.82933350  0.50060200  1
  H  1157  1  0.05977450  0.92270950  0.19886800  1
  H  1166  1  0.93687350  0.06269150  0.19900800  1
  H  1169  1  0.02072500  0.10705300  0.15143300  1
  H  1170  1  0.97412000  0.87786200  0.15123800  1
  H  1171  1  0.32800250  0.15269850  0.16688600  1
  H  1172  1  0.66810050  0.83378850  0.16696400  1
  H  1179  1  0.86128450  0.93033250  0.86539800  1
  H  1188  1  0.12417600  0.05337600  0.86580600  1
  H  1191  1  0.08551850  0.96976350  0.81823400  1
  H  1192  1  0.90271300  0.01615700  0.81780500  1
  H  1193  1  0.82357500  0.66235800  0.83336500  1
  H  1194  1  0.16429600  0.32210700  0.83372000  1
  H  1219  1  0.30104050  0.28944550  0.19198700  1
  H  1220  1  0.40719150  0.40959850  0.17353600  1
  H  1221  1  0.17005050  0.19157350  0.13318200  1
  H  1222  1  0.27572300  0.31180300  0.11457800  1
  H  1223  1  0.36190900  0.41031300  0.07003700  1
  H  1224  1  0.36075750  0.41143050  0.03166200  1
  H  1225  1  0.62620100  0.58130200  0.06960300  1
  H  1226  1  0.62525150  0.57998450  0.03123100  1
  H  1227  1  0.71577250  0.67757350  0.11422500  1
  H  1228  1  0.82331900  0.79612100  0.13290800  1
  H  1229  1  0.69554800  0.69586700  0.19194500  1
  H  1230  1  0.58767600  0.57716500  0.17344800  1
  H  1255  1  0.98648550  0.68884050  0.85865800  1
  H  1256  1  0.00083250  0.58289850  0.84025100  1
  H  1257  1  0.02127150  0.82066250  0.79994500  1
  H  1258  1  0.03621950  0.71520550  0.78135200  1
  H  1259  1  0.05024800  0.62955300  0.73681100  1
  H  1260  1  0.05304150  0.63099550  0.69843400  1
  H  1261  1  0.95478850  0.36489250  0.73626700  1
  H  1262  1  0.95495500  0.36615500  0.69789600  1
  H  1263  1  0.96111050  0.27487750  0.78084500  1
  H  1264  1  0.97173400  0.16703200  0.79951100  1
  H  1265  1  0.99850950  0.29433350  0.85861100  1
  H  1266  1  0.98809300  0.40241700  0.84012300  1
  H  1291  1  0.70688450  0.00610450  0.52525600  1
  H  1292  1  0.58682600  0.99241600  0.50683200  1
  H  1293  1  0.80481150  0.97352350  0.46639850  1
  H  1294  1  0.68466450  0.95934250  0.44781100  1
  H  1295  1  0.58518150  0.94694950  0.40319700  1
  H  1296  1  0.58316900  0.94463200  0.36481500  1
  H  1297  1  0.41502650  0.04127050  0.40316500  1
  H  1298  1  0.41545700  0.04158700  0.36479700  1
  H  1299  1  0.31899600  0.03380900  0.44771900  1
  H  1300  1  0.20040800  0.02250000  0.46643000  1
  H  1301  1  0.30073650  0.99461950  0.52541600  1
  H  1302  1  0.41946800  0.00566400  0.50687900  1
  H  1327  1  0.01677750  0.70715050  0.50666600  1
  H  1328  1  0.00208050  0.58678950  0.52502500  1
  H  1329  1  0.98008000  0.80356000  0.56525700  1
  H  1330  1  0.96569900  0.68309100  0.58390000  1
  H  1331  1  0.95918500  0.58665300  0.62868900  1
  H  1332  1  0.95801600  0.58494600  0.66706600  1
  H  1333  1  0.04950550  0.41322650  0.62838400  1
  H  1334  1  0.05097650  0.41392950  0.66675800  1
  H  1335  1  0.04211000  0.31735600  0.58356100  1
  H  1336  1  0.02771250  0.19713950  0.56485200  1
  H  1337  1  0.98876700  0.29301000  0.50643300  1
  H  1338  1  0.00335400  0.41310800  0.52490300  1
  H  1363  1  0.28642200  0.29786200  0.83993400  1
  H  1364  1  0.40659550  0.40382150  0.85832100  1
  H  1365  1  0.18925500  0.16576400  0.89863000  1
  H  1366  1  0.30947550  0.27209450  0.91726970  1
  H  1367  1  0.40629250  0.36221050  0.96200670  1
  H  1368  1  0.40772200  0.36299700  0.00038100  1
  H  1369  1  0.57802250  0.62633650  0.96162470  1
  H  1370  1  0.57702900  0.62734000  0.00000200  1
  H  1371  1  0.67527050  0.71418850  0.91675470  1
  H  1372  1  0.79569550  0.81967850  0.89805200  1
  H  1373  1  0.70032850  0.68414950  0.83970500  1
  H  1374  1  0.57995150  0.57893650  0.85817300  1
  H  1399  1  0.69172250  0.97967450  0.17318400  1
  H  1400  1  0.58629000  0.99461800  0.19159000  1
  H  1401  1  0.82540850  0.01685250  0.23169600  1
  H  1402  1  0.71962200  0.03153300  0.25037900  1
  H  1403  1  0.63075550  0.03882450  0.29511800  1
  H  1404  1  0.63106100  0.03985200  0.33348900  1
  H  1405  1  0.36681250  0.94745350  0.29523100  1
  H  1406  1  0.36689600  0.94584000  0.33361000  1
  H  1407  1  0.27747500  0.95516200  0.25035200  1
  H  1408  1  0.17135950  0.96915650  0.23166000  1
  H  1409  1  0.30547950  0.00721650  0.17316600  1
  H  1410  1  0.41124400  0.99300000  0.19160800  1
  N  68  1  0.49638900  0.49426200  0.61065900  1
  N  70  1  0.56444150  0.55149050  0.57813800  1
  N  72  1  0.42620150  0.43876950  0.57827400  1
  N  104  1  0.99713550  0.49410250  0.27736700  1
  N  106  1  0.98695350  0.42641450  0.24482600  1
  N  108  1  0.01272350  0.56474050  0.24500800  1
  N  140  1  0.50230550  0.99743950  0.94402000  1
  N  142  1  0.44497600  0.00860500  0.91156200  1
  N  144  1  0.55762350  0.98297150  0.91157000  1
  N  176  1  0.00320500  0.50001200  0.02722600  1
  N  178  1  0.01555200  0.44301000  0.05960500  1
  N  180  1  0.99194900  0.55707200  0.05972000  1
  N  212  1  0.49282650  0.49229250  0.36051500  1
  N  214  1  0.54944600  0.56208400  0.39287000  1
  N  216  1  0.43541550  0.42439150  0.39302900  1
  N  248  1  0.49870950  0.99374150  0.69386600  1
  N  250  1  0.42981600  0.98165800  0.72631500  1
  N  252  1  0.56751550  0.00534050  0.72628900  1
  N  1196  1  0.49638900  0.49426200  0.14090500  1
  N  1198  1  0.56444150  0.55149050  0.10838400  1
  N  1200  1  0.42620150  0.43876950  0.10852000  1
  N  1232  1  0.99713550  0.49410250  0.80761300  1
  N  1234  1  0.98695350  0.42641450  0.77507200  1
  N  1236  1  0.01272350  0.56474050  0.77525400  1
  N  1268  1  0.50230550  0.99743950  0.47426600  1
  N  1270  1  0.44497600  0.00860500  0.44180800  1
  N  1272  1  0.55762350  0.98297150  0.44181600  1
  N  1304  1  0.00320500  0.50001200  0.55747200  1
  N  1306  1  0.01555200  0.44301000  0.58985100  1
  N  1308  1  0.99194900  0.55707200  0.58996600  1
  N  1340  1  0.49282650  0.49229250  0.89076100  1
  N  1342  1  0.54944600  0.56208400  0.92311570  1
  N  1344  1  0.43541550  0.42439150  0.92327470  1
  N  1376  1  0.49870950  0.99374150  0.22411200  1
  N  1378  1  0.42981600  0.98165800  0.25656100  1
  N  1380  1  0.56751550  0.00534050  0.25653500  1
  O  8  1  0.84476750  0.15303950  0.98485800  1
  O  15  1  0.16201750  0.84678850  0.98540300  1
  O  17  1  0.86050700  0.90344800  0.96839000  1
  O  18  1  0.14672850  0.09618650  0.96832400  1
  O  30  1  0.30983300  0.15156800  0.65172100  1
  O  37  1  0.68631900  0.83468300  0.65178100  1
  O  39  1  0.04459700  0.13575400  0.63505800  1
  O  40  1  0.95096200  0.84949200  0.63493800  1
  O  52  1  0.84029100  0.68038200  0.31822300  1
  O  59  1  0.14672800  0.30388500  0.31852600  1
  O  61  1  0.09006150  0.94574650  0.30186400  1
  O  62  1  0.89725800  0.03921600  0.30149500  1
  O  1136  1  0.84476750  0.15303950  0.51510400  1
  O  1143  1  0.16201750  0.84678850  0.51564900  1
  O  1145  1  0.86050700  0.90344800  0.49863600  1
  O  1146  1  0.14672850  0.09618650  0.49857000  1
  O  1158  1  0.30983300  0.15156800  0.18196700  1
  O  1165  1  0.68631900  0.83468300  0.18202700  1
  O  1167  1  0.04459700  0.13575400  0.16530400  1
  O  1168  1  0.95096200  0.84949200  0.16518400  1
  O  1180  1  0.84029100  0.68038200  0.84846900  1
  O  1187  1  0.14672800  0.30388500  0.84877200  1
  O  1189  1  0.09006150  0.94574650  0.83211000  1
  O  1190  1  0.89725800  0.03921600  0.83174100  1
