# generated using pymatgen
data_H28C49(NO)8
_symmetry_space_group_name_H-M   'P 1'
_cell_length_a   40.87847245
_cell_length_b   40.87871026
_cell_length_c   40.87818705
_cell_angle_alpha   70.52935156
_cell_angle_beta   70.53044558
_cell_angle_gamma   109.47350619
_symmetry_Int_Tables_number   1
_chemical_formula_structural   H28C49(NO)8
_chemical_formula_sum   'H168 C294 N48 O48'
_cell_volume   52584.93319811
_cell_formula_units_Z   6
loop_
 _symmetry_equiv_pos_site_id
 _symmetry_equiv_pos_as_xyz
  1  'x, y, z'
loop_
 _atom_site_type_symbol
 _atom_site_label
 _atom_site_symmetry_multiplicity
 _atom_site_fract_x
 _atom_site_fract_y
 _atom_site_fract_z
 _atom_site_occupancy
  C  1  1  0.86237800  0.29739750  0.44820750  1
  C  2  1  0.87993800  0.32623800  0.45742700  1
  C  3  1  0.85086150  0.32439150  0.48836200  1
  C  4  1  0.81279750  0.29758200  0.49762150  1
  C  5  1  0.77910150  0.29502350  0.52648900  1
  C  6  1  0.78445050  0.31723750  0.54676500  1
  C  7  1  0.82354050  0.33961050  0.53956900  1
  C  8  1  0.85689900  0.34443550  0.50959150  1
  C  9  1  0.92121650  0.35348000  0.43620750  1
  C  10  1  0.94635650  0.35005800  0.40626350  1
  C  11  1  0.93116950  0.31815000  0.39908650  1
  C  12  1  0.88867400  0.29256500  0.41933500  1
  C  13  1  0.79651400  0.23212650  0.49824550  1
  C  14  1  0.76816100  0.21457300  0.48850500  1
  C  15  1  0.77024600  0.24365300  0.45733800  1
  C  16  1  0.79753550  0.28174850  0.44759900  1
  C  17  1  0.74950050  0.23751450  0.43673100  1
  C  18  1  0.75443900  0.27081450  0.40661650  1
  C  19  1  0.77851100  0.31016700  0.39783100  1
  C  20  1  0.80092650  0.31552300  0.41792050  1
  C  21  1  0.80058800  0.20584500  0.52795000  1
  C  22  1  0.77510800  0.16334050  0.54807750  1
  C  23  1  0.74448850  0.14806200  0.53935150  1
  C  24  1  0.74135300  0.17323050  0.50918250  1
  C  37  1  0.81730100  0.27720850  0.47291550  1
  C  38  1  0.32159500  0.75682050  0.44802950  1
  C  39  1  0.28352300  0.72802950  0.45927950  1
  C  40  1  0.25445200  0.72986850  0.48653750  1
  C  41  1  0.27202500  0.75665700  0.49780400  1
  C  42  1  0.24573650  0.75923350  0.52893700  1
  C  43  1  0.20324100  0.73702950  0.54581950  1
  C  44  1  0.18804900  0.71469750  0.52907550  1
  C  45  1  0.21317950  0.70987000  0.50052850  1
  C  46  1  0.27747300  0.70079050  0.44524350  1
  C  47  1  0.31082300  0.70418800  0.41668200  1
  C  48  1  0.34992050  0.73605800  0.39998450  1
  C  49  1  0.35528250  0.76166050  0.41687500  1
  C  50  1  0.33685600  0.82210150  0.44860550  1
  C  51  1  0.36413950  0.83965700  0.45941650  1
  C  52  1  0.36624200  0.81058000  0.48639600  1
  C  53  1  0.33789000  0.77248250  0.49720250  1
  C  54  1  0.39298600  0.81672050  0.50100550  1
  C  55  1  0.38981500  0.78342150  0.52935350  1
  C  56  1  0.35924950  0.74406950  0.54463500  1
  C  57  1  0.33381150  0.73870950  0.52756800  1
  C  58  1  0.33342100  0.84838000  0.41826100  1
  C  59  1  0.35581250  0.89088550  0.40121800  1
  C  60  1  0.37982050  0.90616800  0.41655550  1
  C  61  1  0.38481350  0.88100250  0.44487000  1
  C  74  1  0.31710000  0.77702100  0.47291000  1
  C  75  1  0.59210700  0.28153900  0.24321400  1
  C  76  1  0.58084250  0.24348600  0.27204950  1
  C  77  1  0.55358000  0.21438700  0.27023900  1
  C  78  1  0.54232850  0.23192700  0.24342050  1
  C  79  1  0.51118300  0.20560800  0.24087500  1
  C  80  1  0.49427850  0.16311650  0.26314100  1
  C  81  1  0.51096850  0.14794500  0.28554950  1
  C  82  1  0.53954350  0.17311200  0.29032550  1
  C  83  1  0.59485350  0.23747900  0.29931250  1
  C  84  1  0.62343000  0.27085300  0.29587000  1
  C  85  1  0.64015600  0.30993150  0.26394950  1
  C  86  1  0.62323950  0.31525100  0.23836850  1
  C  87  1  0.59150800  0.29677500  0.17795200  1
  C  88  1  0.58070350  0.32407000  0.16041250  1
  C  89  1  0.55368750  0.32612700  0.18950050  1
  C  90  1  0.54288850  0.29776750  0.22758700  1
  C  91  1  0.53907850  0.35287200  0.18337750  1
  C  92  1  0.51070000  0.34965950  0.21668550  1
  C  93  1  0.49541950  0.31907900  0.25602850  1
  C  94  1  0.51251400  0.29366600  0.26137400  1
  C  95  1  0.62186550  0.29336250  0.15165700  1
  C  96  1  0.63894100  0.31581350  0.10915150  1
  C  97  1  0.62359550  0.33981600  0.09388450  1
  C  98  1  0.59525650  0.34476950  0.11906700  1
  C  111  1  0.56720900  0.27700750  0.22303450  1
  C  112  1  0.59191750  0.82229200  0.70261650  1
  C  113  1  0.58266600  0.83982900  0.67379800  1
  C  114  1  0.55172250  0.81073200  0.67566950  1
  C  115  1  0.54250000  0.77267850  0.70246150  1
  C  116  1  0.51364100  0.73896900  0.70502700  1
  C  117  1  0.49336900  0.74429750  0.68280450  1
  C  118  1  0.50048250  0.78336550  0.66049900  1
  C  119  1  0.53048500  0.81674300  0.65562800  1
  C  120  1  0.60384600  0.88110650  0.64656650  1
  C  121  1  0.63377000  0.90627300  0.64999200  1
  C  122  1  0.64100800  0.89110200  0.68185400  1
  C  123  1  0.62077600  0.84861000  0.70744600  1
  C  124  1  0.54189750  0.75643400  0.76790150  1
  C  125  1  0.55163700  0.72808100  0.78545200  1
  C  126  1  0.58281050  0.73017450  0.75637400  1
  C  127  1  0.59254850  0.75746100  0.71827850  1
  C  128  1  0.60343900  0.70945400  0.76251100  1
  C  129  1  0.63356900  0.71440800  0.72921200  1
  C  130  1  0.64232350  0.73844450  0.68986600  1
  C  131  1  0.62223350  0.76085750  0.68450500  1
  C  132  1  0.51217950  0.76049350  0.79418900  1
  C  133  1  0.49208900  0.73504150  0.83668950  1
  C  134  1  0.50079400  0.70440450  0.85196950  1
  C  135  1  0.53098350  0.70129250  0.82680000  1
  C  148  1  0.56721700  0.77721050  0.72282050  1
  C  149  1  0.33768300  0.50238050  0.22732950  1
  C  150  1  0.36449650  0.51163600  0.18926950  1
  C  151  1  0.36633400  0.54255700  0.16018400  1
  C  152  1  0.33751100  0.55179650  0.17773550  1
  C  153  1  0.33265650  0.58063700  0.15142950  1
  C  154  1  0.35826000  0.60089250  0.10893550  1
  C  155  1  0.39015700  0.59370500  0.09375100  1
  C  156  1  0.39356150  0.56375150  0.11890500  1
  C  157  1  0.38450700  0.49037700  0.18324500  1
  C  158  1  0.37965950  0.46038650  0.21661000  1
  C  159  1  0.35733950  0.45324200  0.25568850  1
  C  160  1  0.33510950  0.47350550  0.26103100  1
  C  161  1  0.32184700  0.55239700  0.24258600  1
  C  162  1  0.28375050  0.54265300  0.26987250  1
  C  163  1  0.25467450  0.51149250  0.27194600  1
  C  164  1  0.27223100  0.50175900  0.24359000  1
  C  165  1  0.21332250  0.49085700  0.29870750  1
  C  166  1  0.18815500  0.46071800  0.29554100  1
  C  167  1  0.20344550  0.45198050  0.26493500  1
  C  168  1  0.24595200  0.47206550  0.23949950  1
  C  169  1  0.35562150  0.58210900  0.23916450  1
  C  170  1  0.35025650  0.60217200  0.26160550  1
  C  171  1  0.31090750  0.59342850  0.28562200  1
  C  172  1  0.27760800  0.56328750  0.29058650  1
  C  185  1  0.31731200  0.52708650  0.22281450  1
  C  186  1  0.79669850  0.50221150  0.76807000  1
  C  187  1  0.76988200  0.51346600  0.78561000  1
  C  188  1  0.76807250  0.54072800  0.75651050  1
  C  189  1  0.79690650  0.55199050  0.71846000  1
  C  190  1  0.80176250  0.58313350  0.68474900  1
  C  191  1  0.77616900  0.60003400  0.69007000  1
  C  192  1  0.74420550  0.58326450  0.72913600  1
  C  193  1  0.74080600  0.55473550  0.76251450  1
  C  194  1  0.74978500  0.49941950  0.82688650  1
  C  195  1  0.75453350  0.47082150  0.85205400  1
  C  196  1  0.77695550  0.45414100  0.83688050  1
  C  197  1  0.79923800  0.47106200  0.79438500  1
  C  198  1  0.81254050  0.50279350  0.70221300  1
  C  199  1  0.85063250  0.51359750  0.67385500  1
  C  200  1  0.87971700  0.54058750  0.67594250  1
  C  201  1  0.86217050  0.55139850  0.70322900  1
  C  202  1  0.92106750  0.55519350  0.65519700  1
  C  203  1  0.94624950  0.58357050  0.66011800  1
  C  204  1  0.93096600  0.59885400  0.68418400  1
  C  205  1  0.88845950  0.58176300  0.70663850  1
  C  206  1  0.77876050  0.47244000  0.70628550  1
  C  207  1  0.78411100  0.45537750  0.68084250  1
  C  208  1  0.82345150  0.47073550  0.65020100  1
  C  209  1  0.85675800  0.49903550  0.64706850  1
  C  222  1  0.81708800  0.52709650  0.72299050  1
  C  445  1  0.75406050  0.42155050  0.68434100  1
  C  446  1  0.75682900  0.38616600  0.69492800  1
  C  447  1  0.74620250  0.36211700  0.67794350  1
  C  448  1  0.73146550  0.37099250  0.65110700  1
  C  449  1  0.72320350  0.40324250  0.64542300  1
  C  450  1  0.73611800  0.42870350  0.66056950  1
  C  452  1  0.73233350  0.35191950  0.62657200  1
  C  453  1  0.72467300  0.31189900  0.64104700  1
  C  454  1  0.73656600  0.29672400  0.61532000  1
  C  455  1  0.75446400  0.32128900  0.57310500  1
  C  456  1  0.75734750  0.35970400  0.55850850  1
  C  457  1  0.74748100  0.37450750  0.58487350  1
  C  473  1  0.96130000  0.63272800  0.68031200  1
  C  474  1  0.98613700  0.66821950  0.64226950  1
  C  475  1  0.02716100  0.69226550  0.62885750  1
  C  476  1  0.04514100  0.68325550  0.65241050  1
  C  477  1  0.01856500  0.65092500  0.69288800  1
  C  478  1  0.97797300  0.62547600  0.70536400  1
  C  480  1  0.08875300  0.70236600  0.63249200  1
  C  481  1  0.11429550  0.74240550  0.60018300  1
  C  482  1  0.15522350  0.75764150  0.57315800  1
  C  483  1  0.17288150  0.73309950  0.57979600  1
  C  484  1  0.14905950  0.69461250  0.61526700  1
  C  485  1  0.10786500  0.67976300  0.63988600  1
  C  501  1  0.38028900  0.62874800  0.26536300  1
  C  502  1  0.37758050  0.61547200  0.30349850  1
  C  503  1  0.38823150  0.64309300  0.31690150  1
  C  504  1  0.40296650  0.68465950  0.29327600  1
  C  505  1  0.41121700  0.69857000  0.25277300  1
  C  506  1  0.39827300  0.67047650  0.24026950  1
  C  508  1  0.40209850  0.70834450  0.31319800  1
  C  509  1  0.40972700  0.70153650  0.34557550  1
  C  510  1  0.39780100  0.71537000  0.37263700  1
  C  511  1  0.37989400  0.73968550  0.36596250  1
  C  512  1  0.37708300  0.75140550  0.33038850  1
  C  513  1  0.38697050  0.73490800  0.30572350  1
  C  529  1  0.17311600  0.42553350  0.26137050  1
  C  530  1  0.14831250  0.43880500  0.25072450  1
  C  531  1  0.10728000  0.41121150  0.26770550  1
  C  532  1  0.08928550  0.36966800  0.29467050  1
  C  533  1  0.11584350  0.35572800  0.30041050  1
  C  534  1  0.15644350  0.38381200  0.28527450  1
  C  536  1  0.04567300  0.34599200  0.31917800  1
  C  537  1  0.02013150  0.35278100  0.30469550  1
  C  538  1  0.97921150  0.33888850  0.33040100  1
  C  539  1  0.96153050  0.31458400  0.37260550  1
  C  540  1  0.98537200  0.30291750  0.38723550  1
  C  541  1  0.02656150  0.31947600  0.36088650  1
  C  557  1  0.35960050  0.92121150  0.36738300  1
  C  558  1  0.39776000  0.94601450  0.33200450  1
  C  559  1  0.41117850  0.98704450  0.30795500  1
  C  560  1  0.38755750  0.00499850  0.31681700  1
  C  561  1  0.34703750  0.97842500  0.34905250  1
  C  562  1  0.33449600  0.93782100  0.37451900  1
  C  564  1  0.40749500  0.04860850  0.29775450  1
  C  565  1  0.43988350  0.07416800  0.25775550  1
  C  566  1  0.46694300  0.11506500  0.24261300  1
  C  567  1  0.46026250  0.13271600  0.26718450  1
  C  568  1  0.42468150  0.10887100  0.30556150  1
  C  569  1  0.40001450  0.06770600  0.32034650  1
  C  585  1  0.35569500  0.71407400  0.57852400  1
  C  586  1  0.34505150  0.71664200  0.61400650  1
  C  587  1  0.36202350  0.70600150  0.63805800  1
  C  588  1  0.38899600  0.69143900  0.62905900  1
  C  589  1  0.39473400  0.68327500  0.59674200  1
  C  590  1  0.37959700  0.69625050  0.57128950  1
  C  592  1  0.41350550  0.69225100  0.64816050  1
  C  593  1  0.39902700  0.68454050  0.68819050  1
  C  594  1  0.42473850  0.69634800  0.70340550  1
  C  595  1  0.46694850  0.71427000  0.67885750  1
  C  596  1  0.48156950  0.71723450  0.64039300  1
  C  597  1  0.45521550  0.70744900  0.62555450  1
  C  613  1  0.77863150  0.13300750  0.57457800  1
  C  614  1  0.78919400  0.10818200  0.56125100  1
  C  615  1  0.77222450  0.06715400  0.58886150  1
  C  616  1  0.74541850  0.04920350  0.63043700  1
  C  617  1  0.73977000  0.07578400  0.64437400  1
  C  618  1  0.75490300  0.11638400  0.61630500  1
  C  620  1  0.72087250  0.00559550  0.65411800  1
  C  621  1  0.73531000  0.98003400  0.64728300  1
  C  622  1  0.70955750  0.93913200  0.66113450  1
  C  623  1  0.66734350  0.92150300  0.68549250  1
  C  624  1  0.65279650  0.94533250  0.69723000  1
  C  625  1  0.67918450  0.98649950  0.68071200  1
  C  641  1  0.77458150  0.34016250  0.37142300  1
  C  642  1  0.73652600  0.33756650  0.38465950  1
  C  643  1  0.72311300  0.34818600  0.35704500  1
  C  644  1  0.74667700  0.36275400  0.31550800  1
  C  645  1  0.78716650  0.37093150  0.30159900  1
  C  646  1  0.79965450  0.35796500  0.32970450  1
  C  648  1  0.72676250  0.36193600  0.29180950  1
  C  649  1  0.69442500  0.36962350  0.29859350  1
  C  650  1  0.66741400  0.35783650  0.28467350  1
  C  651  1  0.67413350  0.33999300  0.26033150  1
  C  652  1  0.70960900  0.33699950  0.24866850  1
  C  653  1  0.73420000  0.34676350  0.26527450  1
  C  669  1  0.46554050  0.73851800  0.86702450  1
  C  670  1  0.47883300  0.74907300  0.89187900  1
  C  671  1  0.45122300  0.73210800  0.93290400  1
  C  672  1  0.40965100  0.70529550  0.95085050  1
  C  673  1  0.39572400  0.69964900  0.92426200  1
  C  674  1  0.42380700  0.71479500  0.88366400  1
  C  676  1  0.38596600  0.68074550  0.99445750  1
  C  677  1  0.39279000  0.69518350  0.02002250  1
  C  678  1  0.37894000  0.66943050  0.06092350  1
  C  679  1  0.35460100  0.62721500  0.07854500  1
  C  680  1  0.34287400  0.61266350  0.05471150  1
  C  681  1  0.35938450  0.63905300  0.01354850  1
  C  697  1  0.66875100  0.73453500  0.65987700  1
  C  698  1  0.65552000  0.69647200  0.66247100  1
  C  699  1  0.68312100  0.68304550  0.65184450  1
  C  700  1  0.72466050  0.70660050  0.63726800  1
  C  701  1  0.73858050  0.74709000  0.62908350  1
  C  702  1  0.71048250  0.75958500  0.64204550  1
  C  704  1  0.74835100  0.68667900  0.63808100  1
  C  705  1  0.74156250  0.65435200  0.63037650  1
  C  706  1  0.75547650  0.62733450  0.64215300  1
  C  707  1  0.77980350  0.63402900  0.66001650  1
  C  708  1  0.79146350  0.66948900  0.66303650  1
  C  709  1  0.77487400  0.69409500  0.65327100  1
  C  725  1  0.67274700  0.31961400  0.07881300  1
  C  726  1  0.70818000  0.35774500  0.05392300  1
  C  727  1  0.73223650  0.37114650  0.01289900  1
  C  728  1  0.72335250  0.34751250  0.99496900  1
  C  729  1  0.69111350  0.30700400  0.02157550  1
  C  730  1  0.66567000  0.29451550  0.06216750  1
  C  732  1  0.74239800  0.36742200  0.95136100  1
  C  733  1  0.78239300  0.39982800  0.92578100  1
  C  734  1  0.79751800  0.42686800  0.88488400  1
  C  735  1  0.77291350  0.42011700  0.86727650  1
  C  736  1  0.73454550  0.38453850  0.89112200  1
  C  737  1  0.71978850  0.35990150  0.93228400  1
  C  753  1  0.46151900  0.31550250  0.28605650  1
  C  754  1  0.42606400  0.30484100  0.28345100  1
  C  755  1  0.40204400  0.32185100  0.29405400  1
  C  756  1  0.41105950  0.34884650  0.30859400  1
  C  757  1  0.44338300  0.35460050  0.31675950  1
  C  758  1  0.46883050  0.33944850  0.30381600  1
  C  760  1  0.39197200  0.37336900  0.30775400  1
  C  761  1  0.35194150  0.35889400  0.31546050  1
  C  762  1  0.33673500  0.38460650  0.30363750  1
  C  763  1  0.36128900  0.42681700  0.28571000  1
  C  764  1  0.39975500  0.44143750  0.28274550  1
  C  765  1  0.41458650  0.41508050  0.29254000  1
  H  25  1  0.72535500  0.11783350  0.55334150  1
  H  26  1  0.72001350  0.16112750  0.50245800  1
  H  27  1  0.73066950  0.20945050  0.44346100  1
  H  28  1  0.73817350  0.26566950  0.39265000  1
  H  29  1  0.81884900  0.34365650  0.41172350  1
  H  30  1  0.82253650  0.21756950  0.53413300  1
  H  31  1  0.75103000  0.27761750  0.53219750  1
  H  32  1  0.82858250  0.35544300  0.55394450  1
  H  33  1  0.88493650  0.36250800  0.50351250  1
  H  34  1  0.87696450  0.27021350  0.41361800  1
  H  35  1  0.93321650  0.37547550  0.44224400  1
  H  36  1  0.97656050  0.36952250  0.39181700  1
  H  62  1  0.39603550  0.93639650  0.40547500  1
  H  63  1  0.40362800  0.89310750  0.45411750  1
  H  64  1  0.41429800  0.84478650  0.49179550  1
  H  65  1  0.40890950  0.78857350  0.54049200  1
  H  66  1  0.31186800  0.71057500  0.53778800  1
  H  67  1  0.31549950  0.83665050  0.40805000  1
  H  68  1  0.25745050  0.77664350  0.53959000  1
  H  69  1  0.15784350  0.69894050  0.53982200  1
  H  70  1  0.20117450  0.69184450  0.49052700  1
  H  71  1  0.38335850  0.78400650  0.40622100  1
  H  72  1  0.24943250  0.67883300  0.45521450  1
  H  73  1  0.30577250  0.68476700  0.40589650  1
  H  99  1  0.63466950  0.35604550  0.06365800  1
  H  100  1  0.58598950  0.36356950  0.10697700  1
  H  101  1  0.54831500  0.37421750  0.15531750  1
  H  102  1  0.49958150  0.36877200  0.21155650  1
  H  103  1  0.50231400  0.27173200  0.28950200  1
  H  104  1  0.63207750  0.27543800  0.16337350  1
  H  105  1  0.50053150  0.21730050  0.22345000  1
  H  106  1  0.50019850  0.11774100  0.30137250  1
  H  107  1  0.54952300  0.16112700  0.30838700  1
  H  108  1  0.63388750  0.34331450  0.21600400  1
  H  109  1  0.58484800  0.20945400  0.32132500  1
  H  110  1  0.63416800  0.26585400  0.31533800  1
  H  136  1  0.48683750  0.68529500  0.88219850  1
  H  137  1  0.53770900  0.67995650  0.83889850  1
  H  138  1  0.59671100  0.69062650  0.79057650  1
  H  139  1  0.64752850  0.69813600  0.73436350  1
  H  140  1  0.62841850  0.77876450  0.65637300  1
  H  141  1  0.50598400  0.78243150  0.78246250  1
  H  142  1  0.50794600  0.71090600  0.72243500  1
  H  143  1  0.48612150  0.78840250  0.64465000  1
  H  144  1  0.53653800  0.84477100  0.63756800  1
  H  145  1  0.62648500  0.83692000  0.72981000  1
  H  146  1  0.59776450  0.89309250  0.62460800  1
  H  147  1  0.64815600  0.93647900  0.63056100  1
  H  173  1  0.30576250  0.60744050  0.30183800  1
  H  174  1  0.24954400  0.55658200  0.30938300  1
  H  175  1  0.20121850  0.49757950  0.32004600  1
  H  176  1  0.15792050  0.44676200  0.31463650  1
  H  177  1  0.25767950  0.46589750  0.21754100  1
  H  178  1  0.38376000  0.58833350  0.22121950  1
  H  179  1  0.31029100  0.58633900  0.16312800  1
  H  180  1  0.40955300  0.60806100  0.06354300  1
  H  181  1  0.41552900  0.55768500  0.10691100  1
  H  182  1  0.31769550  0.46779400  0.28909950  1
  H  183  1  0.40254500  0.49642050  0.15521150  1
  H  184  1  0.39545900  0.44597950  0.21157850  1
  H  210  1  0.82858900  0.45961700  0.63108900  1
  H  211  1  0.88481900  0.50827600  0.62572600  1
  H  212  1  0.93316600  0.54596050  0.63636550  1
  H  213  1  0.97648150  0.59468450  0.64386100  1
  H  214  1  0.87673650  0.59197050  0.72456800  1
  H  215  1  0.75062800  0.46222600  0.72822700  1
  H  216  1  0.82413900  0.59379600  0.65668800  1
  H  217  1  0.72479650  0.59406600  0.73415050  1
  H  218  1  0.71881100  0.54474750  0.79053950  1
  H  219  1  0.81665850  0.46041000  0.78269350  1
  H  220  1  0.73172350  0.50939800  0.83887250  1
  H  221  1  0.73872650  0.46004950  0.88226000  1
  H  451  1  0.73483250  0.45462600  0.65184950  1
  H  458  1  0.71304250  0.29415800  0.67108250  1
  H  459  1  0.75495200  0.40398200  0.57237300  1
  H  460  1  0.75335800  0.33990500  0.68260700  1
  H  462  1  0.72015100  0.24290850  0.66053850  1
  H  463  1  0.73902050  0.24748850  0.61552200  1
  H  467  1  0.69742050  0.43257400  0.62248450  1
  H  468  1  0.69036200  0.39228200  0.61825800  1
  H  479  1  0.96077500  0.59953450  0.73255950  1
  H  486  1  0.10201300  0.76017700  0.59415000  1
  H  487  1  0.09090750  0.65027100  0.66184850  1
  H  488  1  0.04471900  0.71455200  0.59952100  1
  H  490  1  0.16382450  0.81144750  0.53574200  1
  H  491  1  0.20427650  0.80688400  0.52147650  1
  H  495  1  0.01206600  0.62154400  0.74800100  1
  H  496  1  0.05660450  0.66185750  0.71485300  1
  H  507  1  0.39955400  0.68047600  0.21306400  1
  H  514  1  0.42135200  0.68312950  0.35171050  1
  H  515  1  0.37952500  0.73994300  0.28370200  1
  H  516  1  0.38109150  0.63128850  0.34626500  1
  H  518  1  0.41419550  0.68657050  0.41006400  1
  H  519  1  0.39530600  0.71270750  0.42434350  1
  H  523  1  0.43700600  0.74726100  0.19763400  1
  H  524  1  0.44408650  0.75858250  0.23084100  1
  H  535  1  0.17363800  0.37379600  0.29400200  1
  H  542  1  0.03241200  0.37111200  0.27464100  1
  H  543  1  0.04351550  0.31444550  0.37341600  1
  H  544  1  0.08973050  0.42300800  0.26299450  1
  H  546  1  0.97061400  0.36774750  0.28520950  1
  H  547  1  0.93017250  0.34157200  0.33023250  1
  H  551  1  0.12230250  0.30708200  0.32326350  1
  H  552  1  0.07776750  0.29573550  0.32749600  1
  H  563  1  0.30728000  0.92061650  0.40043450  1
  H  570  1  0.44602200  0.06188700  0.24000400  1
  H  571  1  0.37798550  0.05072750  0.34981000  1
  H  572  1  0.44055300  0.00460000  0.28574900  1
  H  574  1  0.50438650  0.12367450  0.18881000  1
  H  575  1  0.51866150  0.16409900  0.19340950  1
  H  579  1  0.29191000  0.97201450  0.37835450  1
  H  580  1  0.32514650  0.01653450  0.33806400  1
  H  591  1  0.38832950  0.69498000  0.54535550  1
  H  598  1  0.36897450  0.67280600  0.70596950  1
  H  599  1  0.46774300  0.71496500  0.59606700  1
  H  600  1  0.35730800  0.71306400  0.66033600  1
  H  602  1  0.37953550  0.67995400  0.75721850  1
  H  603  1  0.42455750  0.69880100  0.75264150  1
  H  607  1  0.41758700  0.65751300  0.56738300  1
  H  608  1  0.42181900  0.65035850  0.60769150  1
  H  619  1  0.74619950  0.13358650  0.62632200  1
  H  626  1  0.76533950  0.99231750  0.62885200  1
  H  627  1  0.66670400  0.00348350  0.68575850  1
  H  628  1  0.77687050  0.04959950  0.57704100  1
  H  630  1  0.75474550  0.93051750  0.63229800  1
  H  631  1  0.70972200  0.89008400  0.65848400  1
  H  635  1  0.71690300  0.08221000  0.69308800  1
  H  636  1  0.71267050  0.03768900  0.70437650  1
  H  647  1  0.82686300  0.35924600  0.31970400  1
  H  654  1  0.68836050  0.38133350  0.31693400  1
  H  655  1  0.75617850  0.33925800  0.26026250  1
  H  656  1  0.69376700  0.34110850  0.36882850  1
  H  658  1  0.62994450  0.37416200  0.31352150  1
  H  659  1  0.61573050  0.35537500  0.28728450  1
  H  663  1  0.84228950  0.39671500  0.25297950  1
  H  664  1  0.80912950  0.40386150  0.24160100  1
  H  675  1  0.41379400  0.70608400  0.86646100  1
  H  682  1  0.41121000  0.72521400  0.00774400  1
  H  683  1  0.35434800  0.62657450  0.99655950  1
  H  684  1  0.46303650  0.73676100  0.95046250  1
  H  686  1  0.40775350  0.71462300  0.06954650  1
  H  687  1  0.38158150  0.66959850  0.10997500  1
  H  691  1  0.34702150  0.67677450  0.91782200  1
  H  692  1  0.33571700  0.67252750  0.96235250  1
  H  703  1  0.72049750  0.78679450  0.64076000  1
  H  710  1  0.72322950  0.64830400  0.61865650  1
  H  711  1  0.77988450  0.71606550  0.66078900  1
  H  712  1  0.67132950  0.65369900  0.65892350  1
  H  714  1  0.72664550  0.58990000  0.62578850  1
  H  715  1  0.75286600  0.57566150  0.64458350  1
  H  719  1  0.78721250  0.80220850  0.60329600  1
  H  720  1  0.79857800  0.76903750  0.59616450  1
  H  731  1  0.63975500  0.26730050  0.07937550  1
  H  738  1  0.80015350  0.40598950  0.93804800  1
  H  739  1  0.69032650  0.33786350  0.94928000  1
  H  740  1  0.75445150  0.40051550  0.99533800  1
  H  742  1  0.85132800  0.46434650  0.87624050  1
  H  743  1  0.84671100  0.47857600  0.83582400  1
  H  747  1  0.66178500  0.25184550  0.02805150  1
  H  748  1  0.70206700  0.28505050  0.98351750  1
  H  759  1  0.49476900  0.34818050  0.30507650  1
  H  766  1  0.33415450  0.32884000  0.32720650  1
  H  767  1  0.44407350  0.42760700  0.28502550  1
  H  768  1  0.37976900  0.31713650  0.28698650  1
  H  770  1  0.28291950  0.33940500  0.32003250  1
  H  771  1  0.28750600  0.38442950  0.30116950  1
  H  775  1  0.47274900  0.37748950  0.34250050  1
  H  776  1  0.43244400  0.38172050  0.34964050  1
  N  461  1  0.73228750  0.25955450  0.63171600  1
  N  464  1  0.77237750  0.38653100  0.51764850  1
  N  465  1  0.77452750  0.37801900  0.71893950  1
  N  466  1  0.70359450  0.41107600  0.62535550  1
  N  489  1  0.17603050  0.79484150  0.54031200  1
  N  492  1  0.16308000  0.66776700  0.62706100  1
  N  493  1  0.97027250  0.67642100  0.61643650  1
  N  494  1  0.03080500  0.64298900  0.72031800  1
  N  517  1  0.40205850  0.70325150  0.40554100  1
  N  520  1  0.36206050  0.77723350  0.31856100  1
  N  521  1  0.35988700  0.57376850  0.32937350  1
  N  522  1  0.43083750  0.73823800  0.22530450  1
  N  545  1  0.95841150  0.35096100  0.31401950  1
  N  548  1  0.97136050  0.27707450  0.42809200  1
  N  549  1  0.16420050  0.48051150  0.22667500  1
  N  550  1  0.10357600  0.31605050  0.32056850  1
  N  573  1  0.49985800  0.13584150  0.20546050  1
  N  576  1  0.41284700  0.12288200  0.33240200  1
  N  577  1  0.42361200  0.93015700  0.32386800  1
  N  578  1  0.31958550  0.99064750  0.35686700  1
  N  601  1  0.40834950  0.69199900  0.74060350  1
  N  604  1  0.52243350  0.73230100  0.61353150  1
  N  605  1  0.32100600  0.73429600  0.62219200  1
  N  606  1  0.41489250  0.66376350  0.58882000  1
  N  629  1  0.72592700  0.91834750  0.64900550  1
  N  632  1  0.61194550  0.93131800  0.72307250  1
  N  633  1  0.81316450  0.12403150  0.51953900  1
  N  634  1  0.71974950  0.06357200  0.68404950  1
  N  657  1  0.63454850  0.36215700  0.29671850  1
  N  660  1  0.72142850  0.32197300  0.22283850  1
  N  661  1  0.71069400  0.31990300  0.42636100  1
  N  662  1  0.81459950  0.39045450  0.26192800  1
  N  685  1  0.39105850  0.68580450  0.08171200  1
  N  688  1  0.31705300  0.57180900  0.06871900  1
  N  689  1  0.52054150  0.77306250  0.87604500  1
  N  690  1  0.35605300  0.67961950  0.93646750  1
  N  713  1  0.74343650  0.59448300  0.63780650  1
  N  716  1  0.81727300  0.68127650  0.67809450  1
  N  717  1  0.61381650  0.67063800  0.68013750  1
  N  718  1  0.77825550  0.77451650  0.60956000  1
  N  741  1  0.83466800  0.45979450  0.86408450  1
  N  744  1  0.70769550  0.37268600  0.87712650  1
  N  745  1  0.71635000  0.38363550  0.06973650  1
  N  746  1  0.68327600  0.27951800  0.00939500  1
  N  769  1  0.29953950  0.36822000  0.30798150  1
  N  772  1  0.42662000  0.48230150  0.26767750  1
  N  773  1  0.41787500  0.28077100  0.26582100  1
  N  774  1  0.45131300  0.37478500  0.33624900  1
  O  469  1  0.80936350  0.40180250  0.49561000  1
  O  470  1  0.80646850  0.37864100  0.70056650  1
  O  471  1  0.75406900  0.37027500  0.50316600  1
  O  472  1  0.75081000  0.34452450  0.75037950  1
  O  497  1  0.16984650  0.65248850  0.60535300  1
  O  498  1  0.98803950  0.67587200  0.58507150  1
  O  499  1  0.19380000  0.68399400  0.62915200  1
  O  500  1  0.97229800  0.70989750  0.60673850  1
  O  525  1  0.32506950  0.76228400  0.34025050  1
  O  526  1  0.32796050  0.56021400  0.36070250  1
  O  527  1  0.38035050  0.81002300  0.31651850  1
  O  528  1  0.38361950  0.56605750  0.33913100  1
  O  553  1  0.96461900  0.29199300  0.45016400  1
  O  554  1  0.14645500  0.49411100  0.24500700  1
  O  555  1  0.94063250  0.24427300  0.44257850  1
  O  556  1  0.16216650  0.48820900  0.19522650  1
  O  581  1  0.43452750  0.12962850  0.34771100  1
  O  582  1  0.45492850  0.94791650  0.32449600  1
  O  583  1  0.41080950  0.15362850  0.31613900  1
  O  584  1  0.43340100  0.93221000  0.29037400  1
  O  609  1  0.54446500  0.76929000  0.59825300  1
  O  610  1  0.33933650  0.76620950  0.62163500  1
  O  611  1  0.53694700  0.71400300  0.62974300  1
  O  612  1  0.28955150  0.71053200  0.65566750  1
  O  637  1  0.58989400  0.92455750  0.70813650  1
  O  638  1  0.79476000  0.10626200  0.50600100  1
  O  639  1  0.59746550  0.90057450  0.75585800  1
  O  640  1  0.84461250  0.12198850  0.51178200  1
  O  665  1  0.69973350  0.28498700  0.23776150  1
  O  666  1  0.67934900  0.28797550  0.43994550  1
  O  667  1  0.72351600  0.34029600  0.19003200  1
  O  668  1  0.70096050  0.34365250  0.43405800  1
  O  693  1  0.33200900  0.54977750  0.07547750  1
  O  694  1  0.53408650  0.75467250  0.89381600  1
  O  695  1  0.28426150  0.55731200  0.09946150  1
  O  696  1  0.52827950  0.80450900  0.87808950  1
  O  721  1  0.80232750  0.65955100  0.71507850  1
  O  722  1  0.60023350  0.63929450  0.71206300  1
  O  723  1  0.85008200  0.68336900  0.65977600  1
  O  724  1  0.60611050  0.66090450  0.65639100  1
  O  749  1  0.69238450  0.39436350  0.87037800  1
  O  750  1  0.71573700  0.41495250  0.05195350  1
  O  751  1  0.72395350  0.37064300  0.84638150  1
  O  752  1  0.74984050  0.39341300  0.06769250  1
  O  777  1  0.44191000  0.50433150  0.23068650  1
  O  778  1  0.41844750  0.29909000  0.23389350  1
  O  779  1  0.41041150  0.49682100  0.28596950  1
  O  780  1  0.38438700  0.24933150  0.28959050  1
