# generated using pymatgen
data_MnGe2H8C6S3O4
_symmetry_space_group_name_H-M   'P 1'
_cell_length_a   12.27888000
_cell_length_b   14.02126000
_cell_length_c   14.11602000
_cell_angle_alpha   117.52759000
_cell_angle_beta   92.98870000
_cell_angle_gamma   110.30003000
_symmetry_Int_Tables_number   1
_chemical_formula_structural   MnGe2H8C6S3O4
_chemical_formula_sum   'Mn4 Ge8 H32 C24 S12 O16'
_cell_volume   1954.21590442
_cell_formula_units_Z   4
loop_
 _symmetry_equiv_pos_site_id
 _symmetry_equiv_pos_as_xyz
  1  'x, y, z'
loop_
 _atom_site_type_symbol
 _atom_site_label
 _atom_site_symmetry_multiplicity
 _atom_site_fract_x
 _atom_site_fract_y
 _atom_site_fract_z
 _atom_site_occupancy
  Mn  Mn0  1  0.17854000  0.79022000  0.33464000  1
  Mn  Mn1  1  0.82146000  0.20977000  0.66537000  1
  Mn  Mn2  1  0.50000000  0.00000000  0.50000000  1
  Mn  Mn3  1  0.99997000  0.99993000  0.50001000  1
  Ge  Ge4  1  0.36365000  0.13198000  0.89260000  1
  Ge  Ge5  1  0.66337000  0.34880000  0.03626000  1
  Ge  Ge6  1  0.49282000  0.19563000  0.15176000  1
  Ge  Ge7  1  0.41785000  0.40322000  0.12206000  1
  Ge  Ge8  1  0.63635000  0.86802000  0.10741000  1
  Ge  Ge9  1  0.33663000  0.65121000  0.96375000  1
  Ge  Ge10  1  0.50718000  0.80437000  0.84825000  1
  Ge  Ge11  1  0.58215000  0.59679000  0.87795000  1
  H  H12  1  0.17623000  0.96115000  0.73829000  1
  H  H13  1  0.31222000  0.95233000  0.70612000  1
  H  H14  1  0.35935000  0.13369000  0.68406000  1
  H  H15  1  0.21065000  0.11976000  0.69219000  1
  H  H16  1  0.78635000  0.37666000  0.90955000  1
  H  H17  1  0.86604000  0.36303000  0.00836000  1
  H  H18  1  0.95235000  0.57029000  0.02444000  1
  H  H19  1  0.82700000  0.58849000  0.06653000  1
  H  H20  1  0.53531000  0.20481000  0.33350000  1
  H  H21  1  0.56221000  0.09011000  0.22629000  1
  H  H22  1  0.30736000  0.07430000  0.24321000  1
  H  H23  1  0.34241000  0.96180000  0.14707000  1
  H  H24  1  0.27204000  0.48952000  0.20165000  1
  H  H25  1  0.34594000  0.54921000  0.12343000  1
  H  H26  1  0.46397000  0.61915000  0.35803000  1
  H  H27  1  0.53566000  0.67515000  0.27870000  1
  H  H28  1  0.82377000  0.03884000  0.26172000  1
  H  H29  1  0.68778000  0.04767000  0.29388000  1
  H  H30  1  0.64064000  0.86630000  0.31593000  1
  H  H31  1  0.78933000  0.88023000  0.30780000  1
  H  H32  1  0.21365000  0.62334000  0.09046000  1
  H  H33  1  0.13396000  0.63697000  0.99165000  1
  H  H34  1  0.04766000  0.42972000  0.97557000  1
  H  H35  1  0.17301000  0.41151000  0.93347000  1
  H  H36  1  0.46469000  0.79520000  0.66651000  1
  H  H37  1  0.43779000  0.90989000  0.77372000  1
  H  H38  1  0.69265000  0.92570000  0.75680000  1
  H  H39  1  0.65759000  0.03820000  0.85294000  1
  H  H40  1  0.72796000  0.51048000  0.79836000  1
  H  H41  1  0.65406000  0.45079000  0.87658000  1
  H  H42  1  0.53603000  0.38085000  0.64198000  1
  H  H43  1  0.46434000  0.32486000  0.72130000  1
  C  C44  1  0.26763000  0.01214000  0.73942000  1
  C  C45  1  0.26769000  0.07148000  0.67061000  1
  C  C46  1  0.22413000  0.97684000  0.55073000  1
  C  C47  1  0.81369000  0.40843000  0.99790000  1
  C  C48  1  0.88396000  0.54237000  0.06461000  1
  C  C49  1  0.94844000  0.59013000  0.18277000  1
  C  C50  1  0.49808000  0.12996000  0.24813000  1
  C  C51  1  0.37559000  0.03854000  0.23188000  1
  C  C52  1  0.36824000  0.98647000  0.30604000  1
  C  C53  1  0.35941000  0.52786000  0.18748000  1
  C  C54  1  0.44762000  0.63879000  0.29287000  1
  C  C55  1  0.40406000  0.73650000  0.34122000  1
  C  C56  1  0.73237000  0.98786000  0.26059000  1
  C  C57  1  0.73230000  0.92851000  0.32939000  1
  C  C58  1  0.77587000  0.02313000  0.44928000  1
  C  C59  1  0.18631000  0.59157000  0.00211000  1
  C  C60  1  0.11604000  0.45763000  0.93540000  1
  C  C61  1  0.05157000  0.40993000  0.81721000  1
  C  C62  1  0.50192000  0.87005000  0.75188000  1
  C  C63  1  0.62442000  0.96146000  0.76812000  1
  C  C64  1  0.63175000  0.01352000  0.69396000  1
  C  C65  1  0.64059000  0.47214000  0.81253000  1
  C  C66  1  0.55238000  0.36121000  0.70713000  1
  C  C67  1  0.59594000  0.26350000  0.65878000  1
  S  S68  1  0.54389000  0.20692000  0.86589000  1
  S  S69  1  0.28321000  0.26317000  0.95881000  1
  S  S70  1  0.36604000  0.04188000  0.98753000  1
  S  S71  1  0.60102000  0.49414000  0.10757000  1
  S  S72  1  0.68196000  0.27576000  0.14388000  1
  S  S73  1  0.41843000  0.33129000  0.23484000  1
  S  S74  1  0.45612000  0.79309000  0.13412000  1
  S  S75  1  0.71679000  0.73684000  0.04119000  1
  S  S76  1  0.63396000  0.95812000  0.01247000  1
  S  S77  1  0.39898000  0.50586000  0.89244000  1
  S  S78  1  0.31805000  0.72424000  0.85613000  1
  S  S79  1  0.58157000  0.66871000  0.76516000  1
  O  O80  1  0.29003000  0.92639000  0.50335000  1
  O  O81  1  0.11498000  0.93727000  0.49472000  1
  O  O82  1  0.01899000  0.70471000  0.23579000  1
  O  O83  1  0.93513000  0.52429000  0.22069000  1
  O  O84  1  0.26536000  0.91115000  0.29114000  1
  O  O85  1  0.46507000  0.02277000  0.37713000  1
  O  O86  1  0.29255000  0.70876000  0.31961000  1
  O  O87  1  0.48762000  0.84212000  0.40355000  1
  O  O88  1  0.70999000  0.07363000  0.49666000  1
  O  O89  1  0.88499000  0.06264000  0.50530000  1
  O  O90  1  0.98101000  0.29528000  0.76422000  1
  O  O91  1  0.06487000  0.47566000  0.77935000  1
  O  O92  1  0.73465000  0.08885000  0.70887000  1
  O  O93  1  0.53494000  0.97723000  0.62288000  1
  O  O94  1  0.70746000  0.29124000  0.68040000  1
  O  O95  1  0.51238000  0.15788000  0.59646000  1
