# generated using pymatgen
data_H13C16N2O
_symmetry_space_group_name_H-M   'P 1'
_cell_length_a   19.54670000
_cell_length_b   19.54670000
_cell_length_c   27.32040000
_cell_angle_alpha   89.12120000
_cell_angle_beta   89.12120000
_cell_angle_gamma   89.98650000
_symmetry_Int_Tables_number   1
_chemical_formula_structural   H13C16N2O
_chemical_formula_sum   'H104 C128 N16 O8'
_cell_volume   10435.94485679
_cell_formula_units_Z   8
loop_
 _symmetry_equiv_pos_site_id
 _symmetry_equiv_pos_as_xyz
  1  'x, y, z'
loop_
 _atom_site_type_symbol
 _atom_site_label
 _atom_site_symmetry_multiplicity
 _atom_site_fract_x
 _atom_site_fract_y
 _atom_site_fract_z
 _atom_site_occupancy
  C  1  1  0.75908800  0.15107650  0.02235200  1
  C  2  1  0.78100600  0.16888600  0.06978900  1
  C  3  1  0.78129800  0.12160100  0.10932200  1
  C  4  1  0.76156700  0.05346700  0.10071100  1
  C  5  1  0.74029900  0.03205600  0.05444500  1
  C  6  1  0.73795100  0.08168200  0.01575800  1
  C  9  1  0.76272300  0.20064350  0.98319100  1
  C  10  1  0.75184000  0.27265350  0.98878400  1
  C  11  1  0.76212600  0.31982200  0.94896400  1
  C  12  1  0.78285700  0.29393100  0.90312400  1
  C  13  1  0.79381100  0.22378900  0.89617400  1
  C  14  1  0.78318500  0.17842400  0.93599400  1
  C  21  1  0.80709900  0.19951600  0.84890100  1
  C  22  1  0.71384400  0.96610300  0.04943700  1
  C  23  1  0.79149100  0.14073900  0.15817600  1
  C  24  1  0.75151100  0.39021850  0.95284700  1
  C  29  1  0.60279400  0.21420600  0.51981400  1
  C  30  1  0.57440700  0.19247050  0.56535900  1
  C  31  1  0.56921300  0.23547350  0.60607400  1
  C  32  1  0.59221700  0.30363700  0.60136200  1
  C  33  1  0.62040600  0.32880200  0.55667800  1
  C  34  1  0.62512300  0.28375650  0.51608400  1
  C  37  1  0.60479500  0.16674900  0.48047900  1
  C  38  1  0.61525700  0.09466950  0.48732500  1
  C  39  1  0.60693000  0.04810300  0.44832000  1
  C  40  1  0.58956500  0.07471700  0.40194100  1
  C  41  1  0.58188600  0.14529450  0.39329000  1
  C  42  1  0.59008800  0.19036850  0.43246400  1
  C  49  1  0.57405500  0.16824650  0.34484600  1
  C  50  1  0.65380100  0.39205350  0.55521700  1
  C  51  1  0.56202600  0.20441800  0.65251100  1
  C  52  1  0.61649900  0.97768600  0.45353700  1
  C  57  1  0.15198000  0.61032100  0.77245900  1
  C  58  1  0.16961200  0.58908800  0.82055900  1
  C  59  1  0.12227700  0.58993100  0.86004100  1
  C  60  1  0.05425900  0.60987200  0.85080000  1
  C  61  1  0.03320400  0.63086900  0.80392800  1
  C  62  1  0.08284000  0.63215800  0.76520900  1
  C  65  1  0.20149500  0.60607500  0.73340900  1
  C  66  1  0.27351800  0.61693600  0.73861400  1
  C  67  1  0.32033500  0.60739050  0.69872600  1
  C  68  1  0.29419000  0.58743000  0.65326400  1
  C  69  1  0.22414100  0.57559100  0.64689000  1
  C  70  1  0.17907000  0.58554300  0.68673300  1
  C  77  1  0.19948700  0.56333450  0.59987200  1
  C  78  1  0.96776500  0.65846900  0.79823900  1
  C  79  1  0.14136000  0.58136550  0.90923000  1
  C  80  1  0.39065200  0.61816000  0.70213200  1
  C  85  1  0.21534000  0.76670150  0.26929800  1
  C  86  1  0.19332000  0.79554000  0.31397900  1
  C  87  1  0.23602600  0.80125700  0.35470100  1
  C  88  1  0.30439800  0.77880200  0.35071100  1
  C  89  1  0.33008200  0.75073150  0.30673700  1
  C  90  1  0.28516200  0.74519800  0.26620800  1
  C  93  1  0.16783600  0.76410600  0.23006200  1
  C  94  1  0.09579600  0.75338250  0.23727400  1
  C  95  1  0.04887800  0.76249050  0.19836400  1
  C  96  1  0.07523800  0.78087300  0.15169900  1
  C  97  1  0.14580700  0.78821400  0.14265600  1
  C  98  1  0.19120200  0.77918950  0.18173500  1
  C  105  1  0.16844800  0.79727250  0.09407700  1
  C  106  1  0.39387200  0.71832900  0.30605200  1
  C  107  1  0.20458100  0.80870600  0.40083900  1
  C  108  1  0.97839900  0.75296200  0.20398400  1
  C  113  1  0.78418400  0.88370750  0.09651100  1
  C  114  1  0.77019300  0.82280700  0.12311000  1
  C  115  1  0.82045700  0.79015600  0.15203200  1
  C  116  1  0.88631900  0.82045500  0.15501300  1
  C  117  1  0.90128000  0.88214700  0.12859400  1
  C  119  1  0.85052600  0.91153600  0.09849600  1
  C  121  1  0.80419800  0.72439850  0.17779000  1
  C  125  1  0.96811100  0.91834900  0.13066200  1
  C  131  1  0.58529400  0.47886000  0.59923500  1
  C  132  1  0.60043000  0.53988850  0.62366900  1
  C  133  1  0.54984900  0.57569100  0.65066000  1
  C  134  1  0.48255800  0.54831650  0.65405500  1
  C  135  1  0.46645400  0.48664600  0.62965200  1
  C  137  1  0.51759500  0.45438200  0.60107300  1
  C  139  1  0.56758800  0.64120050  0.67442500  1
  C  143  1  0.39796800  0.45352750  0.63246300  1
  C  149  1  0.88448500  0.58772350  0.84545300  1
  C  150  1  0.82342500  0.60108850  0.87173000  1
  C  151  1  0.79016100  0.54988300  0.90057900  1
  C  152  1  0.81995500  0.48364850  0.90377700  1
  C  153  1  0.88195200  0.46943600  0.87782800  1
  C  155  1  0.91193700  0.52115700  0.84777600  1
  C  157  1  0.72434000  0.56563300  0.92605200  1
  C  161  1  0.91756800  0.40220600  0.88012100  1
  C  167  1  0.47971000  0.78647500  0.35010700  1
  C  168  1  0.54052400  0.77066800  0.37493600  1
  C  169  1  0.57564000  0.82030550  0.40213800  1
  C  170  1  0.54768300  0.88721050  0.40542600  1
  C  171  1  0.48639600  0.90412400  0.38045000  1
  C  173  1  0.45484900  0.85399950  0.35165200  1
  C  175  1  0.64112500  0.80206850  0.42616300  1
  C  179  1  0.45261000  0.97220350  0.38307500  1
  C  185  1  0.73834400  0.22531400  0.20585500  1
  C  186  1  0.67108000  0.19978850  0.20288500  1
  C  187  1  0.62308300  0.20784500  0.24116200  1
  C  188  1  0.64620700  0.23537600  0.28592700  1
  C  189  1  0.71156100  0.26784800  0.28756000  1
  C  191  1  0.75567100  0.26564500  0.24592900  1
  C  193  1  0.55149000  0.18684100  0.23134700  1
  C  197  1  0.74158900  0.29438150  0.33342300  1
  C  203  1  0.65226200  0.15099600  0.70337500  1
  C  204  1  0.72406800  0.14930600  0.70101700  1
  C  205  1  0.76248700  0.15043500  0.74431600  1
  C  206  1  0.72729100  0.14424500  0.79027000  1
  C  207  1  0.65539500  0.13211000  0.79203200  1
  C  209  1  0.61817300  0.14084800  0.74851900  1
  C  211  1  0.83775000  0.16000300  0.73914100  1
  C  215  1  0.61489000  0.12122000  0.83819300  1
  C  221  1  0.22573300  0.63295200  0.95667500  1
  C  222  1  0.20085400  0.70050200  0.95263600  1
  C  223  1  0.20741400  0.74742550  0.99073100  1
  C  224  1  0.23305800  0.72286700  0.03624200  1
  C  225  1  0.26473000  0.65711300  0.03917800  1
  C  227  1  0.26375600  0.61404400  0.99793100  1
  C  229  1  0.18606000  0.81911200  0.98002300  1
  C  233  1  0.28921200  0.62566050  0.08583600  1
  C  239  1  0.14839400  0.71881600  0.45258500  1
  C  240  1  0.14643800  0.64706000  0.45119800  1
  C  241  1  0.14795000  0.60805500  0.49504300  1
  C  242  1  0.14179300  0.64262450  0.54047400  1
  C  243  1  0.12918200  0.71442400  0.54123200  1
  C  245  1  0.13815700  0.75230800  0.49720300  1
  C  247  1  0.15870900  0.53302850  0.49095000  1
  C  251  1  0.11883200  0.75431000  0.58684200  1
  H  7  1  0.79944700  0.21682950  0.07585500  1
  H  8  1  0.75809700  0.01955800  0.12965600  1
  H  15  1  0.78624900  0.32624800  0.87326100  1
  H  16  1  0.79660700  0.12852200  0.93065300  1
  H  19  1  0.73217500  0.02964800  0.95725400  1
  H  20  1  0.75496600  0.32610700  0.04657000  1
  H  25  1  0.82732000  0.23330300  0.82381700  1
  H  26  1  0.67187600  0.96163700  0.02976200  1
  H  27  1  0.77755100  0.10470450  0.18423900  1
  H  28  1  0.71480600  0.40805500  0.97463700  1
  H  35  1  0.55500100  0.14408750  0.56945900  1
  H  36  1  0.59547300  0.33257000  0.63222500  1
  H  43  1  0.58769700  0.04231350  0.37280600  1
  H  44  1  0.57895300  0.24077300  0.42605700  1
  H  47  1  0.63668400  0.34093650  0.45939500  1
  H  48  1  0.60994700  0.03926850  0.54562200  1
  H  53  1  0.56218900  0.13243350  0.31951400  1
  H  54  1  0.69917500  0.39365100  0.53842700  1
  H  55  1  0.54250300  0.23291200  0.68050500  1
  H  56  1  0.65215500  0.95932500  0.47559200  1
  H  63  1  0.21744100  0.57052500  0.82725000  1
  H  64  1  0.02031600  0.61408500  0.87960100  1
  H  71  1  0.32619400  0.58535000  0.62324100  1
  H  72  1  0.12915000  0.57202600  0.68183800  1
  H  75  1  0.03084400  0.63793500  0.70656400  1
  H  76  1  0.32726900  0.61303700  0.79627300  1
  H  81  1  0.23326400  0.54360100  0.57495100  1
  H  82  1  0.96420000  0.70102850  0.77817300  1
  H  83  1  0.10544600  0.59565200  0.93498800  1
  H  84  1  0.40854700  0.65472800  0.72321300  1
  H  91  1  0.14477200  0.81462400  0.31746400  1
  H  92  1  0.33317600  0.77593400  0.38172800  1
  H  99  1  0.04263200  0.78378000  0.12266300  1
  H  100  1  0.24157000  0.79039800  0.17497700  1
  H  103  1  0.34246400  0.73418300  0.20978300  1
  H  104  1  0.04072400  0.75763050  0.29570200  1
  H  109  1  0.13279600  0.81028850  0.06870900  1
  H  110  1  0.39643800  0.67341500  0.28966500  1
  H  111  1  0.23306800  0.82731650  0.42873700  1
  H  112  1  0.96012300  0.71709250  0.22668600  1
  H  118  1  0.72259000  0.80130650  0.12070400  1
  H  120  1  0.86199600  0.95423650  0.07786500  1
  H  122  1  0.75157200  0.70784550  0.17221600  1
  H  123  1  0.81139500  0.72993500  0.21706900  1
  H  124  1  0.83817900  0.68425100  0.16442200  1
  H  126  1  0.99888900  0.90131300  0.16140900  1
  H  127  1  0.95997900  0.97321900  0.13502700  1
  H  128  1  0.99697100  0.91025700  0.09673100  1
  H  136  1  0.64923100  0.55890150  0.62132600  1
  H  138  1  0.50537700  0.41193450  0.58165400  1
  H  140  1  0.62115900  0.65541000  0.66862400  1
  H  141  1  0.55809900  0.63678000  0.71381900  1
  H  142  1  0.53606100  0.68245000  0.65959200  1
  H  144  1  0.37019800  0.46658400  0.66592000  1
  H  145  1  0.40258500  0.39782650  0.63257000  1
  H  146  1  0.36810900  0.46922300  0.60080900  1
  H  154  1  0.80220500  0.64890500  0.86906400  1
  H  156  1  0.95471500  0.51018100  0.82733600  1
  H  158  1  0.70824600  0.61862700  0.92035700  1
  H  159  1  0.72951000  0.55678600  0.96536400  1
  H  160  1  0.68404300  0.53253300  0.91255800  1
  H  162  1  0.90196000  0.37167400  0.91204300  1
  H  163  1  0.97280100  0.40948000  0.88265450  1
  H  164  1  0.90711200  0.37360750  0.84706900  1
  H  172  1  0.55986700  0.72206300  0.37276900  1
  H  174  1  0.41249600  0.86674300  0.33201300  1
  H  176  1  0.65585600  0.74887600  0.42038500  1
  H  177  1  0.63631700  0.80979300  0.46554900  1
  H  178  1  0.68220200  0.83458900  0.41151800  1
  H  180  1  0.46803500  0.00066300  0.41503300  1
  H  181  1  0.39708400  0.96650050  0.38585000  1
  H  182  1  0.46503400  0.00205850  0.35005200  1
  H  190  1  0.65671700  0.17533000  0.17175500  1
  H  192  1  0.80505900  0.28260550  0.24844100  1
  H  194  1  0.53532800  0.20775800  0.19606100  1
  H  195  1  0.51551200  0.20610200  0.25873600  1
  H  196  1  0.54797300  0.13114650  0.23025600  1
  H  198  1  0.70462500  0.29748300  0.36360900  1
  H  199  1  0.76172000  0.34585400  0.32682500  1
  H  200  1  0.78340900  0.26111500  0.34500300  1
  H  208  1  0.74829400  0.15877050  0.66803200  1
  H  210  1  0.56578700  0.14077000  0.74963200  1
  H  212  1  0.85740400  0.13967550  0.70465200  1
  H  213  1  0.86458900  0.13323100  0.76844800  1
  H  214  1  0.85000000  0.21441900  0.73985000  1
  H  216  1  0.64678300  0.11165000  0.86998100  1
  H  217  1  0.58163400  0.07677200  0.83451600  1
  H  218  1  0.58320600  0.16606800  0.84539400  1
  H  226  1  0.17756500  0.71572300  0.92091300  1
  H  228  1  0.28009000  0.56438400  0.00112100  1
  H  230  1  0.20561500  0.83577100  0.94410900  1
  H  231  1  0.20641400  0.85475800  0.00642600  1
  H  232  1  0.13031800  0.82261400  0.97992100  1
  H  234  1  0.29104400  0.66163250  0.11589700  1
  H  235  1  0.34088600  0.60562850  0.08049400  1
  H  236  1  0.25542900  0.58353300  0.09694300  1
  H  244  1  0.15593400  0.62342700  0.41850700  1
  H  246  1  0.13841600  0.80468300  0.49756600  1
  H  248  1  0.13799100  0.51347300  0.45698200  1
  H  249  1  0.13301800  0.50537100  0.52095300  1
  H  250  1  0.21335100  0.52170800  0.49127200  1
  H  252  1  0.10900900  0.72193700  0.61905600  1
  H  253  1  0.07470600  0.78807650  0.58278600  1
  H  254  1  0.16402000  0.78540900  0.59356800  1
  N  129  1  0.73481800  0.90932950  0.06858100  1
  N  130  1  0.93588700  0.78829900  0.17866000  1
  N  147  1  0.63564500  0.44936750  0.57403600  1
  N  148  1  0.43365100  0.58207800  0.67761850  1
  N  165  1  0.91051500  0.63777800  0.81725000  1
  N  166  1  0.78754500  0.43322200  0.92747700  1
  N  183  1  0.45067600  0.73676600  0.32509400  1
  N  184  1  0.58112200  0.93520000  0.42902900  1
  N  201  1  0.78636600  0.20678800  0.17224200  1
  N  202  1  0.61882900  0.21708050  0.33007300  1
  N  219  1  0.62194800  0.17334450  0.66232300  1
  N  220  1  0.75351500  0.16279200  0.83357400  1
  N  237  1  0.20742600  0.58592350  0.92332300  1
  N  238  1  0.21517200  0.75059850  0.07975100  1
  N  255  1  0.17190000  0.74945500  0.41133500  1
  N  256  1  0.16137500  0.61622900  0.58403000  1
  O  17  1  0.70477100  0.06491650  0.97383400  1
  O  18  1  0.72186800  0.29580100  0.03092200  1
  O  45  1  0.66237700  0.30390700  0.47559200  1
  O  46  1  0.64305800  0.07099950  0.53002500  1
  O  73  1  0.06644500  0.66509400  0.72238400  1
  O  74  1  0.29704200  0.64644900  0.78014800  1
  O  101  1  0.30580000  0.70804600  0.22661000  1
  O  102  1  0.07258000  0.72493300  0.28050100  1
