# generated using pymatgen
data_DyH6C12N3O7
_symmetry_space_group_name_H-M   'P 1'
_cell_length_a   9.24140000
_cell_length_b   10.30400000
_cell_length_c   12.82910000
_cell_angle_alpha   76.38800000
_cell_angle_beta   69.43100000
_cell_angle_gamma   86.37700000
_symmetry_Int_Tables_number   1
_chemical_formula_structural   DyH6C12N3O7
_chemical_formula_sum   'Dy2 H12 C24 N6 O14'
_cell_volume   1111.37000386
_cell_formula_units_Z   2
loop_
 _symmetry_equiv_pos_site_id
 _symmetry_equiv_pos_as_xyz
  1  'x, y, z'
loop_
 _atom_site_type_symbol
 _atom_site_label
 _atom_site_symmetry_multiplicity
 _atom_site_fract_x
 _atom_site_fract_y
 _atom_site_fract_z
 _atom_site_occupancy
  Dy  Dy1  1  0.45968000  0.25111000  0.99767000  1.0
  Dy  Dy2  1  0.54032000  0.74889000  0.00233000  1.0
  H  H1  1  0.12630000  0.07310000  0.30910000  1.0
  H  H2  1  0.24590000  0.70610000  0.54650000  1.0
  H  H3  1  0.58030000  0.56860000  0.30720000  1.0
  H  H4  1  0.31880000  0.25350000  0.33130000  1.0
  H  H5  1  0.24910000  0.21500000  0.52920000  1.0
  H  H6  1  0.39270000  0.75190000  0.35090000  1.0
  H  H7  1  0.87370000  0.92690000  0.69090000  1.0
  H  H8  1  0.75410000  0.29390000  0.45350000  1.0
  H  H9  1  0.41970000  0.43140000  0.69280000  1.0
  H  H10  1  0.68120000  0.74650000  0.66870000  1.0
  H  H11  1  0.75090000  0.78500000  0.47080000  1.0
  H  H12  1  0.60730000  0.24810000  0.64910000  1.0
  C  C1  1  0.50750000  0.44760000  0.16840000  1.0
  C  C2  1  0.06670000  0.95900000  0.47300000  1.0
  C  C3  1  0.15090000  0.99530000  0.35590000  1.0
  C  C4  1  0.47070000  0.46060000  0.46960000  1.0
  C  C5  1  0.21980000  0.78040000  0.49710000  1.0
  C  C6  1  0.51450000  0.49330000  0.35110000  1.0
  C  C7  1  0.46070000  0.41450000  0.29790000  1.0
  C  C8  1  0.36320000  0.94810000  0.18360000  1.0
  C  C9  1  0.27160000  0.91470000  0.30960000  1.0
  C  C10  1  0.35940000  0.30860000  0.36480000  1.0
  C  C11  1  0.31980000  0.28630000  0.48300000  1.0
  C  C12  1  0.30900000  0.80700000  0.38010000  1.0
  C  C13  1  0.49250000  0.55240000  0.83160000  1.0
  C  C14  1  0.93330000  0.04100000  0.52700000  1.0
  C  C15  1  0.84910000  0.00470000  0.64410000  1.0
  C  C16  1  0.52930000  0.53940000  0.53040000  1.0
  C  C17  1  0.78020000  0.21960000  0.50290000  1.0
  C  C18  1  0.48550000  0.50670000  0.64890000  1.0
  C  C19  1  0.53930000  0.58550000  0.70210000  1.0
  C  C20  1  0.63680000  0.05190000  0.81640000  1.0
  C  C21  1  0.72840000  0.08530000  0.69040000  1.0
  C  C22  1  0.64060000  0.69140000  0.63520000  1.0
  C  C23  1  0.68020000  0.71370000  0.51700000  1.0
  C  C24  1  0.69100000  0.19300000  0.61990000  1.0
  N  N1  1  0.10030000  0.85400000  0.54260000  1.0
  N  N2  1  0.37320000  0.35700000  0.53550000  1.0
  N  N3  1  0.13130000  0.25810000  0.04290000  1.0
  N  N4  1  0.89970000  0.14600000  0.45740000  1.0
  N  N5  1  0.62680000  0.64300000  0.46450000  1.0
  N  N6  1  0.86870000  0.74190000  0.95710000  1.0
  O  O1  1  0.46030000  0.86440000  0.14540000  1.0
  O  O2  1  0.58850000  0.55120000  0.11410000  1.0
  O  O3  1  0.33710000  0.05800000  0.12440000  1.0
  O  O4  1  0.22550000  0.21800000  0.95870000  1.0
  O  O5  1  0.18720000  0.30250000  0.10270000  1.0
  O  O6  1  0.98950000  0.25330000  0.06250000  1.0
  O  O7  1  0.46200000  0.36680000  0.12740000  1.0
  O  O8  1  0.53970000  0.13560000  0.85460000  1.0
  O  O9  1  0.41150000  0.44880000  0.88590000  1.0
  O  O10  1  0.66290000  0.94200000  0.87560000  1.0
  O  O11  1  0.77450000  0.78200000  0.04130000  1.0
  O  O12  1  0.81280000  0.69750000  0.89730000  1.0
  O  O13  1  0.01050000  0.74670000  0.93750000  1.0
  O  O14  1  0.53800000  0.63320000  0.87260000  1.0
