# generated using pymatgen
data_H12C15N5O2
_symmetry_space_group_name_H-M   'P 1'
_cell_length_a   10.09206667
_cell_length_b   29.62630000
_cell_length_c   29.62630000
_cell_angle_alpha   120.00000000
_cell_angle_beta   90.00000000
_cell_angle_gamma   90.00000000
_symmetry_Int_Tables_number   1
_chemical_formula_structural   H12C15N5O2
_chemical_formula_sum   'H72 C90 N30 O12'
_cell_volume   7671.24008429
_cell_formula_units_Z   6
loop_
 _symmetry_equiv_pos_site_id
 _symmetry_equiv_pos_as_xyz
  1  'x, y, z'
loop_
 _atom_site_type_symbol
 _atom_site_label
 _atom_site_symmetry_multiplicity
 _atom_site_fract_x
 _atom_site_fract_y
 _atom_site_fract_z
 _atom_site_occupancy
  C  1  1  0.28453400  0.99408500  0.50867200  1
  C  7  1  0.95270700  0.53097300  0.49961300  1
  C  8  1  0.96871500  0.58447600  0.51538400  1
  C  9  1  0.97530400  0.60404400  0.48049900  1
  C  10  1  0.96117900  0.56909900  0.42616400  1
  C  11  1  0.94406700  0.51538500  0.40901300  1
  C  12  1  0.94162400  0.49733000  0.44487700  1
  C  15  1  0.95301900  0.51254000  0.53633200  1
  C  16  1  0.94396200  0.54626600  0.59110100  1
  C  17  1  0.94731200  0.52839100  0.62709700  1
  C  18  1  0.96335900  0.47463200  0.60995200  1
  C  19  1  0.97557100  0.43954800  0.55553500  1
  C  20  1  0.96777500  0.45900400  0.52056600  1
  C  33  1  0.29691200  0.95603100  0.45507000  1
  C  34  1  0.30585700  0.90165800  0.43575200  1
  C  35  1  0.29607800  0.88246300  0.47101700  1
  C  36  1  0.28186900  0.91922600  0.52482400  1
  C  37  1  0.27831200  0.97307500  0.54250400  1
  C  40  1  0.28422700  0.04929200  0.52701600  1
  C  41  1  0.27759700  0.07030300  0.49319200  1
  C  42  1  0.28064100  0.12416600  0.51090700  1
  C  43  1  0.29486900  0.16093500  0.56470600  1
  C  44  1  0.30487600  0.14174000  0.59996000  1
  C  45  1  0.29624500  0.08736100  0.58062800  1
  C  57  1  0.62052600  0.53950700  0.04477800  1
  C  58  1  0.63574900  0.52344000  0.08232200  1
  C  59  1  0.64302400  0.55807400  0.13679100  1
  C  60  1  0.62994300  0.61251600  0.15652900  1
  C  61  1  0.61346700  0.63003100  0.12023800  1
  C  62  1  0.61072500  0.59435500  0.06625900  1
  C  65  1  0.62047500  0.50298200  0.98953300  1
  C  66  1  0.61362400  0.44810100  0.96817100  1
  C  67  1  0.61662700  0.41228500  0.91423600  1
  C  68  1  0.63058800  0.42976100  0.87780900  1
  C  69  1  0.64073400  0.48428500  0.89741800  1
  C  70  1  0.63272800  0.51901800  0.95187700  1
  C  83  1  0.74719400  0.48490900  0.20360300  1
  C  85  1  0.87202600  0.42406600  0.21789700  1
  C  86  1  0.86829000  0.45821500  0.27201700  1
  C  88  1  0.73698700  0.51866800  0.25849400  1
  C  89  1  0.65782800  0.56258000  0.28462600  1
  C  93  1  0.42903500  0.55039800  0.27312200  1
  C  94  1  0.31408300  0.56055700  0.24513200  1
  C  100  1  0.70377400  0.49332800  0.16335700  1
  C  102  1  0.92293500  0.44465700  0.30706900  1
  C  104  1  0.08416900  0.74351700  0.55278600  1
  C  106  1  0.21968200  0.81578000  0.61193400  1
  C  107  1  0.21252700  0.83726800  0.57912900  1
  C  109  1  0.07057400  0.76614100  0.52039600  1
  C  110  1  0.98464800  0.75060100  0.47857900  1
  C  114  1  0.75695900  0.74670400  0.49026800  1
  C  115  1  0.64662200  0.70622700  0.47798600  1
  C  121  1  0.03920700  0.69505800  0.54446000  1
  C  123  1  0.27088000  0.88553400  0.59361100  1
  C  125  1  0.41265500  0.83448900  0.29602200  1
  C  127  1  0.54514300  0.82101400  0.22287500  1
  C  128  1  0.53935700  0.76677200  0.20192300  1
  C  130  1  0.40037800  0.77950600  0.27393100  1
  C  131  1  0.31558800  0.75333300  0.29001900  1
  C  135  1  0.08770500  0.76844300  0.29302700  1
  C  136  1  0.97677200  0.79717700  0.33303600  1
  C  142  1  0.36765300  0.87464500  0.34446800  1
  C  144  1  0.59634300  0.73248700  0.15350900  1
  C  146  1  0.74542100  0.55756800  0.83092900  1
  C  148  1  0.87792200  0.61744900  0.81780800  1
  C  149  1  0.87358900  0.58400000  0.76357400  1
  C  151  1  0.73479300  0.52448200  0.77591600  1
  C  152  1  0.65180200  0.48174800  0.74936100  1
  C  156  1  0.42394500  0.49394400  0.76450000  1
  C  157  1  0.31272500  0.48208000  0.79267900  1
  C  163  1  0.70001900  0.54915700  0.87095100  1
  C  165  1  0.93125900  0.59807400  0.72938200  1
  C  167  1  0.08284100  0.29989900  0.48293300  1
  C  169  1  0.21627300  0.22714900  0.42328700  1
  C  170  1  0.21028200  0.20592400  0.45633900  1
  C  172  1  0.07085200  0.27766200  0.51570800  1
  C  173  1  0.98618500  0.29345600  0.55790400  1
  C  177  1  0.75848000  0.29630200  0.54560500  1
  C  178  1  0.64711600  0.33621900  0.55717000  1
  C  184  1  0.03793400  0.34838100  0.49132700  1
  C  186  1  0.26802700  0.15756300  0.44187800  1
  C  188  1  0.41465500  0.20867200  0.73925000  1
  C  190  1  0.55292400  0.22156100  0.81077400  1
  C  191  1  0.54635800  0.27585900  0.83223900  1
  C  193  1  0.40186200  0.26370400  0.76182000  1
  C  194  1  0.31461300  0.29005400  0.74676200  1
  C  198  1  0.08699700  0.27422900  0.74300400  1
  C  199  1  0.97671600  0.24572100  0.70260000  1
  C  205  1  0.36795500  0.16866600  0.69105200  1
  C  207  1  0.60577600  0.30968300  0.88026200  1
  H  2  1  0.26448800  0.99677800  0.58151700  1
  H  13  1  0.98368200  0.61031200  0.55352800  1
  H  22  1  0.98127800  0.43309200  0.48233800  1
  H  23  1  0.98651200  0.48227400  0.68199700  1
  H  24  1  0.99548000  0.42163700  0.63408100  1
  H  25  1  0.98182800  0.56158500  0.35406700  1
  H  26  1  0.99295000  0.62211800  0.40201100  1
  H  27  1  0.92410600  0.45851300  0.42968300  1
  H  28  1  0.92732100  0.58513800  0.60628300  1
  H  38  1  0.30673800  0.96793100  0.42872000  1
  H  47  1  0.30604200  0.07547700  0.60698700  1
  H  48  1  0.32208800  0.22504200  0.55691300  1
  H  49  1  0.32686400  0.23806300  0.61771100  1
  H  50  1  0.32334700  0.81837700  0.47884100  1
  H  51  1  0.32845100  0.80535300  0.41804900  1
  H  52  1  0.26375400  0.04658800  0.45417900  1
  H  63  1  0.64990000  0.48525100  0.06992000  1
  H  72  1  0.64371700  0.55734300  0.96422100  1
  H  73  1  0.65465500  0.35795700  0.81307900  1
  H  74  1  0.66112600  0.40613300  0.80069400  1
  H  75  1  0.65034600  0.68441500  0.22148700  1
  H  76  1  0.66151800  0.63616400  0.23359300  1
  H  77  1  0.59466800  0.60989100  0.04285900  1
  H  78  1  0.59906800  0.43258800  0.99167700  1
  H  90  1  0.92034100  0.38908200  0.20175000  1
  H  95  1  0.40814500  0.57052700  0.31498400  1
  H  96  1  0.43526100  0.50843500  0.25851600  1
  H  97  1  0.30443000  0.60227400  0.25955000  1
  H  98  1  0.22129600  0.54618600  0.25222800  1
  H  99  1  0.33244400  0.54057200  0.20320700  1
  H  101  1  0.71611900  0.46324800  0.12613300  1
  H  103  1  0.95250900  0.40715900  0.29422700  1
  H  111  1  0.27315300  0.83289200  0.64577800  1
  H  116  1  0.73234000  0.76948500  0.47155200  1
  H  117  1  0.76138400  0.77280100  0.53251700  1
  H  118  1  0.63904100  0.68010700  0.43594800  1
  H  119  1  0.55168200  0.72588700  0.49251700  1
  H  120  1  0.66842800  0.68320200  0.49656800  1
  H  122  1  0.05391700  0.68751800  0.57418100  1
  H  124  1  0.30410900  0.90825400  0.63097400  1
  H  132  1  0.59703200  0.83756500  0.20521100  1
  H  137  1  0.06306900  0.72692400  0.27071500  1
  H  138  1  0.09302800  0.78398000  0.26642300  1
  H  139  1  0.96814000  0.78186500  0.35963100  1
  H  140  1  0.88229000  0.79181400  0.31302300  1
  H  141  1  0.99872800  0.83879900  0.35559600  1
  H  143  1  0.38131400  0.91192000  0.35191500  1
  H  145  1  0.62824800  0.74639500  0.12999900  1
  H  153  1  0.92911000  0.65182900  0.83447400  1
  H  158  1  0.39931200  0.47550900  0.72302800  1
  H  159  1  0.42974800  0.53619500  0.78082500  1
  H  160  1  0.30347400  0.44007100  0.77654600  1
  H  161  1  0.21850800  0.49724500  0.78780200  1
  H  162  1  0.33482200  0.50031000  0.83423600  1
  H  164  1  0.71296000  0.57903300  0.90824200  1
  H  166  1  0.96281900  0.63553700  0.74330600  1
  H  174  1  0.26845300  0.20971300  0.38913300  1
  H  179  1  0.73404500  0.27360300  0.56442300  1
  H  180  1  0.76410900  0.27004000  0.50340900  1
  H  181  1  0.63813800  0.36245900  0.59913400  1
  H  182  1  0.55286900  0.31609300  0.54226700  1
  H  183  1  0.66885600  0.35917300  0.53851000  1
  H  185  1  0.05144000  0.35585600  0.46151200  1
  H  187  1  0.30055500  0.13459900  0.40445000  1
  H  195  1  0.60679600  0.20476300  0.82772100  1
  H  200  1  0.06185600  0.31567900  0.76570600  1
  H  201  1  0.09205200  0.25819100  0.76918800  1
  H  202  1  0.96844200  0.26153300  0.67641200  1
  H  203  1  0.88192800  0.25068900  0.72231300  1
  H  204  1  0.99908500  0.20416100  0.67964300  1
  H  206  1  0.38215700  0.13135000  0.68342700  1
  H  208  1  0.63966500  0.29517300  0.90300900  1
  N  14  1  0.97517400  0.58588200  0.39112100  1
  N  21  1  0.97845600  0.45793300  0.64500600  1
  N  29  1  0.00589400  0.38879300  0.53871500  1
  N  30  1  0.94057400  0.56548700  0.67777400  1
  N  31  1  0.93405900  0.47894700  0.35823200  1
  N  32  1  0.00585800  0.65475300  0.49721800  1
  N  39  1  0.31258500  0.83079800  0.45441500  1
  N  46  1  0.31115900  0.21261600  0.58132800  1
  N  53  1  0.33549900  0.17567400  0.65068900  1
  N  54  1  0.27611100  0.13728700  0.47342800  1
  N  55  1  0.27830700  0.90623300  0.56241000  1
  N  56  1  0.33606500  0.86773500  0.38497600  1
  N  64  1  0.64452000  0.64727800  0.20838200  1
  N  71  1  0.64616400  0.39498900  0.82601600  1
  N  79  1  0.66994600  0.50152100  0.86374200  1
  N  80  1  0.61296200  0.36154600  0.90063300  1
  N  81  1  0.60599600  0.68089400  0.13457000  1
  N  82  1  0.67289000  0.54084100  0.17040900  1
  N  84  1  0.81350300  0.43917700  0.18657200  1
  N  87  1  0.79832200  0.50310400  0.28936600  1
  N  105  1  0.15733100  0.77016000  0.59703800  1
  N  108  1  0.13567500  0.81193200  0.53580200  1
  N  126  1  0.48373500  0.85192400  0.26871700  1
  N  129  1  0.46459600  0.74898900  0.22797500  1
  N  147  1  0.81581200  0.60249000  0.84856100  1
  N  150  1  0.79959200  0.53996500  0.74558300  1
  N  168  1  0.15437300  0.27288400  0.43828900  1
  N  171  1  0.13510500  0.23167900  0.50009100  1
  N  189  1  0.48879500  0.19093300  0.76555000  1
  N  192  1  0.46851100  0.29395400  0.80725800  1
  O  91  1  0.71176100  0.60260800  0.31746300  1
  O  92  1  0.54965200  0.56952900  0.26278700  1
  O  112  1  0.02548800  0.75043400  0.43962700  1
  O  113  1  0.88064400  0.71960400  0.47087800  1
  O  133  1  0.35671100  0.71437400  0.28975500  1
  O  134  1  0.21078400  0.77647700  0.32057600  1
  O  154  1  0.69704600  0.44254400  0.71205200  1
  O  155  1  0.54665600  0.47379100  0.77196000  1
  O  175  1  0.02978100  0.29515300  0.59723700  1
  O  176  1  0.88125500  0.32399400  0.56543900  1
  O  196  1  0.35193300  0.33038900  0.74897100  1
  O  197  1  0.21050700  0.26672400  0.71584300  1
