# generated using pymatgen
data_CuH10(C4N3)2
_symmetry_space_group_name_H-M   'P 1'
_cell_length_a   9.30321000
_cell_length_b   9.64421000
_cell_length_c   10.81911115
_cell_angle_alpha   65.97278511
_cell_angle_beta   65.43125304
_cell_angle_gamma   77.80634000
_symmetry_Int_Tables_number   1
_chemical_formula_structural   CuH10(C4N3)2
_chemical_formula_sum   'Cu2 H20 C16 N12'
_cell_volume   805.30539304
_cell_formula_units_Z   2
loop_
 _symmetry_equiv_pos_site_id
 _symmetry_equiv_pos_as_xyz
  1  'x, y, z'
loop_
 _atom_site_type_symbol
 _atom_site_label
 _atom_site_symmetry_multiplicity
 _atom_site_fract_x
 _atom_site_fract_y
 _atom_site_fract_z
 _atom_site_occupancy
  Cu  Cu0  1  0.92703000  0.93944000  0.11115000  1
  Cu  Cu1  1  0.66891000  0.99710000  0.92598000  1
  H  H2  1  0.30076000  0.17081000  0.64818000  1
  H  H3  1  0.76856000  0.21547000  0.59129000  1
  H  H4  1  0.55870000  0.58370000  0.30539000  1
  H  H5  1  0.70658000  0.34281000  0.37049000  1
  H  H6  1  0.53418000  0.30038000  0.36619000  1
  H  H7  1  0.16364000  0.03976000  0.40322000  1
  H  H8  1  0.75640000  0.12637000  0.30767000  1
  H  H9  1  0.93621000  0.65880000  0.94347000  1
  H  H10  1  0.96975000  0.62427000  0.16613000  1
  H  H11  1  0.00907000  0.41569000  0.20589000  1
  H  H12  1  0.64259000  0.79945000  0.43791000  1
  H  H13  1  0.33592000  0.87888000  0.21356000  1
  H  H14  1  0.35105000  0.46287000  0.63242000  1
  H  H15  1  0.22600000  0.72688000  0.48575000  1
  H  H16  1  0.31756000  0.73900000  0.59319000  1
  H  H17  1  0.94339000  0.94141000  0.64432000  1
  H  H18  1  0.24579000  0.87634000  0.86426000  1
  H  H19  1  0.00307000  0.30888000  0.02952000  1
  H  H20  1  0.97149000  0.34879000  0.80319000  1
  H  H21  1  0.93909000  0.55659000  0.76460000  1
  C  C22  1  0.40597000  0.15982000  0.67175000  1
  C  C23  1  0.64591000  0.18540000  0.64420000  1
  C  C24  1  0.50982000  0.50006000  0.41497000  1
  C  C25  1  0.57716000  0.34198000  0.42487000  1
  C  C26  1  0.07568000  0.03897000  0.36245000  1
  C  C27  1  0.86998000  0.08215000  0.31633000  1
  C  C28  1  0.96380000  0.54559000  0.01144000  1
  C  C29  1  0.98151000  0.52702000  0.13491000  1
  C  C30  1  0.59822000  0.83788000  0.35067000  1
  C  C31  1  0.44342000  0.87394000  0.23320000  1
  C  C32  1  0.40165000  0.54406000  0.52190000  1
  C  C33  1  0.33995000  0.70653000  0.50019000  1
  C  C34  1  0.99027000  0.93018000  0.72482000  1
  C  C35  1  0.14265000  0.89632000  0.83563000  1
  C  C36  1  0.97878000  0.42313000  0.96072000  1
  C  C37  1  0.96291000  0.44387000  0.83585000  1
  N  N38  1  0.42185000  0.07380000  0.79683000  1
  N  N39  1  0.57504000  0.09081000  0.77886000  1
  N  N40  1  0.54324000  0.23173000  0.57297000  1
  N  N41  1  0.09657000  0.95167000  0.28620000  1
  N  N42  1  0.96102000  0.98065000  0.25528000  1
  N  N43  1  0.93616000  0.12316000  0.38503000  1
  N  N44  1  0.67816000  0.91347000  0.21197000  1
  N  N45  1  0.57944000  0.93614000  0.13700000  1
  N  N46  1  0.45032000  0.81212000  0.36896000  1
  N  N47  1  0.89791000  0.94949000  0.85112000  1
  N  N48  1  0.99810000  0.92750000  0.92373000  1
  N  N49  1  0.14422000  0.89725000  0.70965000  1
