# generated using pymatgen
data_H28C39(N2O)4
_symmetry_space_group_name_H-M   'P 1'
_cell_length_a   27.98845000
_cell_length_b   35.14950000
_cell_length_c   48.47733082
_cell_angle_alpha   90.00000000
_cell_angle_beta   89.99994090
_cell_angle_gamma   90.00000000
_symmetry_Int_Tables_number   1
_chemical_formula_structural   H28C39(N2O)4
_chemical_formula_sum   'H168 C234 N48 O24'
_cell_volume   47691.02964493
_cell_formula_units_Z   6
loop_
 _symmetry_equiv_pos_site_id
 _symmetry_equiv_pos_as_xyz
  1  'x, y, z'
loop_
 _atom_site_type_symbol
 _atom_site_label
 _atom_site_symmetry_multiplicity
 _atom_site_fract_x
 _atom_site_fract_y
 _atom_site_fract_z
 _atom_site_occupancy
  C  1  1  0.97830000  0.92000400  0.56819200  1
  C  2  1  0.95585600  0.93249000  0.54379900  1
  C  3  1  0.97699600  0.96077900  0.52756500  1
  C  4  1  0.02013500  0.97911700  0.53550300  1
  C  5  1  0.04292700  0.96528900  0.55968300  1
  C  6  1  0.02249800  0.93624900  0.57575900  1
  C  7  1  0.04389300  0.00721500  0.51587100  1
  C  8  1  0.57249900  0.97982900  0.99610400  1
  C  9  1  0.11082400  0.96079300  0.50415600  1
  C  10  1  0.63918400  0.93533100  0.98778700  1
  C  11  1  0.61624000  0.92090800  0.96411900  1
  C  12  1  0.57107200  0.93550800  0.95671400  1
  C  13  1  0.54973000  0.96446500  0.97243100  1
  C  14  1  0.51113400  0.03432200  0.00264900  1
  C  15  1  0.07947800  0.03484500  0.52858000  1
  C  16  1  0.12032700  0.04783600  0.51389500  1
  C  17  1  0.15343600  0.07292300  0.52580300  1
  C  18  1  0.14606600  0.08726400  0.55264300  1
  C  19  1  0.10286200  0.07789300  0.56619500  1
  C  20  1  0.07013800  0.05252100  0.55428500  1
  C  21  1  0.96742900  0.04780700  0.51785900  1
  C  22  1  0.43723000  0.07239900  0.00583100  1
  C  23  1  0.44348500  0.08605500  0.97870200  1
  C  24  1  0.48609200  0.07619400  0.96469300  1
  C  25  1  0.51929500  0.05112700  0.97651000  1
  C  42  1  0.18035800  0.11140700  0.56531900  1
  C  43  1  0.40890800  0.11027500  0.96630500  1
  C  44  1  0.63698000  0.89055000  0.94935500  1
  C  45  1  0.95736700  0.89049300  0.58378700  1
  C  50  1  0.24895100  0.25312700  0.70677000  1
  C  51  1  0.29672500  0.26569100  0.70784500  1
  C  52  1  0.31037700  0.29388200  0.72665000  1
  C  53  1  0.27681300  0.31209000  0.74426800  1
  C  54  1  0.22919300  0.29817800  0.74347400  1
  C  55  1  0.21541900  0.26922700  0.72511100  1
  C  56  1  0.29419900  0.34020700  0.76599400  1
  C  57  1  0.31177900  0.31218600  0.78775400  1
  C  58  1  0.27837100  0.29387900  0.80542700  1
  C  59  1  0.29222400  0.26573600  0.82423500  1
  C  60  1  0.34006300  0.25332100  0.82527200  1
  C  61  1  0.37342500  0.26948000  0.80685600  1
  C  62  1  0.35945500  0.29838500  0.78849900  1
  C  63  1  0.33098000  0.36790600  0.75454700  1
  C  64  1  0.25721900  0.36778300  0.77737200  1
  C  65  1  0.25881300  0.38091000  0.80510600  1
  C  66  1  0.22439900  0.40604000  0.81565200  1
  C  67  1  0.18782200  0.42031600  0.79851800  1
  C  68  1  0.18910500  0.41082800  0.77016100  1
  C  69  1  0.22332000  0.38539400  0.75981600  1
  C  70  1  0.32921700  0.38099000  0.72680000  1
  C  71  1  0.36350000  0.40617400  0.71617900  1
  C  72  1  0.40010000  0.42054100  0.73325300  1
  C  73  1  0.39893800  0.41112700  0.76162500  1
  C  74  1  0.36485100  0.38564100  0.77204400  1
  C  91  1  0.15169600  0.44452700  0.80928100  1
  C  92  1  0.43619400  0.44472300  0.72242700  1
  C  93  1  0.35306400  0.22378400  0.84353300  1
  C  94  1  0.23615300  0.22360500  0.68846700  1
  C  99  1  0.90565600  0.58629300  0.77249200  1
  C  100  1  0.87996800  0.59875100  0.79579600  1
  C  101  1  0.84493800  0.62691100  0.79316100  1
  C  102  1  0.83548400  0.64517600  0.76756400  1
  C  103  1  0.86064300  0.63134600  0.74418800  1
  C  104  1  0.89509200  0.60242100  0.74653900  1
  C  105  1  0.79426300  0.67333500  0.76538100  1
  C  106  1  0.75282600  0.64535500  0.76344200  1
  C  107  1  0.74313100  0.62685100  0.73797500  1
  C  108  1  0.70813500  0.59860900  0.73562500  1
  C  109  1  0.68264600  0.58640700  0.75907700  1
  C  110  1  0.69342800  0.60279700  0.78490400  1
  C  111  1  0.72787400  0.63175600  0.78697500  1
  C  112  1  0.79324600  0.70104800  0.78945000  1
  C  113  1  0.79548900  0.70086300  0.74118600  1
  C  114  1  0.75298600  0.71394800  0.72820100  1
  C  115  1  0.75419000  0.73926900  0.70583400  1
  C  116  1  0.79810100  0.75371500  0.69614100  1
  C  117  1  0.84008300  0.74424600  0.71088100  1
  C  118  1  0.83867800  0.71862300  0.73304200  1
  C  119  1  0.83585500  0.71389600  0.80243500  1
  C  120  1  0.83479300  0.73881500  0.82502200  1
  C  121  1  0.79093700  0.75312700  0.83489500  1
  C  122  1  0.74889200  0.74411300  0.82006800  1
  C  123  1  0.75015400  0.71887800  0.79768100  1
  C  140  1  0.79993300  0.77799100  0.67274200  1
  C  141  1  0.78934700  0.77696400  0.85850200  1
  C  142  1  0.64862800  0.55701200  0.75649700  1
  C  143  1  0.93956500  0.55685300  0.77532600  1
  C  148  1  0.87789900  0.79595300  0.61268100  1
  C  149  1  0.84879200  0.80480200  0.63586700  1
  C  150  1  0.83933500  0.84381800  0.64075200  1
  C  152  1  0.88793800  0.86196400  0.60325600  1
  C  155  1  0.89051800  0.75710700  0.60338200  1
  C  163  1  0.23193600  0.12908300  0.63424800  1
  C  164  1  0.21149600  0.13808700  0.60818600  1
  C  165  1  0.20911900  0.17713800  0.60108400  1
  C  167  1  0.24165600  0.19503300  0.64405200  1
  C  170  1  0.23944000  0.09017200  0.64511300  1
  C  178  1  0.02258500  0.46238800  0.80058200  1
  C  179  1  0.07191700  0.47132700  0.80338100  1
  C  180  1  0.08385900  0.51036000  0.80572500  1
  C  182  1  0.00319700  0.52836000  0.80048600  1
  C  185  1  0.00243500  0.42351100  0.79888800  1
  C  193  1  0.71283100  0.79566800  0.91884700  1
  C  194  1  0.74099900  0.80422400  0.89523800  1
  C  195  1  0.75075500  0.84313600  0.89012400  1
  C  197  1  0.70508700  0.86182100  0.92867000  1
  C  200  1  0.69939200  0.75699900  0.92814700  1
  C  208  1  0.35683800  0.12893500  0.89753500  1
  C  209  1  0.37720800  0.13753000  0.92369300  1
  C  210  1  0.37981600  0.17650300  0.93099500  1
  C  212  1  0.34785700  0.19505000  0.88800600  1
  C  215  1  0.34901400  0.09017500  0.88646300  1
  C  223  1  0.56530900  0.46259300  0.73130800  1
  C  224  1  0.51598700  0.47149200  0.72832100  1
  C  225  1  0.50404800  0.51052800  0.72603500  1
  C  227  1  0.58461800  0.52857600  0.73155500  1
  C  230  1  0.58551000  0.42373000  0.73298900  1
  C  238  1  0.48079700  0.91991400  0.06775200  1
  C  239  1  0.45859300  0.93255700  0.04332600  1
  C  240  1  0.48016800  0.96057400  0.02700100  1
  C  241  1  0.52356200  0.97860100  0.03486900  1
  C  242  1  0.54646200  0.96425000  0.05885100  1
  C  243  1  0.52553100  0.93552500  0.07504800  1
  C  244  1  0.54718600  0.00724600  0.01555500  1
  C  245  1  0.06766600  0.97912100  0.49623300  1
  C  246  1  0.61706700  0.96349200  0.00376600  1
  C  247  1  0.13195700  0.93249500  0.48792200  1
  C  248  1  0.10956100  0.92004600  0.46350200  1
  C  249  1  0.06533300  0.93627000  0.45596000  1
  C  250  1  0.04488200  0.96528800  0.47205200  1
  C  251  1  0.00828700  0.03483700  0.50317000  1
  C  252  1  0.58155200  0.03558800  0.02850300  1
  C  253  1  0.62079400  0.05074300  0.01345100  1
  C  254  1  0.65328900  0.07618600  0.02548900  1
  C  255  1  0.64668200  0.08881500  0.05284200  1
  C  256  1  0.60451300  0.07760300  0.06675600  1
  C  257  1  0.57251100  0.05175600  0.05474200  1
  C  258  1  0.47085800  0.04769600  0.01766700  1
  C  259  1  0.93430300  0.07288600  0.50595700  1
  C  260  1  0.94165600  0.08722200  0.47911300  1
  C  261  1  0.98487500  0.07788400  0.46556700  1
  C  262  1  0.01761400  0.05252100  0.47746900  1
  C  279  1  0.68078700  0.11294300  0.06568500  1
  C  280  1  0.90737500  0.11136400  0.46643100  1
  C  281  1  0.13050200  0.89054600  0.44788900  1
  C  282  1  0.45928900  0.89072600  0.08351800  1
  C  287  1  0.74916400  0.25323800  0.20729200  1
  C  288  1  0.79694400  0.26578200  0.20834800  1
  C  289  1  0.81047100  0.29426900  0.22690900  1
  C  290  1  0.77680600  0.31263900  0.24436500  1
  C  291  1  0.72918100  0.29871800  0.24361400  1
  C  292  1  0.71549300  0.26954600  0.22543200  1
  C  293  1  0.79422800  0.34077900  0.26603900  1
  C  294  1  0.81182900  0.31272100  0.28775400  1
  C  295  1  0.77834300  0.29424300  0.30527800  1
  C  296  1  0.79208600  0.26579900  0.32385100  1
  C  297  1  0.83991300  0.25336100  0.32484300  1
  C  298  1  0.87338200  0.26972500  0.30659600  1
  C  299  1  0.85949500  0.29888000  0.28843900  1
  C  300  1  0.83099100  0.36843200  0.25455300  1
  C  301  1  0.75724700  0.36831200  0.27742500  1
  C  302  1  0.75872800  0.38129700  0.30519300  1
  C  303  1  0.72420600  0.40631300  0.31575500  1
  C  304  1  0.68764200  0.42058100  0.29860900  1
  C  305  1  0.68902900  0.41122600  0.27023000  1
  C  306  1  0.72336400  0.38592300  0.25986300  1
  C  307  1  0.82931400  0.38137700  0.22677100  1
  C  308  1  0.86369000  0.40645000  0.21611600  1
  C  309  1  0.90029400  0.42081700  0.23318600  1
  C  310  1  0.89906100  0.41152500  0.26157900  1
  C  311  1  0.86487600  0.38616500  0.27203700  1
  C  328  1  0.65143400  0.44469500  0.30937400  1
  C  329  1  0.93645600  0.44491400  0.22234600  1
  C  330  1  0.85284900  0.22383200  0.34308900  1
  C  331  1  0.73646900  0.22376100  0.18898400  1
  C  336  1  0.40534800  0.58673700  0.27269500  1
  C  337  1  0.37989100  0.59936600  0.29604000  1
  C  338  1  0.34501600  0.62768500  0.29346400  1
  C  339  1  0.33545500  0.64593800  0.26787300  1
  C  340  1  0.36039300  0.63192900  0.24446600  1
  C  341  1  0.39469700  0.60288200  0.24676200  1
  C  342  1  0.29416700  0.67407500  0.26566100  1
  C  343  1  0.25278200  0.64600900  0.26362700  1
  C  344  1  0.24311800  0.62756800  0.23812700  1
  C  345  1  0.20829500  0.59918300  0.23572600  1
  C  346  1  0.18290300  0.58674200  0.25915100  1
  C  347  1  0.19367600  0.60305800  0.28500600  1
  C  348  1  0.22796500  0.63214300  0.28713100  1
  C  349  1  0.29284100  0.70175100  0.28978600  1
  C  350  1  0.29560600  0.70160900  0.24142900  1
  C  351  1  0.25326800  0.71467600  0.22825800  1
  C  352  1  0.25472800  0.73982400  0.20576700  1
  C  353  1  0.29872600  0.75414500  0.19606000  1
  C  354  1  0.34055800  0.74457900  0.21092000  1
  C  355  1  0.33889600  0.71919600  0.23324400  1
  C  356  1  0.33525800  0.71474100  0.30291000  1
  C  357  1  0.33390600  0.73974900  0.32546600  1
  C  358  1  0.28993400  0.75398800  0.33524600  1
  C  359  1  0.24803300  0.74463000  0.32038800  1
  C  360  1  0.24959500  0.71937100  0.29799800  1
  C  377  1  0.30073500  0.77855400  0.17266900  1
  C  378  1  0.28803200  0.77809800  0.35875400  1
  C  379  1  0.14901700  0.55722300  0.25651900  1
  C  380  1  0.43912000  0.55714900  0.27545500  1
  C  385  1  0.37884000  0.79654300  0.11257500  1
  C  386  1  0.34963600  0.80553100  0.13569700  1
  C  387  1  0.34014700  0.84459700  0.14034700  1
  C  389  1  0.38938600  0.86251000  0.10297100  1
  C  392  1  0.39122900  0.75761900  0.10335200  1
  C  400  1  0.73291600  0.12958900  0.13462300  1
  C  401  1  0.71221700  0.13882100  0.10866800  1
  C  402  1  0.70945600  0.17794000  0.10179900  1
  C  404  1  0.74254100  0.19543700  0.14463800  1
  C  407  1  0.74053900  0.09062700  0.14537200  1
  C  415  1  0.52234600  0.46252400  0.30052100  1
  C  416  1  0.57167200  0.47145800  0.30336100  1
  C  417  1  0.58361300  0.51049100  0.30568800  1
  C  419  1  0.50294900  0.52850500  0.30041600  1
  C  422  1  0.50221100  0.42363900  0.29885400  1
  C  430  1  0.21000800  0.79605800  0.41881700  1
  C  431  1  0.23909400  0.80493300  0.39562500  1
  C  432  1  0.24848700  0.84396600  0.39077500  1
  C  434  1  0.19994300  0.86206200  0.42831900  1
  C  437  1  0.19745500  0.75719700  0.42810600  1
  C  445  1  0.85649700  0.12933300  0.39734100  1
  C  446  1  0.87660200  0.13817800  0.42351800  1
  C  447  1  0.87917900  0.17720300  0.43067000  1
  C  449  1  0.84739800  0.19534600  0.38758200  1
  C  452  1  0.84888700  0.09048800  0.38637700  1
  C  460  1  0.06556600  0.46272900  0.23133800  1
  C  461  1  0.01625600  0.47164800  0.22831600  1
  C  462  1  0.00435100  0.51069000  0.22604500  1
  C  464  1  0.08494100  0.52871000  0.23161600  1
  C  467  1  0.08572000  0.42385000  0.23300100  1
  H  26  1  0.18344000  0.07988700  0.51483500  1
  H  27  1  0.62725600  0.04234800  0.99361500  1
  H  28  1  0.09438300  0.08960600  0.58488200  1
  H  29  1  0.03954300  0.04649600  0.56494100  1
  H  30  1  0.96051100  0.03834800  0.53738800  1
  H  31  1  0.90426400  0.07980200  0.51691000  1
  H  32  1  0.49391000  0.08745500  0.94576500  1
  H  33  1  0.54950300  0.04489700  0.96555200  1
  H  34  1  0.51630900  0.97317800  0.96687800  1
  H  35  1  0.55314600  0.92503100  0.93998100  1
  H  36  1  0.67085500  0.92415300  0.99446100  1
  H  37  1  0.12751200  0.96780200  0.52221200  1
  H  38  1  0.07563300  0.97539600  0.56547800  1
  H  39  1  0.96031500  0.96778200  0.50950500  1
  H  40  1  0.92494800  0.92005500  0.53697100  1
  H  41  1  0.04012700  0.92718800  0.59305700  1
  H  75  1  0.22585400  0.41308400  0.83612300  1
  H  76  1  0.28468000  0.37155900  0.81834700  1
  H  77  1  0.16532500  0.42248700  0.75654800  1
  H  78  1  0.22265100  0.37930800  0.73920000  1
  H  79  1  0.30337700  0.37150700  0.71359000  1
  H  80  1  0.36198000  0.41314700  0.69569500  1
  H  81  1  0.42274100  0.42285700  0.77519200  1
  H  82  1  0.36562500  0.37959000  0.79266400  1
  H  83  1  0.38448300  0.30844500  0.77501200  1
  H  84  1  0.40820100  0.26044700  0.80669400  1
  H  85  1  0.26658900  0.25339500  0.83636600  1
  H  86  1  0.24292500  0.30082900  0.80471400  1
  H  87  1  0.20408200  0.30816700  0.75693600  1
  H  88  1  0.34578900  0.30094000  0.72739400  1
  H  89  1  0.32250100  0.25335800  0.69580600  1
  H  90  1  0.18068000  0.26011200  0.72522200  1
  H  124  1  0.72271300  0.74628200  0.69635900  1
  H  125  1  0.72024600  0.70448200  0.73451900  1
  H  126  1  0.87232800  0.75603800  0.70581700  1
  H  127  1  0.86998700  0.71256500  0.74297100  1
  H  128  1  0.86853800  0.70438000  0.79605800  1
  H  129  1  0.86632200  0.74554500  0.83454700  1
  H  130  1  0.71670300  0.75589500  0.82526100  1
  H  131  1  0.71879600  0.71298600  0.78774800  1
  H  132  1  0.73554600  0.64198600  0.80618900  1
  H  133  1  0.67621500  0.59392600  0.80239100  1
  H  134  1  0.70281300  0.58610800  0.71679100  1
  H  135  1  0.76192800  0.63369000  0.72058500  1
  H  136  1  0.85317200  0.64142000  0.72490500  1
  H  137  1  0.82602300  0.63394600  0.81046600  1
  H  138  1  0.88503200  0.58639500  0.81470600  1
  H  139  1  0.91246200  0.59336300  0.72915600  1
  H  154  1  0.82101000  0.85258500  0.65780500  1
  H  156  1  0.87074400  0.73500000  0.61426300  1
  H  157  1  0.92865000  0.75232400  0.60644700  1
  H  158  1  0.88242200  0.75419300  0.58144400  1
  H  160  1  0.86275900  0.75885900  0.65848400  1
  H  162  1  0.89077200  0.91266700  0.58497300  1
  H  169  1  0.19259600  0.18601700  0.58345500  1
  H  171  1  0.23262000  0.06814300  0.62978200  1
  H  172  1  0.21598800  0.08544900  0.66274800  1
  H  173  1  0.27647000  0.08706500  0.65185600  1
  H  175  1  0.17016000  0.09236300  0.60386900  1
  H  177  1  0.26791900  0.24564200  0.65460600  1
  H  184  1  0.11858700  0.51918500  0.80626200  1
  H  186  1  0.02877500  0.40144200  0.80313800  1
  H  187  1  0.98769400  0.41882500  0.77834200  1
  H  188  1  0.97378700  0.42044700  0.81403000  1
  H  190  1  0.09895700  0.42555400  0.78488100  1
  H  192  1  0.97423400  0.57904400  0.80816100  1
  H  199  1  0.76845600  0.85167500  0.87278500  1
  H  201  1  0.71768400  0.73463000  0.91678900  1
  H  202  1  0.66088300  0.75311700  0.92576800  1
  H  203  1  0.70856600  0.75364700  0.94991500  1
  H  205  1  0.72595800  0.75851200  0.87256300  1
  H  207  1  0.70309700  0.91318400  0.94607000  1
  H  214  1  0.39612000  0.18513500  0.94875500  1
  H  216  1  0.35519600  0.06799800  0.90172900  1
  H  217  1  0.37272200  0.08538700  0.86895300  1
  H  218  1  0.31202400  0.08744600  0.87945800  1
  H  220  1  0.41804100  0.09143800  0.92765200  1
  H  222  1  0.32183600  0.24584100  0.87755700  1
  H  229  1  0.46932700  0.51933600  0.72528200  1
  H  231  1  0.55927300  0.40165300  0.72855000  1
  H  232  1  0.59996500  0.41895300  0.75359200  1
  H  233  1  0.61437500  0.42077700  0.71797600  1
  H  235  1  0.48898500  0.42560800  0.74670600  1
  H  237  1  0.61362900  0.57919500  0.72376400  1
  H  263  1  0.68241100  0.08453000  0.01423900  1
  H  264  1  0.12723400  0.03840200  0.49436000  1
  H  265  1  0.59632800  0.08814300  0.08584700  1
  H  266  1  0.54272400  0.04432800  0.06568900  1
  H  267  1  0.46472700  0.03874300  0.03741400  1
  H  268  1  0.40770700  0.07968000  0.01712200  1
  H  269  1  0.99335000  0.08960300  0.44688000  1
  H  270  1  0.04821200  0.04651300  0.46681100  1
  H  271  1  0.01216900  0.97538700  0.46626000  1
  H  272  1  0.04771300  0.92722600  0.43865500  1
  H  273  1  0.16293400  0.92012700  0.49470800  1
  H  274  1  0.63381700  0.97153600  0.02151000  1
  H  275  1  0.57934400  0.97408400  0.06456900  1
  H  276  1  0.46336900  0.96781500  0.00903000  1
  H  277  1  0.42736600  0.92052900  0.03659500  1
  H  278  1  0.54313400  0.92631200  0.09231200  1
  H  312  1  0.72556000  0.41326900  0.33624500  1
  H  313  1  0.78457100  0.37191700  0.31844000  1
  H  314  1  0.66524500  0.42289100  0.25662200  1
  H  315  1  0.72276700  0.37990300  0.23923400  1
  H  316  1  0.80348600  0.37186000  0.21356500  1
  H  317  1  0.86224000  0.41333400  0.19561600  1
  H  318  1  0.92288100  0.42326600  0.27513400  1
  H  319  1  0.86560400  0.38017600  0.29266800  1
  H  320  1  0.88456500  0.30907400  0.27503300  1
  H  321  1  0.90815700  0.26069500  0.30643700  1
  H  322  1  0.76639600  0.25333800  0.33588200  1
  H  323  1  0.74290600  0.30122800  0.30458700  1
  H  324  1  0.70402100  0.30884400  0.25699100  1
  H  325  1  0.84587200  0.30135000  0.22764600  1
  H  326  1  0.82279000  0.25332100  0.19642900  1
  H  327  1  0.68074400  0.26045000  0.22551500  1
  H  361  1  0.22332000  0.74687400  0.19623500  1
  H  362  1  0.22045800  0.70531600  0.23454400  1
  H  363  1  0.37288200  0.75623900  0.20587700  1
  H  364  1  0.37012600  0.71314200  0.24325700  1
  H  365  1  0.36803300  0.70534100  0.29659900  1
  H  366  1  0.36534000  0.74667100  0.33502300  1
  H  367  1  0.21573700  0.75627800  0.32551600  1
  H  368  1  0.21832700  0.71335600  0.28801000  1
  H  369  1  0.23562400  0.64228500  0.30637100  1
  H  370  1  0.17656500  0.59403400  0.30248900  1
  H  371  1  0.20302300  0.58675100  0.21686300  1
  H  372  1  0.26185000  0.63454400  0.22074300  1
  H  373  1  0.35283400  0.64195800  0.22518000  1
  H  374  1  0.32621200  0.63478000  0.31079400  1
  H  375  1  0.38499100  0.58701000  0.31494600  1
  H  376  1  0.41187200  0.59372400  0.22933900  1
  H  391  1  0.32163200  0.85348300  0.15730100  1
  H  393  1  0.37123800  0.73561700  0.11427500  1
  H  394  1  0.42927800  0.75267500  0.10645900  1
  H  395  1  0.38315000  0.75466200  0.08142300  1
  H  397  1  0.36375200  0.75977300  0.15853100  1
  H  399  1  0.39277400  0.91307000  0.08440500  1
  H  406  1  0.69261500  0.18698100  0.08431900  1
  H  408  1  0.73375700  0.06863300  0.12994200  1
  H  409  1  0.71708300  0.08575700  0.16298000  1
  H  410  1  0.77750200  0.08752900  0.15208700  1
  H  412  1  0.67170100  0.09272700  0.10403300  1
  H  414  1  0.76879700  0.24590400  0.15531700  1
  H  421  1  0.61833800  0.51931900  0.30625300  1
  H  423  1  0.52855900  0.40157900  0.30314300  1
  H  424  1  0.48751100  0.41891100  0.27830600  1
  H  425  1  0.47354400  0.42059500  0.31398300  1
  H  427  1  0.59878900  0.42566200  0.28492800  1
  H  429  1  0.47406900  0.57917700  0.30824000  1
  H  436  1  0.26696500  0.85275900  0.37378200  1
  H  438  1  0.21721000  0.73512100  0.41718400  1
  H  439  1  0.15931700  0.75239600  0.42508000  1
  H  440  1  0.20562900  0.75426200  0.45003400  1
  H  442  1  0.22512800  0.75903700  0.37291300  1
  H  444  1  0.19715200  0.91268500  0.44669600  1
  H  451  1  0.89534600  0.18597100  0.44843700  1
  H  453  1  0.85526900  0.06839100  0.40171600  1
  H  454  1  0.87260800  0.08569700  0.36887200  1
  H  455  1  0.81195100  0.08757700  0.37941500  1
  H  457  1  0.91756200  0.09224900  0.42791000  1
  H  459  1  0.82129600  0.24599200  0.37698900  1
  H  466  1  0.96963700  0.51951500  0.22526700  1
  H  468  1  0.05946000  0.40178900  0.22852800  1
  H  469  1  0.10012700  0.41903000  0.25360800  1
  H  470  1  0.11460400  0.42089400  0.21800400  1
  H  472  1  0.98917200  0.42576400  0.24666300  1
  H  474  1  0.11394400  0.57933400  0.22379400  1
  N  151  1  0.85899400  0.87101000  0.62463300  1
  N  153  1  0.89662300  0.82482500  0.59760200  1
  N  159  1  0.83818500  0.77799700  0.65539200  1
  N  161  1  0.90952500  0.88984300  0.58873400  1
  N  166  1  0.22385500  0.20421600  0.61896200  1
  N  168  1  0.24559600  0.15784900  0.65114400  1
  N  174  1  0.18718900  0.11144400  0.59312800  1
  N  176  1  0.25301000  0.22280500  0.66214300  1
  N  181  1  0.04974700  0.53749300  0.80412200  1
  N  183  1  0.99049200  0.49119900  0.79893600  1
  N  189  1  0.10658900  0.44462900  0.79876400  1
  N  191  1  0.97048000  0.55614700  0.79698600  1
  N  196  1  0.73272600  0.87054500  0.90666000  1
  N  198  1  0.69577200  0.82476500  0.93434000  1
  N  204  1  0.75088800  0.77734800  0.87568500  1
  N  206  1  0.68445300  0.89001100  0.94338600  1
  N  211  1  0.36542000  0.20385500  0.91322700  1
  N  213  1  0.34364100  0.15795100  0.88073600  1
  N  219  1  0.40143400  0.11057300  0.93854900  1
  N  221  1  0.33691300  0.22307900  0.87000600  1
  N  226  1  0.53810900  0.53768600  0.72773900  1
  N  228  1  0.59735300  0.49142100  0.73311200  1
  N  234  1  0.48136200  0.44473500  0.73285900  1
  N  236  1  0.61726700  0.55639800  0.73506000  1
  N  388  1  0.36012000  0.87167000  0.12420100  1
  N  390  1  0.39786000  0.82529100  0.09746900  1
  N  396  1  0.33910700  0.77883200  0.15538500  1
  N  398  1  0.41137200  0.89024700  0.08838500  1
  N  403  1  0.72430500  0.20487600  0.11972300  1
  N  405  1  0.74666200  0.15822700  0.15159400  1
  N  411  1  0.68816700  0.11225800  0.09344100  1
  N  413  1  0.75382700  0.22304200  0.16278200  1
  N  418  1  0.54950000  0.53762400  0.30407700  1
  N  420  1  0.49025100  0.49134100  0.29885800  1
  N  426  1  0.60636000  0.44475200  0.29881300  1
  N  428  1  0.47021900  0.55633200  0.29702600  1
  N  433  1  0.22890000  0.87113700  0.40695000  1
  N  435  1  0.19127900  0.82490400  0.43392700  1
  N  441  1  0.24969000  0.77817500  0.37604500  1
  N  443  1  0.17832500  0.88991800  0.44287400  1
  N  448  1  0.86483600  0.20439500  0.41278100  1
  N  450  1  0.84331600  0.15820100  0.38041200  1
  N  456  1  0.90058700  0.11139800  0.43862000  1
  N  458  1  0.83647900  0.22322400  0.36951000  1
  N  463  1  0.03843700  0.53782800  0.22777300  1
  N  465  1  0.09763200  0.49154300  0.23317000  1
  N  471  1  0.98160200  0.44489700  0.23280900  1
  N  473  1  0.11762000  0.55654600  0.23509400  1
  O  46  1  0.38004800  0.13113700  0.98289100  1
  O  47  1  0.98669400  0.86365600  0.59458200  1
  O  48  1  0.20968800  0.13224900  0.54900000  1
  O  49  1  0.60745400  0.86263300  0.94031500  1
  O  95  1  0.42633300  0.46555400  0.69960200  1
  O  96  1  0.20518700  0.19680500  0.69767100  1
  O  97  1  0.16149900  0.46538100  0.83210400  1
  O  98  1  0.38372100  0.19688500  0.83414400  1
  O  144  1  0.82872800  0.79744800  0.86514300  1
  O  145  1  0.94126300  0.52994800  0.75531900  1
  O  146  1  0.76079200  0.79888000  0.66630000  1
  O  147  1  0.64700600  0.53025500  0.77661100  1
  O  283  1  0.87802700  0.13220400  0.48274200  1
  O  284  1  0.48824700  0.86389600  0.09464300  1
  O  285  1  0.70982800  0.13429800  0.04953300  1
  O  286  1  0.10117300  0.86372800  0.43707300  1
  O  332  1  0.92663200  0.46575900  0.19952300  1
  O  333  1  0.70519900  0.19706100  0.19799900  1
  O  334  1  0.66118100  0.46557100  0.33219300  1
  O  335  1  0.88378400  0.19704700  0.33383300  1
  O  381  1  0.32712900  0.79900500  0.36525000  1
  O  382  1  0.44074100  0.53034300  0.25537400  1
  O  383  1  0.26159900  0.79941200  0.16618200  1
  O  384  1  0.14737700  0.53048500  0.27664800  1
