# generated using pymatgen
data_Cd4H56C86O17
_symmetry_space_group_name_H-M   'P 1'
_cell_length_a   12.04741000
_cell_length_b   15.56433000
_cell_length_c   16.79841000
_cell_angle_alpha   63.74465000
_cell_angle_beta   82.00238000
_cell_angle_gamma   81.99989000
_symmetry_Int_Tables_number   1
_chemical_formula_structural   Cd4H56C86O17
_chemical_formula_sum   'Cd4 H56 C86 O17'
_cell_volume   2786.71826418
_cell_formula_units_Z   1
loop_
 _symmetry_equiv_pos_site_id
 _symmetry_equiv_pos_as_xyz
  1  'x, y, z'
loop_
 _atom_site_type_symbol
 _atom_site_label
 _atom_site_symmetry_multiplicity
 _atom_site_fract_x
 _atom_site_fract_y
 _atom_site_fract_z
 _atom_site_occupancy
  C  C0  1  0.99704000  0.60370000  0.66950000  1
  C  C1  1  0.01194000  0.66731000  0.57852000  1
  C  C2  1  0.00128000  0.76750000  0.55180000  1
  C  C3  1  0.98448000  0.80244000  0.61703000  1
  C  C4  1  0.97148000  0.73826000  0.70743000  1
  C  C5  1  0.96066000  0.64159000  0.73110000  1
  C  C6  1  0.51506000  0.38701000  0.32042000  1
  C  C7  1  0.55128000  0.34922000  0.25873000  1
  C  C8  1  0.54056000  0.25254000  0.28236000  1
  C  C9  1  0.52778000  0.18829000  0.37274500  1
  C  C10  1  0.51108000  0.22314000  0.43802000  1
  C  C11  1  0.50030000  0.32333000  0.41138000  1
  C  C12  1  0.10836000  0.02830000  0.19492000  1
  C  C13  1  0.56510000  0.90263000  0.99897000  1
  C  C14  1  0.41376000  0.18659000  0.00655000  1
  C  C15  1  0.25630000  0.74292000  0.18911000  1
  C  C16  1  0.94730000  0.08832000  0.99087000  1
  C  C17  1  0.40358000  0.96239000  0.79480000  1
  C  C18  1  0.25610000  0.24795000  0.80085500  1
  C  C19  1  0.09832000  0.80436000  0.98317000  1
  C  C20  1  0.67196000  0.94308000  0.99110000  1
  C  C21  1  0.74310000  0.90145000  0.06126000  1
  C  C22  1  0.82418000  0.95530000  0.06594000  1
  C  C23  1  0.84042000  0.04789000  0.99875000  1
  C  C24  1  0.76930000  0.08952000  0.92858500  1
  C  C25  1  0.68822000  0.03567000  0.92390000  1
  C  C26  1  0.77522000  0.19067000  0.86176000  1
  C  C27  1  0.79796000  0.21238000  0.77086000  1
  C  C28  1  0.79186000  0.30817000  0.70688000  1
  C  C29  1  0.76434000  0.38258000  0.73329000  1
  C  C30  1  0.74138000  0.36135000  0.82364000  1
  C  C31  1  0.74582000  0.26569000  0.88778000  1
  C  C32  1  0.73714000  0.80031000  0.12810000  1
  C  C33  1  0.76654000  0.72528000  0.10210000  1
  C  C34  1  0.77102000  0.62963000  0.16625000  1
  C  C35  1  0.74806000  0.60841000  0.25660000  1
  C  C36  1  0.72054000  0.68284000  0.28300000  1
  C  C37  1  0.71442000  0.77861000  0.21900000  1
  C  C38  1  0.30790000  0.56907000  0.31579000  1
  C  C39  1  0.43428000  0.55631000  0.33067000  1
  C  C40  1  0.32922000  0.49843000  0.27242000  1
  C  C41  1  0.45492000  0.48628000  0.28704000  1
  C  C42  1  0.33138000  0.65221000  0.22330500  1
  C  C43  1  0.35210000  0.58245000  0.17983000  1
  C  C44  1  0.47842000  0.56998000  0.19442000  1
  C  C45  1  0.45658000  0.64123000  0.23763000  1
  C  C46  1  0.47494000  0.17634000  0.61594000  1
  C  C47  1  0.54516000  0.08031000  0.66696000  1
  C  C48  1  0.36592000  0.12392000  0.65023000  1
  C  C49  1  0.43650000  0.02867000  0.70016000  1
  C  C50  1  0.48614000  0.15427000  0.53426000  1
  C  C51  1  0.37750000  0.10233000  0.56790000  1
  C  C52  1  0.44768000  0.00633000  0.61885000  1
  C  C53  1  0.55690000  0.05891000  0.58417000  1
  C  C54  1  0.57682000  0.25021000  0.12242000  1
  C  C55  1  0.46810000  0.29786000  0.07531000  1
  C  C56  1  0.55276000  0.15209000  0.12889000  1
  C  C57  1  0.44422000  0.20026000  0.08261000  1
  C  C58  1  0.50894000  0.22667000  0.21304000  1
  C  C59  1  0.48512000  0.12864000  0.22052000  1
  C  C60  1  0.37615000  0.17635000  0.17305000  1
  C  C61  1  0.40024000  0.27442500  0.16652000  1
  C  C62  1  0.13578000  0.81444000  0.81679000  1
  C  C63  1  0.02688000  0.86220000  0.76925000  1
  C  C64  1  0.11162000  0.71636000  0.82337000  1
  C  C65  1  0.00300000  0.76417000  0.77676000  1
  C  C66  1  0.06765000  0.79063000  0.90720000  1
  C  C67  1  0.04370000  0.69303000  0.91454000  1
  C  C68  1  0.93504000  0.74073000  0.86735000  1
  C  C69  1  0.95918000  0.83885000  0.86084000  1
  C  C70  1  0.20414000  0.42163000  0.67415000  1
  C  C71  1  0.18296000  0.49240000  0.71737000  1
  C  C72  1  0.07770000  0.43428000  0.65950000  1
  C  C73  1  0.05722000  0.50444000  0.70298000  1
  C  C74  1  0.18088000  0.33859000  0.76674000  1
  C  C75  1  0.05562000  0.34945000  0.75265000  1
  C  C76  1  0.03394000  0.42084000  0.79571000  1
  C  C77  1  0.16032000  0.40848000  0.81007000  1
  C  C78  1  0.03770000  0.81410000  0.37391000  1
  C  C79  1  0.14652000  0.86678000  0.33957000  1
  C  C80  1  0.96722000  0.90996000  0.32281000  1
  C  C81  1  0.07570000  0.96185000  0.28957000  1
  C  C82  1  0.02622000  0.83630000  0.45553000  1
  C  C83  1  0.95524000  0.93149000  0.40554000  1
  C  C84  1  0.06426000  0.98432000  0.37083000  1
  C  C85  1  0.13468000  0.88849000  0.42185000  1
  Cd  Cd86  1  0.08794000  0.89219000  0.10240000  1
  Cd  Cd87  1  0.42454000  0.09859000  0.88743000  1
  Cd  Cd88  1  0.14907000  0.15450000  0.00941000  1
  Cd  Cd89  1  0.36332000  0.83647000  0.98049000  1
  H  H90  1  0.04026000  0.63896500  0.53007000  1
  H  H91  1  0.98890000  0.87823000  0.59768000  1
  H  H92  1  0.94586000  0.59306000  0.80095000  1
  H  H93  1  0.56592000  0.39780000  0.18888000  1
  H  H94  1  0.52344000  0.11250000  0.39205000  1
  H  H95  1  0.47202000  0.35159000  0.45990000  1
  H  H96  1  0.44418000  0.95590000  0.06059000  1
  H  H97  1  0.06822000  0.03505000  0.92923000  1
  H  H98  1  0.87836000  0.92323000  0.12008000  1
  H  H99  1  0.63406000  0.06773000  0.86974000  1
  H  H100  1  0.79258000  0.57194000  0.14594000  1
  H  H101  1  0.75089000  0.53430000  0.30611000  1
  H  H102  1  0.70280000  0.66628000  0.35297000  1
  H  H103  1  0.69310000  0.83590000  0.23996000  1
  H  H104  1  0.78723000  0.74117000  0.03244000  1
  H  H105  1  0.81928000  0.15510000  0.74988000  1
  H  H106  1  0.80964000  0.32474000  0.63690000  1
  H  H107  1  0.72512000  0.24978000  0.95745000  1
  H  H108  1  0.71980000  0.41902000  0.84397000  1
  H  H109  1  0.76154000  0.45669000  0.68379000  1
  H  H110  1  0.23680000  0.56933000  0.36549000  1
  H  H111  1  0.46878000  0.54520000  0.39278000  1
  H  H112  1  0.27682000  0.43894000  0.28714000  1
  H  H113  1  0.31772000  0.59393000  0.11753000  1
  H  H114  1  0.54932000  0.57112000  0.14420000  1
  H  H115  1  0.50610000  0.70262000  0.22154000  1
  H  H116  1  0.48634000  0.24602000  0.61566000  1
  H  H117  1  0.61414000  0.07048000  0.70853000  1
  H  H118  1  0.28634000  0.15019000  0.67762000  1
  H  H119  1  0.30822000  0.11206000  0.52662000  1
  H  H120  1  0.43630000  0.93590000  0.62065000  1
  H  H121  1  0.63610000  0.03266500  0.55631000  1
  H  H122  1  0.65996000  0.28028000  0.10221000  1
  H  H123  1  0.46042000  0.36741000  0.01510000  1
  H  H124  1  0.61524000  0.10154000  0.11229000  1
  H  H125  1  0.49270000  0.05855000  0.28010000  1
  H  H126  1  0.29322000  0.14614000  0.19344000  1
  H  H127  1  0.33756000  0.32515000  0.18267000  1
  H  H128  1  0.21876000  0.84458000  0.79643000  1
  H  H129  1  0.01939000  0.93227000  0.70964000  1
  H  H130  1  0.17428000  0.66558000  0.80728000  1
  H  H131  1  0.05130000  0.62349000  0.97478000  1
  H  H132  1  0.85186000  0.71072000  0.88753000  1
  H  H133  1  0.89672000  0.88946000  0.87739000  1
  H  H134  1  0.27510000  0.42133000  0.62438000  1
  H  H135  1  0.23536000  0.55195000  0.70246000  1
  H  H136  1  0.04300000  0.44525000  0.59750000  1
  H  H137  1  0.00610000  0.28800000  0.76894000  1
  H  H138  1  0.96316000  0.41974000  0.84601000  1
  H  H139  1  0.19488000  0.39714000  0.87226000  1
  H  H140  1  0.02656000  0.74433000  0.37426000  1
  H  H141  1  0.22624000  0.84065000  0.31222000  1
  H  H142  1  0.89830000  0.91956000  0.28126000  1
  H  H143  1  0.87590000  0.95762000  0.43335000  1
  H  H144  1  0.07536000  0.05483000  0.36896000  1
  H  H145  1  0.20388000  0.87899000  0.46312000  1
  O  O146  1  0.15810000  0.99638000  0.13910000  1
  O  O147  1  0.46950000  0.95061000  0.00273000  1
  O  O148  1  0.34210000  0.12551000  0.01990000  1
  O  O149  1  0.28646000  0.81998000  0.12019000  1
  O  O150  1  0.08478000  0.12094000  0.16193000  1
  O  O151  1  0.56036000  0.82194000  0.99448000  1
  O  O152  1  0.48799000  0.19912000  0.93935000  1
  O  O153  1  0.15032000  0.74450000  0.21672000  1
  O  O154  1  0.04290000  0.04032000  0.98710500  1
  O  O155  1  0.35414000  0.99458000  0.85050000  1
  O  O156  1  0.22618000  0.17084000  0.86980000  1
  O  O157  1  0.17022000  0.86528000  0.96974000  1
  O  O158  1  0.95208000  0.16903000  0.99532000  1
  O  O159  1  0.42740000  0.86977000  0.82803000  1
  O  O160  1  0.36202000  0.24643000  0.77307000  1
  O  O161  1  0.02423000  0.79186000  0.05045000  1
  O  O162  1  0.25616000  0.99546000  0.99490000  1
