# generated using pymatgen
data_Ba2P8H58C55S7O48
_symmetry_space_group_name_H-M   'P 1'
_cell_length_a   8.68469000
_cell_length_b   13.20110000
_cell_length_c   19.09046000
_cell_angle_alpha   101.57911000
_cell_angle_beta   90.52597000
_cell_angle_gamma   100.19962000
_symmetry_Int_Tables_number   1
_chemical_formula_structural   Ba2P8H58C55S7O48
_chemical_formula_sum   'Ba2 P8 H58 C55 S7 O48'
_cell_volume   2107.97443020
_cell_formula_units_Z   1
loop_
 _symmetry_equiv_pos_site_id
 _symmetry_equiv_pos_as_xyz
  1  'x, y, z'
loop_
 _atom_site_type_symbol
 _atom_site_label
 _atom_site_symmetry_multiplicity
 _atom_site_fract_x
 _atom_site_fract_y
 _atom_site_fract_z
 _atom_site_occupancy
  Ba  Ba0  1  0.85318000  0.54779000  0.46530000  1
  Ba  Ba1  1  0.33665000  0.45230000  0.53471000  1
  P  P2  1  0.04293000  0.39223000  0.33741000  1
  P  P3  1  0.67223000  0.75490000  0.55573000  1
  P  P4  1  0.14312000  0.82008000  0.41209000  1
  P  P5  1  0.14679000  0.60786000  0.66260000  1
  P  P6  1  0.04319000  0.18331000  0.60330000  1
  P  P7  1  0.60273000  0.62818000  0.28287000  1
  P  P8  1  0.52243000  0.22852000  0.44675000  1
  P  P9  1  0.56150000  0.39671000  0.72447000  1
  H  H10  1  0.69099000  0.85991000  0.36788000  1
  H  H11  1  0.20573000  0.94372000  0.68350000  1
  H  H12  1  0.13775000  0.93157000  0.59198000  1
  H  H13  1  0.00924000  0.88028000  0.65546000  1
  H  H14  1  0.17151000  0.22749000  0.33845000  1
  H  H15  1  0.03326000  0.13651000  0.21285000  1
  H  H16  1  0.91713000  0.04705000  0.25849000  1
  H  H17  1  0.12092000  0.05215000  0.26001000  1
  H  H18  1  0.60243000  0.73293000  0.72725000  1
  H  H19  1  0.47127000  0.72769000  0.65164000  1
  H  H20  1  0.66653000  0.94321000  0.26316000  1
  H  H21  1  0.61773000  0.92031000  0.76434000  1
  H  H22  1  0.42052000  0.84964000  0.76192000  1
  H  H23  1  0.48189000  0.91536000  0.68932000  1
  H  H24  1  0.49344000  0.78627000  0.34380000  1
  H  H25  1  0.51063000  0.96332000  0.32472000  1
  H  H26  1  0.34308000  0.13148000  0.30963000  1
  H  H27  1  0.49168000  0.03713000  0.22655000  1
  H  H28  1  0.47460000  0.86482000  0.24247000  1
  H  H29  1  0.89151000  0.72171000  0.18311000  1
  H  H30  1  0.22085000  0.30800000  0.72493000  1
  H  H31  1  0.02760000  0.31690000  0.73312000  1
  H  H32  1  0.24390000  0.28678000  0.84086000  1
  H  H33  1  0.05878000  0.31941000  0.85048000  1
  H  H34  1  0.42108000  0.15785000  0.83393000  1
  H  H35  1  0.27466000  0.10235000  0.76122000  1
  H  H36  1  0.95114000  0.71383000  0.30142000  1
  H  H37  1  0.43838000  0.04430000  0.77132000  1
  H  H38  1  0.17246000  0.62435000  0.82443000  1
  H  H39  1  0.77920000  0.37884000  0.84106000  1
  H  H40  1  0.38521000  0.65619000  0.16850000  1
  H  H41  1  0.03518000  0.37828000  0.17507000  1
  H  H42  1  0.33441000  0.54144000  0.35701000  1
  H  H43  1  0.70841000  0.47700000  0.92619000  1
  H  H44  1  0.63580000  0.40564000  0.12681000  1
  H  H45  1  0.13657000  0.71124000  0.26003000  1
  H  H46  1  0.89665000  0.49956000  0.16346000  1
  H  H47  1  0.47634000  0.56128000  0.08600000  1
  H  H48  1  0.63804000  0.63812000  0.00367000  1
  H  H49  1  0.54894000  0.59442000  0.87709000  1
  H  H50  1  0.28374000  0.49596000  0.84364000  1
  H  H51  1  0.34252000  0.02747000  0.43181000  1
  H  H52  1  0.86269000  0.96584000  0.57543000  1
  H  H53  1  0.79091000  0.26795000  0.54639000  1
  H  H54  1  0.38226000  0.72844000  0.47435000  1
  H  H55  1  0.90917000  0.85527000  0.23246000  1
  H  H56  1  0.30619000  0.80371000  0.59857000  1
  H  H57  1  0.11037000  0.73859000  0.57321000  1
  H  H58  1  0.76568000  0.08818000  0.34926000  1
  H  H59  1  0.62142000  0.43083000  0.30139000  1
  H  H60  1  0.54754000  0.06545000  0.05049000  1
  H  H61  1  0.74037000  0.23169000  0.23777000  1
  H  H62  1  0.91879000  0.98365000  0.80907000  1
  H  H63  1  0.68972000  0.13871000  0.83901000  1
  H  H64  1  0.38520000  0.21083000  0.62792000  1
  H  H65  1  0.88773000  0.71474000  0.68990000  1
  H  H66  1  0.42025000  0.33669000  0.03134000  1
  H  H67  1  0.93525000  0.83943000  0.07357000  1
  C  C68  1  0.56134000  0.90469000  0.28658000  1
  C  C69  1  0.60387000  0.82311000  0.32304000  1
  C  C70  1  0.45350000  0.17851000  0.29825000  1
  C  C71  1  0.51058000  0.12009000  0.22494000  1
  C  C72  1  0.10975000  0.26457000  0.73966000  1
  C  C73  1  0.12122000  0.25974000  0.82088000  1
  C  C74  1  0.48893000  0.19073000  0.73119000  1
  C  C75  1  0.40031000  0.11963000  0.77663000  1
  C  C76  1  0.06633000  0.56897000  0.80541000  1
  C  C77  1  0.01643000  0.55930000  0.73315000  1
  C  C78  1  0.83866000  0.44106000  0.81801000  1
  C  C79  1  0.04824000  0.76075000  0.27783000  1
  C  C80  1  0.76741000  0.45885000  0.75654000  1
  C  C81  1  0.32999000  0.59132000  0.19144000  1
  C  C82  1  0.39205000  0.58358000  0.25750000  1
  C  C83  1  0.12525000  0.44440000  0.19865000  1
  C  C84  1  0.15897000  0.46282000  0.27357000  1
  C  C85  1  0.97943000  0.50652000  0.85079000  1
  C  C86  1  0.85715000  0.52103000  0.71607000  1
  C  C87  1  0.20143000  0.51583000  0.15633000  1
  C  C88  1  0.29590000  0.53243000  0.30174000  1
  C  C89  1  0.76526000  0.45734000  0.97004000  1
  C  C90  1  0.97446000  0.79080000  0.21338000  1
  C  C91  1  0.66559000  0.41159000  0.01642000  1
  C  C92  1  0.71630000  0.42653000  0.08701000  1
  C  C93  1  0.86952000  0.47471000  0.10736000  1
  C  C94  1  0.98384000  0.48928000  0.05645000  1
  C  C95  1  0.92909000  0.48430000  0.98412000  1
  C  C96  1  0.14654000  0.51348000  0.07797000  1
  C  C97  1  0.25313000  0.53689000  0.02367000  1
  C  C98  1  0.19837000  0.52618000  0.95050000  1
  C  C99  1  0.03550000  0.50582000  0.92920000  1
  C  C100  1  0.41684000  0.56976000  0.03879000  1
  C  C101  1  0.18737000  0.78821000  0.61804000  1
  C  C102  1  0.51606000  0.60542000  0.98879000  1
  C  C103  1  0.46596000  0.58117000  0.91766000  1
  C  C104  1  0.31258000  0.53125000  0.89884000  1
  C  C105  1  0.74808000  0.18431000  0.53923000  1
  C  C106  1  0.43231000  0.81077000  0.47881000  1
  C  C107  1  0.40698000  0.98141000  0.45653000  1
  C  C108  1  0.34332000  0.87532000  0.45300000  1
  C  C109  1  0.58139000  0.85081000  0.51257000  1
  C  C110  1  0.64223000  0.96281000  0.52009000  1
  C  C111  1  0.55281000  0.02851000  0.49089000  1
  C  C112  1  0.13142000  0.89243000  0.63832000  1
  C  C113  1  0.60828000  0.14055000  0.49918000  1
  C  C114  1  0.84249000  0.12128000  0.56371000  1
  C  C115  1  0.78908000  0.01170000  0.55461000  1
  C  C116  1  0.05114000  0.18899000  0.32670000  1
  C  C117  1  0.03044000  0.10105000  0.26062000  1
  C  C118  1  0.56974000  0.77552000  0.68654000  1
  C  C119  1  0.51936000  0.87178000  0.72828000  1
  C  C120  1  0.68070000  0.15360000  0.21421000  1
  C  C121  1  0.42351000  0.15615000  0.65570000  1
  C  C122  1  0.50516000  0.35625000  0.99268000  1
  S  S123  1  0.99385000  0.13718000  0.40119000  1
  S  S124  1  0.43074000  0.30645000  0.29025000  1
  S  S125  1  0.41287000  0.12074000  0.14098000  1
  S  S126  1  0.04750000  0.14000000  0.85228000  1
  S  S127  1  0.68606000  0.17480000  0.73424000  1
  S  S128  1  0.77093000  0.55798000  0.64574000  1
  S  S129  1  0.11202000  0.83348000  0.15221000  1
  O  O130  1  0.87511000  0.42318000  0.32629000  1
  O  O131  1  0.70197000  0.80447000  0.64863000  1
  O  O132  1  0.11807000  0.85159000  0.32775000  1
  O  O133  1  0.31460000  0.57686000  0.67375000  1
  O  O134  1  0.06630000  0.56705000  0.58506000  1
  O  O135  1  0.52870000  0.37502000  0.63033000  1
  O  O136  1  0.19349000  0.74594000  0.67994000  1
  O  O137  1  0.61176000  0.36572000  0.46387000  1
  O  O138  1  0.10746000  0.31562000  0.59457000  1
  O  O139  1  0.15621000  0.12045000  0.55890000  1
  O  O140  1  0.07263000  0.16593000  0.69205000  1
  O  O141  1  0.12341000  0.43304000  0.41495000  1
  O  O142  1  0.57795000  0.63437000  0.53614000  1
  O  O143  1  0.34190000  0.23131000  0.46574000  1
  O  O144  1  0.56251000  0.18241000  0.35472000  1
  O  O145  1  0.46345000  0.48195000  0.75205000  1
  O  O146  1  0.47009000  0.29385000  0.76390000  1
  O  O147  1  0.66101000  0.62507000  0.36968000  1
  O  O148  1  0.70512000  0.56382000  0.23342000  1
  O  O149  1  0.95386000  0.25900000  0.31887000  1
  O  O150  1  0.67018000  0.75450000  0.27185000  1
  O  O151  1  0.84780000  0.76873000  0.53431000  1
  O  O152  1  0.08225000  0.68447000  0.40544000  1
  O  O153  1  0.02161000  0.87359000  0.45720000  1
  O  O154  1  0.10112000  0.06624000  0.41501000  1
  O  O155  1  0.00801000  0.23137000  0.46070000  1
  O  O156  1  0.81127000  0.06841000  0.39071000  1
  O  O157  1  0.29865000  0.29524000  0.23681000  1
  O  O158  1  0.39422000  0.36738000  0.36133000  1
  O  O159  1  0.59071000  0.37099000  0.26106000  1
  O  O160  1  0.23863000  0.09645000  0.14270000  1
  O  O161  1  0.46048000  0.22557000  0.12067000  1
  O  O162  1  0.46737000  0.02751000  0.07720000  1
  O  O163  1  0.74820000  0.09662000  0.17164000  1
  O  O164  1  0.17817000  0.10038000  0.88398000  1
  O  O165  1  0.93905000  0.16448000  0.91170000  1
  O  O166  1  0.95338000  0.04445000  0.78628000  1
  O  O167  1  0.70435000  0.06561000  0.69966000  1
  O  O168  1  0.77812000  0.24987000  0.69488000  1
  O  O169  1  0.74533000  0.19924000  0.82030000  1
  O  O170  1  0.41208000  0.06467000  0.62494000  1
  O  O171  1  0.77959000  0.47323000  0.58183000  1
  O  O172  1  0.60511000  0.56979000  0.65519000  1
  O  O173  1  0.87206000  0.67457000  0.63973000  1
  O  O174  1  0.46597000  0.33192000  0.92923000  1
  O  O175  1  0.24659000  0.90965000  0.19280000  1
  O  O176  1  0.17173000  0.74223000  0.10841000  1
  O  O177  1  0.02455000  0.89326000  0.09737000  1
