# generated using pymatgen
data_H5C10(NO)2
_symmetry_space_group_name_H-M   'P 1'
_cell_length_a   10.00373333
_cell_length_b   60.33225000
_cell_length_c   60.33220000
_cell_angle_alpha   119.99991776
_cell_angle_beta   90.00000000
_cell_angle_gamma   90.00000000
_symmetry_Int_Tables_number   1
_chemical_formula_structural   H5C10(NO)2
_chemical_formula_sum   'H90 C180 N36 O36'
_cell_volume   31534.92351518
_cell_formula_units_Z   18
loop_
 _symmetry_equiv_pos_site_id
 _symmetry_equiv_pos_as_xyz
  1  'x, y, z'
loop_
 _atom_site_type_symbol
 _atom_site_label
 _atom_site_symmetry_multiplicity
 _atom_site_fract_x
 _atom_site_fract_y
 _atom_site_fract_z
 _atom_site_occupancy
  C  1  1  0.99883300  0.82480400  0.43204900  1
  C  3  1  0.00232200  0.86433900  0.43193900  1
  C  5  1  0.99919200  0.82480200  0.39230100  1
  C  7  1  0.00562000  0.89164000  0.44559200  1
  C  8  1  0.00629200  0.90569900  0.47273700  1
  C  9  1  0.01057800  0.93260400  0.48623700  1
  C  10  1  0.01528800  0.94625500  0.47292100  1
  C  11  1  0.01309900  0.93260900  0.44593900  1
  C  12  1  0.00878400  0.90570400  0.43251700  1
  C  13  1  0.99726400  0.81023900  0.44478400  1
  C  14  1  0.98963500  0.82186400  0.47181600  1
  C  15  1  0.98615700  0.80699900  0.48392100  1
  C  16  1  0.99050600  0.78004600  0.46920800  1
  C  17  1  0.99958300  0.76831600  0.44232900  1
  C  18  1  0.00258300  0.78313600  0.43038700  1
  C  19  1  0.99785400  0.81023100  0.36500100  1
  C  20  1  0.00353200  0.78313100  0.35230300  1
  C  21  1  0.00046300  0.76830300  0.32554300  1
  C  22  1  0.99101500  0.78002000  0.31038700  1
  C  23  1  0.98635800  0.80697100  0.32262000  1
  C  24  1  0.98991700  0.82184500  0.34958800  1
  C  37  1  0.99736200  0.60782300  0.17570100  1
  C  39  1  0.00032100  0.56819600  0.13615000  1
  C  41  1  0.99785200  0.56806400  0.17567300  1
  C  43  1  0.00369200  0.55456900  0.10885200  1
  C  44  1  0.00436300  0.56767100  0.09481000  1
  C  45  1  0.00962000  0.55428800  0.06791200  1
  C  46  1  0.01523900  0.52732600  0.05425600  1
  C  47  1  0.01269800  0.51397300  0.06788100  1
  C  48  1  0.00744300  0.52743400  0.09478000  1
  C  49  1  0.99608400  0.63512300  0.19026000  1
  C  50  1  0.98840500  0.65051800  0.17862300  1
  C  51  1  0.98525600  0.67748800  0.19347400  1
  C  52  1  0.98995700  0.68974000  0.22042500  1
  C  53  1  0.99910100  0.67460400  0.23216800  1
  C  54  1  0.00179400  0.64783900  0.21736100  1
  C  55  1  0.99694300  0.55530200  0.19021200  1
  C  56  1  0.00336200  0.56967000  0.21730600  1
  C  57  1  0.00063400  0.55770600  0.23210600  1
  C  58  1  0.99087300  0.53083400  0.22036300  1
  C  59  1  0.98547900  0.51614900  0.19341600  1
  C  60  1  0.98868500  0.52827700  0.17857100  1
  C  73  1  0.99740300  0.56830900  0.39252900  1
  C  75  1  0.00022200  0.56843100  0.43217700  1
  C  77  1  0.99749100  0.60806400  0.43226500  1
  C  79  1  0.00362200  0.55477100  0.44581500  1
  C  80  1  0.00801200  0.52763700  0.43271600  1
  C  81  1  0.01335800  0.51414000  0.44611500  1
  C  82  1  0.01525900  0.52745600  0.47309600  1
  C  83  1  0.00893800  0.55441200  0.48643700  1
  C  84  1  0.00368200  0.56783300  0.47295800  1
  C  85  1  0.99623800  0.55554400  0.36522800  1
  C  86  1  0.98863700  0.52850900  0.34985300  1
  C  87  1  0.98546900  0.51636800  0.32288100  1
  C  88  1  0.99012500  0.53104900  0.31061000  1
  C  89  1  0.99922100  0.55793100  0.32572900  1
  C  90  1  0.00190500  0.56990800  0.35249300  1
  C  91  1  0.99646300  0.63536500  0.44499200  1
  C  92  1  0.00260400  0.64805700  0.43058900  1
  C  93  1  0.99999400  0.67481800  0.44251700  1
  C  94  1  0.99048500  0.68998300  0.46938900  1
  C  95  1  0.98539700  0.67775600  0.48411000  1
  C  96  1  0.98852400  0.65078500  0.47201800  1
  C  109  1  0.99657400  0.17593500  0.56823700  1
  C  111  1  0.99773400  0.13640000  0.56834700  1
  C  113  1  0.99714400  0.17593900  0.60798300  1
  C  115  1  0.99958100  0.10909800  0.55467700  1
  C  116  1  0.99736400  0.09505200  0.52753500  1
  C  117  1  0.00095100  0.06814300  0.51400400  1
  C  118  1  0.00678200  0.05449200  0.52730600  1
  C  119  1  0.00892000  0.06811700  0.55428300  1
  C  120  1  0.00503400  0.09502600  0.56773100  1
  C  121  1  0.99574500  0.19047400  0.55547600  1
  C  122  1  0.98772600  0.17882400  0.52844600  1
  C  123  1  0.98487800  0.19365800  0.51630800  1
  C  124  1  0.99025500  0.22060500  0.53098600  1
  C  125  1  0.99975100  0.23235800  0.55786300  1
  C  126  1  0.00216100  0.21756600  0.56983700  1
  C  127  1  0.99664500  0.19050300  0.63528400  1
  C  128  1  0.00353300  0.21759100  0.64798600  1
  C  129  1  0.00096400  0.23241600  0.67474800  1
  C  130  1  0.99094700  0.22070300  0.68990200  1
  C  131  1  0.98520700  0.19375800  0.67766300  1
  C  132  1  0.98818500  0.17889000  0.65069400  1
  C  145  1  0.99714500  0.39287200  0.82456600  1
  C  147  1  0.99997100  0.43251900  0.86409400  1
  C  149  1  0.99761200  0.43260600  0.82454800  1
  C  151  1  0.00325300  0.44615500  0.89139200  1
  C  152  1  0.00370300  0.43306200  0.90544600  1
  C  153  1  0.00903100  0.44645200  0.93234200  1
  C  154  1  0.01497600  0.47341100  0.94598800  1
  C  155  1  0.01265000  0.48675700  0.93235400  1
  C  156  1  0.00728100  0.47328900  0.90545600  1
  C  157  1  0.99602300  0.36557000  0.81003700  1
  C  158  1  0.98807400  0.35020600  0.82170400  1
  C  159  1  0.98501700  0.32323300  0.80688200  1
  C  160  1  0.99020600  0.31094900  0.77993400  1
  C  161  1  0.99957300  0.32605700  0.76816300  1
  C  162  1  0.00214500  0.35282400  0.78293900  1
  C  163  1  0.99676300  0.44534200  0.80998300  1
  C  164  1  0.00321200  0.43095200  0.78289000  1
  C  165  1  0.00054200  0.44289100  0.76806700  1
  C  166  1  0.99074700  0.46975900  0.77978100  1
  C  167  1  0.98537600  0.48446700  0.80673000  1
  C  168  1  0.98853600  0.47236500  0.82159700  1
  C  181  1  0.99700200  0.43226700  0.60760800  1
  C  183  1  0.99992233  0.43215900  0.56796500  1
  C  185  1  0.99756100  0.39252000  0.56786400  1
  C  187  1  0.00328300  0.44581700  0.55432500  1
  C  188  1  0.00258100  0.47296000  0.56740800  1
  C  189  1  0.00795200  0.48646800  0.55401900  1
  C  190  1  0.01515000  0.47315900  0.52707100  1
  C  191  1  0.01395900  0.44617700  0.51373000  1
  C  192  1  0.00851000  0.43274600  0.52719700  1
  C  193  1  0.99579200  0.44502200  0.63491000  1
  C  194  1  0.98807700  0.47205300  0.65029400  1
  C  195  1  0.98499700  0.48418500  0.67726500  1
  C  196  1  0.98981400  0.46949800  0.68953000  1
  C  197  1  0.99898100  0.44261900  0.67440200  1
  C  198  1  0.00160500  0.43065000  0.64763900  1
  C  199  1  0.99676200  0.36521900  0.55512400  1
  C  200  1  0.00334100  0.35251500  0.56951100  1
  C  201  1  0.00072400  0.32575400  0.55757200  1
  C  202  1  0.99093400  0.31060100  0.53070000  1
  C  203  1  0.98538700  0.32284200  0.51599700  1
  C  204  1  0.98845500  0.34981300  0.52810100  1
  C  217  1  0.01415900  0.02746500  0.51372800  1
  C  218  1  0.89393100  0.01340800  0.50640100  1
  C  219  1  0.89648000  0.98658700  0.49292100  1
  C  220  1  0.01922600  0.97330600  0.48646900  1
  C  221  1  0.14171000  0.98722300  0.49367800  1
  C  224  1  0.13880300  0.01448400  0.50741000  1
  C  231  1  0.02130600  0.48689700  0.97302200  1
  C  232  1  0.89987100  0.49371400  0.98672200  1
  C  233  1  0.89993800  0.50706700  0.01354300  1
  C  234  1  0.02144400  0.51384500  0.02722100  1
  C  235  1  0.14511000  0.50710600  0.01370300  1
  C  238  1  0.14504800  0.49359600  0.98651800  1
  C  245  1  0.02147700  0.48670800  0.51358500  1
  C  246  1  0.90009900  0.49288800  0.50606900  1
  C  247  1  0.90011900  0.50634800  0.49270800  1
  C  248  1  0.02152400  0.51392300  0.48659900  1
  C  249  1  0.14515100  0.50781200  0.49400000  1
  C  252  1  0.14513000  0.49415900  0.50753300  1
  C  259  1  0.98561600  0.76383100  0.28345200  1
  C  260  1  0.10696300  0.75233500  0.27112900  1
  C  261  1  0.10670300  0.72902600  0.24797100  1
  C  262  1  0.98521700  0.71667200  0.23658400  1
  C  263  1  0.86191400  0.72923600  0.24755100  1
  C  266  1  0.86208300  0.75285700  0.27103700  1
  C  273  1  0.98545600  0.52006500  0.23652900  1
  C  274  1  0.10679400  0.51929300  0.24806300  1
  C  275  1  0.10668300  0.51939100  0.27134000  1
  C  276  1  0.98530800  0.52026700  0.28367900  1
  C  277  1  0.86197400  0.51869700  0.27113400  1
  C  280  1  0.86205400  0.51860100  0.24753200  1
  C  287  1  0.98557700  0.71692100  0.48012000  1
  C  288  1  0.10699300  0.72921900  0.48095200  1
  C  289  1  0.10690300  0.75238700  0.48083000  1
  C  290  1  0.98557600  0.76386400  0.47995400  1
  C  291  1  0.86218400  0.75290000  0.48152100  1
  C  294  1  0.86212300  0.72937400  0.48157800  1
  C  301  1  0.98561800  0.23689300  0.71682500  1
  C  302  1  0.10691300  0.24840000  0.72918400  1
  C  303  1  0.10668400  0.27169400  0.75235500  1
  C  304  1  0.98523900  0.28401500  0.76380500  1
  C  305  1  0.86200300  0.27144400  0.75283400  1
  C  308  1  0.86218400  0.24786600  0.72930600  1
  C  315  1  0.98540700  0.48051200  0.76359500  1
  C  316  1  0.10677300  0.48134700  0.75210900  1
  C  317  1  0.10653600  0.48122800  0.72881400  1
  C  318  1  0.98506800  0.48027900  0.71646400  1
  C  319  1  0.86175400  0.48186900  0.72902300  1
  C  322  1  0.86189300  0.48197600  0.75263100  1
  C  329  1  0.98558700  0.28366900  0.51995700  1
  C  330  1  0.10696500  0.27138200  0.51920700  1
  C  331  1  0.10693300  0.24821300  0.51932700  1
  C  332  1  0.98555800  0.23676200  0.52020500  1
  C  333  1  0.86214400  0.24770600  0.51862700  1
  C  336  1  0.86220400  0.27119900  0.51850400  1
  H  25  1  0.97976900  0.81591400  0.50344100  1
  H  26  1  0.98540800  0.84135000  0.48302800  1
  H  27  1  0.00270300  0.74878000  0.43113000  1
  H  28  1  0.00853200  0.77361100  0.41084700  1
  H  29  1  0.00970100  0.77361300  0.36232400  1
  H  30  1  0.00370200  0.74876700  0.31721100  1
  H  31  1  0.98537800  0.84132900  0.35785700  1
  H  32  1  0.97961000  0.81587800  0.31201100  1
  H  33  1  0.00821900  0.89654400  0.41295300  1
  H  34  1  0.01551600  0.94214100  0.43588200  1
  H  35  1  0.01110900  0.94213200  0.50583200  1
  H  36  1  0.00377400  0.89654100  0.48313700  1
  H  61  1  0.97883800  0.68808500  0.18455100  1
  H  62  1  0.98396800  0.64223800  0.15913900  1
  H  63  1  0.00246400  0.68295300  0.25170400  1
  H  64  1  0.00778900  0.63782700  0.22689000  1
  H  65  1  0.00979000  0.58920600  0.22684000  1
  H  66  1  0.00433300  0.56888800  0.25164000  1
  H  67  1  0.98357000  0.51708600  0.15909100  1
  H  68  1  0.97837000  0.49663800  0.18449300  1
  H  69  1  0.00699000  0.51701700  0.10392700  1
  H  70  1  0.01593000  0.49438600  0.05834200  1
  H  71  1  0.01057800  0.56436700  0.05839700  1
  H  72  1  0.00151500  0.58722800  0.10397800  1
  H  97  1  0.97904000  0.49684700  0.31229800  1
  H  98  1  0.98416700  0.51731800  0.35814900  1
  H  99  1  0.00252300  0.56910700  0.31736600  1
  H  100  1  0.00784200  0.58945100  0.36249000  1
  H  101  1  0.00883100  0.63803100  0.41105000  1
  H  102  1  0.00356300  0.68314500  0.43131100  1
  H  103  1  0.98369700  0.64252200  0.48323400  1
  H  104  1  0.97865800  0.68837100  0.50362500  1
  H  105  1  0.00029100  0.58738600  0.48337000  1
  H  106  1  0.00935000  0.56446300  0.50603200  1
  H  107  1  0.01712600  0.49455800  0.43604100  1
  H  108  1  0.00803900  0.51724800  0.41315100  1
  H  133  1  0.97815000  0.18472800  0.49679200  1
  H  134  1  0.98277700  0.15934100  0.51725600  1
  H  135  1  0.00352100  0.25189300  0.56903800  1
  H  136  1  0.00836900  0.22710500  0.58937600  1
  H  137  1  0.01006900  0.22710700  0.63796600  1
  H  138  1  0.00492100  0.25194700  0.68308200  1
  H  139  1  0.98278700  0.15941400  0.64242200  1
  H  140  1  0.97792100  0.18485800  0.68827000  1
  H  141  1  0.00735100  0.10418400  0.58729100  1
  H  142  1  0.01397800  0.05857100  0.56431000  1
  H  143  1  0.00027000  0.05862200  0.49441000  1
  H  144  1  0.99374600  0.10422300  0.51715300  1
  H  169  1  0.97827100  0.31265900  0.81582600  1
  H  170  1  0.98322800  0.35850900  0.84118800  1
  H  171  1  0.00317200  0.31768600  0.74862600  1
  H  172  1  0.00833100  0.36281400  0.77339000  1
  H  173  1  0.00962100  0.41141500  0.77337400  1
  H  174  1  0.00424100  0.43169300  0.74853400  1
  H  175  1  0.98344900  0.48357200  0.84107600  1
  H  176  1  0.97831800  0.50397800  0.81563400  1
  H  177  1  0.00701100  0.48369700  0.89630000  1
  H  178  1  0.01609600  0.50634100  0.94188600  1
  H  179  1  0.00983100  0.43637800  0.94186300  1
  H  180  1  0.00062400  0.41350800  0.89628600  1
  H  205  1  0.97854000  0.50370600  0.68785600  1
  H  206  1  0.98356800  0.48325000  0.64200500  1
  H  207  1  0.00240300  0.43144000  0.68276000  1
  H  208  1  0.00762100  0.41111000  0.63763600  1
  H  209  1  0.00979900  0.36253300  0.58904700  1
  H  210  1  0.00453000  0.31741800  0.56876700  1
  H  211  1  0.98325700  0.35808700  0.51689700  1
  H  212  1  0.97824100  0.31223800  0.49648600  1
  H  213  1  0.00913000  0.41318200  0.51679400  1
  H  214  1  0.01836800  0.43612500  0.49415300  1
  H  215  1  0.00782000  0.50606300  0.56408700  1
  H  216  1  0.99855200  0.48335500  0.58695700  1
  H  222  1  0.80761300  0.97684300  0.48786800  1
  H  223  1  0.80340600  0.02257300  0.51085400  1
  H  236  1  0.81020200  0.51178200  0.02299300  1
  H  237  1  0.81009100  0.48902900  0.97728800  1
  H  250  1  0.81041400  0.51058500  0.48750000  1
  H  251  1  0.81038100  0.48765400  0.51027200  1
  H  264  1  0.19584100  0.71962800  0.24131200  1
  H  265  1  0.19630000  0.75897600  0.28045300  1
  H  278  1  0.19596000  0.52196400  0.28066000  1
  H  279  1  0.19620100  0.52182500  0.24132600  1
  H  292  1  0.19620900  0.75912500  0.47826000  1
  H  293  1  0.19624100  0.71989600  0.47838300  1
  H  306  1  0.19594000  0.28105200  0.75900900  1
  H  307  1  0.19625100  0.24177500  0.71985600  1
  H  320  1  0.19568100  0.47849100  0.71941900  1
  H  321  1  0.19609100  0.47865300  0.75874500  1
  H  334  1  0.19620300  0.24147600  0.52191200  1
  H  335  1  0.19634200  0.28065800  0.52173500  1
  N  2  1  0.00097200  0.85080400  0.44451400  1
  N  4  1  0.00131200  0.85080300  0.40583100  1
  N  6  1  0.99796200  0.81268400  0.40611600  1
  N  38  1  0.99914200  0.59430100  0.14970000  1
  N  40  1  0.99961100  0.55560900  0.14967100  1
  N  42  1  0.99674200  0.59400000  0.18781100  1
  N  74  1  0.99924000  0.55585300  0.40607200  1
  N  76  1  0.99928200  0.59453900  0.44474400  1
  N  78  1  0.99656200  0.59424300  0.40633100  1
  N  110  1  0.99710400  0.14993400  0.55577500  1
  N  112  1  0.99768200  0.14993400  0.59445300  1
  N  114  1  0.99655200  0.18806300  0.59417200  1
  N  146  1  0.99881200  0.40641400  0.85056600  1
  N  148  1  0.99926100  0.44508400  0.85055200  1
  N  150  1  0.99657300  0.40667100  0.81243200  1
  N  182  1  0.99871100  0.44473000  0.59407000  1
  N  184  1  0.99926300  0.40605200  0.55539400  1
  N  186  1  0.99645200  0.40633200  0.59379900  1
  N  225  1  0.26900200  0.97526400  0.48784000  1
  N  226  1  0.25671700  0.02960700  0.51516400  1
  N  239  1  0.27150300  0.51325300  0.02606600  1
  N  240  1  0.27138200  0.48741900  0.97413400  1
  N  253  1  0.27145300  0.51467900  0.48849400  1
  N  254  1  0.27141300  0.48858600  0.51434300  1
  N  267  1  0.73537100  0.71833400  0.23710500  1
  N  268  1  0.73573800  0.76338600  0.28198300  1
  N  281  1  0.73547000  0.51911600  0.28203200  1
  N  282  1  0.73564900  0.51902700  0.23702800  1
  N  295  1  0.73572100  0.76338200  0.48108000  1
  N  296  1  0.73566900  0.71847500  0.48118800  1
  N  309  1  0.73546200  0.28233600  0.76329400  1
  N  310  1  0.73580900  0.23734300  0.71837600  1
  N  323  1  0.73522900  0.48143600  0.71812800  1
  N  324  1  0.73552800  0.48154600  0.76314400  1
  N  337  1  0.73565100  0.23722700  0.51905500  1
  N  338  1  0.73578000  0.28211300  0.51890700  1
  O  227  1  0.28756700  0.96183100  0.49810800  1
  O  228  1  0.32589100  0.02584400  0.53035600  1
  O  229  1  0.28934700  0.96202200  0.46417500  1
  O  230  1  0.32729100  0.02600900  0.49642100  1
  O  241  1  0.28973400  0.53696000  0.03957000  1
  O  242  1  0.28991600  0.49787500  0.96087300  1
  O  243  1  0.28996700  0.50281300  0.03934300  1
  O  244  1  0.28941700  0.46370800  0.96060700  1
  O  255  1  0.28661800  0.53848400  0.49898700  1
  O  256  1  0.29277400  0.46496600  0.50407400  1
  O  257  1  0.29281300  0.50455300  0.46488600  1
  O  258  1  0.28654700  0.49893600  0.53813700  1
  O  269  1  0.71100700  0.69834000  0.23793800  1
  O  270  1  0.72262600  0.78588600  0.28623900  1
  O  271  1  0.72215600  0.71393400  0.21455700  1
  O  272  1  0.71174700  0.76271900  0.30207600  1
  O  283  1  0.71106300  0.53992300  0.30204900  1
  O  284  1  0.72242600  0.50078900  0.21452700  1
  O  285  1  0.72236600  0.50094100  0.28639500  1
  O  286  1  0.71163900  0.53979400  0.23770600  1
  O  297  1  0.71143800  0.76258600  0.46026700  1
  O  298  1  0.72249600  0.71422700  0.49943600  1
  O  299  1  0.72260600  0.78592200  0.49924900  1
  O  300  1  0.71143900  0.69839200  0.46043100  1
  O  311  1  0.71110800  0.30235400  0.76250200  1
  O  312  1  0.72266500  0.21484200  0.71412000  1
  O  313  1  0.72228500  0.28669900  0.78582900  1
  O  314  1  0.71172800  0.23801600  0.69828700  1
  O  325  1  0.71081800  0.46062100  0.69811900  1
  O  326  1  0.72233600  0.49978400  0.78564400  1
  O  327  1  0.72206500  0.49960100  0.71375300  1
  O  328  1  0.71155800  0.46077800  0.76246800  1
  O  339  1  0.71128900  0.23801800  0.53986300  1
  O  340  1  0.72255600  0.28634000  0.50064500  1
  O  341  1  0.72250400  0.21469500  0.50087900  1
  O  342  1  0.71171900  0.30221800  0.53965700  1
