# generated using pymatgen
data_Cu3H24C42(NO6)2
_symmetry_space_group_name_H-M   'P 1'
_cell_length_a   20.40429000
_cell_length_b   26.23684000
_cell_length_c   26.23684000
_cell_angle_alpha   81.41397000
_cell_angle_beta   67.29685000
_cell_angle_gamma   67.29685000
_symmetry_Int_Tables_number   1
_chemical_formula_structural   Cu3H24C42(NO6)2
_chemical_formula_sum   'Cu12 H96 C168 N8 O48'
_cell_volume   11953.44653579
_cell_formula_units_Z   4
loop_
 _symmetry_equiv_pos_site_id
 _symmetry_equiv_pos_as_xyz
  1  'x, y, z'
loop_
 _atom_site_type_symbol
 _atom_site_label
 _atom_site_symmetry_multiplicity
 _atom_site_fract_x
 _atom_site_fract_y
 _atom_site_fract_z
 _atom_site_occupancy
  Cu  Cu0  1  0.93903000  0.49592000  0.00841000  1
  Cu  Cu1  1  0.44399000  0.50373000  0.99111000  1
  Cu  Cu2  1  0.06096000  0.99159000  0.50408000  1
  Cu  Cu3  1  0.55600000  0.00889000  0.49627000  1
  Cu  Cu4  1  0.06096000  0.50408000  0.99159000  1
  Cu  Cu5  1  0.55600000  0.49627000  0.00889000  1
  Cu  Cu6  1  0.93903000  0.00841000  0.49592000  1
  Cu  Cu7  1  0.44400000  0.99111000  0.50373000  1
  Cu  Cu8  1  0.03513000  0.46447000  0.46446000  1
  Cu  Cu9  1  0.96486000  0.53554000  0.53553000  1
  Cu  Cu10  1  0.49999000  0.03549000  0.96451000  1
  Cu  Cu11  1  0.50000000  0.96450000  0.03549000  1
  H  H12  1  0.03218000  0.54363000  0.15301000  1
  H  H13  1  0.18670000  0.34542000  0.03874000  1
  H  H14  1  0.98690000  0.57447000  0.25009000  1
  H  H15  1  0.23756000  0.24865000  0.07053000  1
  H  H16  1  0.97973000  0.32416000  0.05938000  1
  H  H17  1  0.92973000  0.53127000  0.34454000  1
  H  H18  1  0.80597000  0.55714000  0.17627000  1
  H  H19  1  0.75988000  0.58886000  0.27306000  1
  H  H20  1  0.03043000  0.22716000  0.08976000  1
  H  H21  1  0.77036000  0.67873000  0.27159000  1
  H  H22  1  0.04106000  0.22733000  0.17733000  1
  H  H23  1  0.27358000  0.15538000  0.03035000  1
  H  H24  1  0.72845000  0.45700000  0.84805000  1
  H  H25  1  0.57052000  0.65495000  0.96107000  1
  H  H26  1  0.81108000  0.42620000  0.75091000  1
  H  H27  1  0.55605000  0.75184000  0.92907000  1
  H  H28  1  0.36354000  0.67479000  0.94024000  1
  H  H29  1  0.80539000  0.46925000  0.65664000  1
  H  H30  1  0.53998000  0.44274000  0.82367000  1
  H  H31  1  0.62223000  0.41108000  0.72692000  1
  H  H32  1  0.34726000  0.77198000  0.90966000  1
  H  H33  1  0.72062000  0.32156000  0.72877000  1
  H  H34  1  0.44519000  0.77215000  0.82214000  1
  H  H35  1  0.45878000  0.84435000  0.96948000  1
  H  H36  1  0.96781000  0.84699000  0.45637000  1
  H  H37  1  0.81330000  0.96127000  0.65457000  1
  H  H38  1  0.01309000  0.74991000  0.42553000  1
  H  H39  1  0.76243000  0.92947000  0.75135000  1
  H  H40  1  0.02026000  0.94063000  0.67584000  1
  H  H41  1  0.07026000  0.65546000  0.46873000  1
  H  H42  1  0.19403000  0.82373000  0.44286000  1
  H  H43  1  0.24011000  0.72694000  0.41113000  1
  H  H44  1  0.96956000  0.91024000  0.77284000  1
  H  H45  1  0.22963000  0.72841000  0.32126000  1
  H  H46  1  0.95894000  0.82267000  0.77267000  1
  H  H47  1  0.72641000  0.96965000  0.84462000  1
  H  H48  1  0.27154000  0.15195000  0.54300000  1
  H  H49  1  0.42947000  0.03893000  0.34505000  1
  H  H50  1  0.18891000  0.24909000  0.57380000  1
  H  H51  1  0.44394000  0.07093000  0.24816000  1
  H  H52  1  0.63645000  0.05976000  0.32521000  1
  H  H53  1  0.19460000  0.34336000  0.53075000  1
  H  H54  1  0.46001000  0.17633000  0.55726000  1
  H  H55  1  0.37777000  0.27308000  0.58892000  1
  H  H56  1  0.65273000  0.09034000  0.22802000  1
  H  H57  1  0.27937000  0.27123000  0.67845000  1
  H  H58  1  0.55480000  0.17786000  0.22785000  1
  H  H59  1  0.54121000  0.03052000  0.15565000  1
  H  H60  1  0.96781000  0.45637000  0.84699000  1
  H  H61  1  0.81329000  0.65458000  0.96126000  1
  H  H62  1  0.01309000  0.42553000  0.74991000  1
  H  H63  1  0.76243000  0.75135000  0.92946000  1
  H  H64  1  0.02026000  0.67584000  0.94062000  1
  H  H65  1  0.07026000  0.46873000  0.65546000  1
  H  H66  1  0.19403000  0.44286000  0.82373000  1
  H  H67  1  0.24011000  0.41114000  0.72694000  1
  H  H68  1  0.96956000  0.77285000  0.91023000  1
  H  H69  1  0.22963000  0.32127000  0.72841000  1
  H  H70  1  0.95894000  0.77267000  0.82267000  1
  H  H71  1  0.72640000  0.84463000  0.96964000  1
  H  H72  1  0.27154000  0.54300000  0.15194000  1
  H  H73  1  0.42947000  0.34505000  0.03893000  1
  H  H74  1  0.18891000  0.57380000  0.24908000  1
  H  H75  1  0.44394000  0.24816000  0.07093000  1
  H  H76  1  0.63645000  0.32521000  0.05976000  1
  H  H77  1  0.19460000  0.53076000  0.34336000  1
  H  H78  1  0.46001000  0.55726000  0.17633000  1
  H  H79  1  0.37777000  0.58892000  0.27308000  1
  H  H80  1  0.65273000  0.22802000  0.09034000  1
  H  H81  1  0.27937000  0.67845000  0.27123000  1
  H  H82  1  0.55480000  0.22785000  0.17786000  1
  H  H83  1  0.54121000  0.15564000  0.03052000  1
  H  H84  1  0.03218000  0.15301000  0.54363000  1
  H  H85  1  0.18670000  0.03874000  0.34542000  1
  H  H86  1  0.98690000  0.25009000  0.57447000  1
  H  H87  1  0.23756000  0.07054000  0.24865000  1
  H  H88  1  0.97973000  0.05938000  0.32416000  1
  H  H89  1  0.92973000  0.34454000  0.53127000  1
  H  H90  1  0.80597000  0.17627000  0.55714000  1
  H  H91  1  0.75988000  0.27306000  0.58886000  1
  H  H92  1  0.03043000  0.08976000  0.22715000  1
  H  H93  1  0.77036000  0.27159000  0.67873000  1
  H  H94  1  0.04106000  0.17733000  0.22733000  1
  H  H95  1  0.27359000  0.03035000  0.15538000  1
  H  H96  1  0.72845000  0.84806000  0.45700000  1
  H  H97  1  0.57052000  0.96107000  0.65495000  1
  H  H98  1  0.81108000  0.75092000  0.42620000  1
  H  H99  1  0.55605000  0.92907000  0.75184000  1
  H  H100  1  0.36355000  0.94024000  0.67479000  1
  H  H101  1  0.80539000  0.65664000  0.46924000  1
  H  H102  1  0.53998000  0.82367000  0.44273000  1
  H  H103  1  0.62223000  0.72692000  0.41108000  1
  H  H104  1  0.34726000  0.90966000  0.77198000  1
  H  H105  1  0.72062000  0.72877000  0.32155000  1
  H  H106  1  0.44519000  0.82214000  0.77214000  1
  H  H107  1  0.45878000  0.96948000  0.84436000  1
  C  C108  1  0.97284000  0.55343000  0.17969000  1
  C  C109  1  0.15305000  0.31915000  0.05010000  1
  C  C110  1  0.87015000  0.58435000  0.26829000  1
  C  C111  1  0.94732000  0.57059000  0.23391000  1
  C  C112  1  0.18133000  0.26506000  0.06760000  1
  C  C113  1  0.13756000  0.23102000  0.08293000  1
  C  C114  1  0.03596000  0.30737000  0.06216000  1
  C  C115  1  0.07974000  0.34105000  0.04769000  1
  C  C116  1  0.88556000  0.57126000  0.35912000  1
  C  C117  1  0.17029000  0.17392000  0.10204000  1
  C  C118  1  0.24382000  0.14059000  0.07021000  1
  C  C119  1  0.84588000  0.60335000  0.32544000  1
  C  C120  1  0.84499000  0.56153000  0.19267000  1
  C  C121  1  0.81941000  0.57942000  0.24678000  1
  C  C122  1  0.92175000  0.54895000  0.15853000  1
  C  C123  1  0.06452000  0.25307000  0.07953000  1
  C  C124  1  0.04932000  0.39956000  0.03026000  1
  C  C125  1  0.94921000  0.53107000  0.10028000  1
  C  C126  1  0.70587000  0.44703000  0.82106000  1
  C  C127  1  0.52206000  0.68100000  0.94963000  1
  C  C128  1  0.72274000  0.41603000  0.73224000  1
  C  C129  1  0.75165000  0.42994000  0.76689000  1
  C  C130  1  0.51353000  0.73509000  0.93199000  1
  C  C131  1  0.45106000  0.76870000  0.91663000  1
  C  C132  1  0.40550000  0.69198000  0.93746000  1
  C  C133  1  0.46840000  0.65881000  0.95206000  1
  C  C134  1  0.81557000  0.42934000  0.64179000  1
  C  C135  1  0.44555000  0.82586000  0.89764000  1
  C  C136  1  0.45398000  0.85927000  0.92963000  1
  C  C137  1  0.77441000  0.39710000  0.67516000  1
  C  C138  1  0.59956000  0.43851000  0.80745000  1
  C  C139  1  0.64587000  0.42070000  0.75340000  1
  C  C140  1  0.62947000  0.45125000  0.84184000  1
  C  C141  1  0.39693000  0.74629000  0.91997000  1
  C  C142  1  0.47904000  0.60039000  0.96961000  1
  C  C143  1  0.58087000  0.46904000  0.90001000  1
  C  C144  1  0.02716000  0.82031000  0.44657000  1
  C  C145  1  0.84694000  0.94990000  0.68084000  1
  C  C146  1  0.12985000  0.73171000  0.41564000  1
  C  C147  1  0.05268000  0.76609000  0.42941000  1
  C  C148  1  0.81867000  0.93240000  0.73493000  1
  C  C149  1  0.86244000  0.91707000  0.76898000  1
  C  C150  1  0.96403000  0.93784000  0.69262000  1
  C  C151  1  0.92025000  0.95231000  0.65895000  1
  C  C152  1  0.11443000  0.64088000  0.42874000  1
  C  C153  1  0.82970000  0.89796000  0.82608000  1
  C  C154  1  0.75617000  0.92979000  0.85941000  1
  C  C155  1  0.15411000  0.67456000  0.39665000  1
  C  C156  1  0.15500000  0.80733000  0.43847000  1
  C  C157  1  0.18059000  0.75322000  0.42058000  1
  C  C158  1  0.07825000  0.84147000  0.45105000  1
  C  C159  1  0.93547000  0.92047000  0.74693000  1
  C  C160  1  0.95068000  0.96974000  0.60044000  1
  C  C161  1  0.05079000  0.89972000  0.46893000  1
  C  C162  1  0.29412000  0.17894000  0.55297000  1
  C  C163  1  0.47794000  0.05037000  0.31900000  1
  C  C164  1  0.27725000  0.26776000  0.58397000  1
  C  C165  1  0.24834000  0.23311000  0.57006000  1
  C  C166  1  0.48646000  0.06801000  0.26491000  1
  C  C167  1  0.54893000  0.08336000  0.23130000  1
  C  C168  1  0.59449000  0.06254000  0.30802000  1
  C  C169  1  0.53160000  0.04793000  0.34119000  1
  C  C170  1  0.18443000  0.35821000  0.57066000  1
  C  C171  1  0.55444000  0.10236000  0.17414000  1
  C  C172  1  0.54602000  0.07036000  0.14074000  1
  C  C173  1  0.22559000  0.32484000  0.60290000  1
  C  C174  1  0.40043000  0.19255000  0.56149000  1
  C  C175  1  0.35412000  0.24660000  0.57930000  1
  C  C176  1  0.37052000  0.15816000  0.54875000  1
  C  C177  1  0.60306000  0.08003000  0.25371000  1
  C  C178  1  0.52095000  0.03039000  0.39962000  1
  C  C179  1  0.41912000  0.09999000  0.53096000  1
  C  C180  1  0.02716000  0.44657000  0.82031000  1
  C  C181  1  0.84694000  0.68085000  0.94990000  1
  C  C182  1  0.12985000  0.41565000  0.73171000  1
  C  C183  1  0.05268000  0.42941000  0.76609000  1
  C  C184  1  0.81866000  0.73494000  0.93240000  1
  C  C185  1  0.86243000  0.76898000  0.91707000  1
  C  C186  1  0.96403000  0.69263000  0.93784000  1
  C  C187  1  0.92025000  0.65895000  0.95231000  1
  C  C188  1  0.11443000  0.42874000  0.64088000  1
  C  C189  1  0.82970000  0.82609000  0.89796000  1
  C  C190  1  0.75617000  0.85941000  0.92979000  1
  C  C191  1  0.15411000  0.39665000  0.67455000  1
  C  C192  1  0.15500000  0.43847000  0.80733000  1
  C  C193  1  0.18058000  0.42059000  0.75322000  1
  C  C194  1  0.07825000  0.45105000  0.84146000  1
  C  C195  1  0.93547000  0.74693000  0.92047000  1
  C  C196  1  0.95068000  0.60044000  0.96973000  1
  C  C197  1  0.05078000  0.46893000  0.89972000  1
  C  C198  1  0.29412000  0.55297000  0.17894000  1
  C  C199  1  0.47794000  0.31900000  0.05037000  1
  C  C200  1  0.27725000  0.58397000  0.26776000  1
  C  C201  1  0.24834000  0.57006000  0.23311000  1
  C  C202  1  0.48646000  0.26491000  0.06800000  1
  C  C203  1  0.54893000  0.23129000  0.08336000  1
  C  C204  1  0.59449000  0.30802000  0.06254000  1
  C  C205  1  0.53160000  0.34119000  0.04793000  1
  C  C206  1  0.18443000  0.57066000  0.35820000  1
  C  C207  1  0.55444000  0.17414000  0.10235000  1
  C  C208  1  0.54602000  0.14072000  0.07037000  1
  C  C209  1  0.22559000  0.60290000  0.32484000  1
  C  C210  1  0.40043000  0.56149000  0.19255000  1
  C  C211  1  0.35412000  0.57930000  0.24660000  1
  C  C212  1  0.37052000  0.54875000  0.15815000  1
  C  C213  1  0.60306000  0.25371000  0.08003000  1
  C  C214  1  0.52095000  0.39961000  0.03039000  1
  C  C215  1  0.41912000  0.53096000  0.09999000  1
  C  C216  1  0.97284000  0.17969000  0.55343000  1
  C  C217  1  0.15305000  0.05010000  0.31915000  1
  C  C218  1  0.87014000  0.26829000  0.58435000  1
  C  C219  1  0.94732000  0.23391000  0.57059000  1
  C  C220  1  0.18133000  0.06760000  0.26506000  1
  C  C221  1  0.13756000  0.08293000  0.23102000  1
  C  C222  1  0.03596000  0.06216000  0.30737000  1
  C  C223  1  0.07974000  0.04769000  0.34105000  1
  C  C224  1  0.88556000  0.35912000  0.57126000  1
  C  C225  1  0.17029000  0.10204000  0.17391000  1
  C  C226  1  0.24382000  0.07021000  0.14059000  1
  C  C227  1  0.84588000  0.32545000  0.60335000  1
  C  C228  1  0.84499000  0.19267000  0.56153000  1
  C  C229  1  0.81941000  0.24678000  0.57941000  1
  C  C230  1  0.92175000  0.15854000  0.54895000  1
  C  C231  1  0.06452000  0.07953000  0.25307000  1
  C  C232  1  0.04931000  0.03027000  0.39956000  1
  C  C233  1  0.94921000  0.10028000  0.53107000  1
  C  C234  1  0.70587000  0.82106000  0.44703000  1
  C  C235  1  0.52206000  0.94964000  0.68100000  1
  C  C236  1  0.72274000  0.73224000  0.41602000  1
  C  C237  1  0.75165000  0.76689000  0.42994000  1
  C  C238  1  0.51353000  0.93200000  0.73509000  1
  C  C239  1  0.45106000  0.91664000  0.76870000  1
  C  C240  1  0.40550000  0.93746000  0.69198000  1
  C  C241  1  0.46840000  0.95207000  0.65881000  1
  C  C242  1  0.81557000  0.64180000  0.42934000  1
  C  C243  1  0.44555000  0.89765000  0.82586000  1
  C  C244  1  0.45398000  0.92963000  0.85927000  1
  C  C245  1  0.77441000  0.67516000  0.39710000  1
  C  C246  1  0.59956000  0.80745000  0.43851000  1
  C  C247  1  0.64588000  0.75340000  0.42070000  1
  C  C248  1  0.62947000  0.84184000  0.45125000  1
  C  C249  1  0.39693000  0.91997000  0.74629000  1
  C  C250  1  0.47904000  0.96961000  0.60038000  1
  C  C251  1  0.58087000  0.90001000  0.46904000  1
  C  C252  1  0.87023000  0.58938000  0.41150000  1
  C  C253  1  0.78790000  0.65565000  0.34479000  1
  C  C254  1  0.91398000  0.55511000  0.44611000  1
  C  C255  1  0.87023000  0.41150000  0.58938000  1
  C  C256  1  0.78790000  0.34480000  0.65565000  1
  C  C257  1  0.91398000  0.44611000  0.55511000  1
  C  C258  1  0.12976000  0.58850000  0.41062000  1
  C  C259  1  0.21209000  0.65521000  0.34434000  1
  C  C260  1  0.08601000  0.55389000  0.44489000  1
  C  C261  1  0.12976000  0.41062000  0.58850000  1
  C  C262  1  0.21209000  0.34435000  0.65520000  1
  C  C263  1  0.08601000  0.44489000  0.55389000  1
  C  C264  1  0.28099000  0.08832000  0.08831000  1
  C  C265  1  0.13164000  0.15432000  0.15431000  1
  C  C266  1  0.35977000  0.05423000  0.05421000  1
  C  C267  1  0.45715000  0.91154000  0.91155000  1
  C  C268  1  0.43953000  0.84534000  0.84534000  1
  C  C269  1  0.46860000  0.94545000  0.94548000  1
  C  C270  1  0.71900000  0.91169000  0.91168000  1
  C  C271  1  0.86835000  0.84569000  0.84568000  1
  C  C272  1  0.64022000  0.94579000  0.94577000  1
  C  C273  1  0.54285000  0.08845000  0.08846000  1
  C  C274  1  0.56047000  0.15466000  0.15466000  1
  C  C275  1  0.53139000  0.05451000  0.05455000  1
  N  N276  1  0.74698000  0.68778000  0.31255000  1
  N  N277  1  0.74698000  0.31255000  0.68778000  1
  N  N278  1  0.25301000  0.68745000  0.31222000  1
  N  N279  1  0.25301000  0.31222000  0.68745000  1
  N  N280  1  0.05861000  0.18637000  0.18637000  1
  N  N281  1  0.43062000  0.81313000  0.81312000  1
  N  N282  1  0.94138000  0.81363000  0.81363000  1
  N  N283  1  0.56937000  0.18687000  0.18687000  1
  O  O284  1  0.90303000  0.52028000  0.08539000  1
  O  O285  1  0.39129000  0.07425000  0.00755000  1
  O  O286  1  0.96421000  0.50796000  0.42658000  1
  O  O287  1  0.98050000  0.41879000  0.03181000  1
  O  O288  1  0.09471000  0.42638000  0.01518000  1
  O  O289  1  0.01712000  0.52787000  0.06949000  1
  O  O290  1  0.50933000  0.47979000  0.91439000  1
  O  O291  1  0.47390000  0.92520000  0.99206000  1
  O  O292  1  0.89932000  0.49256000  0.57550000  1
  O  O293  1  0.43129000  0.58095000  0.96764000  1
  O  O294  1  0.53573000  0.57385000  0.98517000  1
  O  O295  1  0.61438000  0.47222000  0.93130000  1
  O  O296  1  0.09696000  0.91461000  0.47972000  1
  O  O297  1  0.60871000  0.99245000  0.92574000  1
  O  O298  1  0.03578000  0.57341000  0.49204000  1
  O  O299  1  0.01949000  0.96819000  0.58121000  1
  O  O300  1  0.90528000  0.98482000  0.57362000  1
  O  O301  1  0.98287000  0.93051000  0.47212000  1
  O  O302  1  0.49066000  0.08561000  0.52022000  1
  O  O303  1  0.52609000  0.00794000  0.07481000  1
  O  O304  1  0.10068000  0.42450000  0.50744000  1
  O  O305  1  0.56870000  0.03236000  0.41905000  1
  O  O306  1  0.46427000  0.01483000  0.42615000  1
  O  O307  1  0.38561000  0.06870000  0.52778000  1
  O  O308  1  0.09696000  0.47972000  0.91461000  1
  O  O309  1  0.60871000  0.92581000  0.99246000  1
  O  O310  1  0.03578000  0.49205000  0.57341000  1
  O  O311  1  0.01949000  0.58121000  0.96818000  1
  O  O312  1  0.90528000  0.57362000  0.98482000  1
  O  O313  1  0.98287000  0.47213000  0.93051000  1
  O  O314  1  0.49066000  0.52022000  0.08561000  1
  O  O315  1  0.52616000  0.07472000  0.00795000  1
  O  O316  1  0.10068000  0.50744000  0.42450000  1
  O  O317  1  0.56870000  0.41905000  0.03236000  1
  O  O318  1  0.46427000  0.42615000  0.01483000  1
  O  O319  1  0.38561000  0.52778000  0.06870000  1
  O  O320  1  0.90303000  0.08539000  0.52028000  1
  O  O321  1  0.39128000  0.00754000  0.07420000  1
  O  O322  1  0.96421000  0.42659000  0.50795000  1
  O  O323  1  0.98050000  0.03182000  0.41879000  1
  O  O324  1  0.09471000  0.01518000  0.42638000  1
  O  O325  1  0.01712000  0.06949000  0.52787000  1
  O  O326  1  0.50933000  0.91439000  0.47978000  1
  O  O327  1  0.47383000  0.99205000  0.92527000  1
  O  O328  1  0.89932000  0.57550000  0.49256000  1
  O  O329  1  0.43129000  0.96764000  0.58095000  1
  O  O330  1  0.53573000  0.98517000  0.57385000  1
  O  O331  1  0.61438000  0.93130000  0.47222000  1
