# generated using pymatgen
data_NdH6(C2O)6
_symmetry_space_group_name_H-M   'P 1'
_cell_length_a   9.57990000
_cell_length_b   10.67463000
_cell_length_c   10.88639000
_cell_angle_alpha   63.46328000
_cell_angle_beta   66.65732000
_cell_angle_gamma   68.00922000
_symmetry_Int_Tables_number   1
_chemical_formula_structural   NdH6(C2O)6
_chemical_formula_sum   'Nd2 H12 C24 O12'
_cell_volume   887.65177579
_cell_formula_units_Z   2
loop_
 _symmetry_equiv_pos_site_id
 _symmetry_equiv_pos_as_xyz
  1  'x, y, z'
loop_
 _atom_site_type_symbol
 _atom_site_label
 _atom_site_symmetry_multiplicity
 _atom_site_fract_x
 _atom_site_fract_y
 _atom_site_fract_z
 _atom_site_occupancy
  Nd  Nd1  1  0.70682000  0.00151000  0.50142000  1.0
  Nd  Nd2  1  0.29318000  0.99848000  0.49858000  1.0
  H  H1  1  0.49129000  0.39349000  0.67129000  1.0
  H  H2  1  0.33067000  0.64294000  0.65865000  1.0
  H  H3  1  0.96716000  0.56216000  0.58786000  1.0
  H  H4  1  0.12744000  0.31347000  0.59886000  1.0
  H  H5  1  0.28417000  0.37403000  0.11313000  1.0
  H  H6  1  0.73635000  0.38964000  0.08930000  1.0
  H  H7  1  0.50869000  0.60652000  0.32871000  1.0
  H  H8  1  0.66930000  0.35708000  0.34134000  1.0
  H  H9  1  0.03282000  0.43784000  0.41212000  1.0
  H  H10  1  0.87255000  0.68654000  0.40114000  1.0
  H  H11  1  0.71582000  0.62597000  0.88686000  1.0
  H  H12  1  0.26364000  0.61036000  0.91070000  1.0
  C  C1  1  0.42863000  0.20084000  0.61578000  1.0
  C  C2  1  0.32135000  0.33913000  0.63224000  1.0
  C  C3  1  0.37615000  0.43086000  0.65374000  1.0
  C  C4  1  0.28703000  0.57032000  0.64566000  1.0
  C  C5  1  0.14129000  0.61927000  0.61713000  1.0
  C  C6  1  0.08220000  0.52416000  0.60545000  1.0
  C  C7  1  0.17156000  0.38548000  0.61215000  1.0
  C  C8  1  0.05150000  0.77363000  0.59033000  1.0
  C  C9  1  0.52025000  0.22781000  0.23736000  1.0
  C  C10  1  0.51146000  0.36733000  0.11349000  1.0
  C  C11  1  0.37805000  0.42972000  0.06277000  1.0
  C  C12  1  0.63326000  0.43860000  0.04990000  1.0
  C  C13  1  0.57133000  0.79916000  0.38420000  1.0
  C  C14  1  0.67864000  0.66087000  0.36777000  1.0
  C  C15  1  0.62383000  0.56913000  0.34626000  1.0
  C  C16  1  0.71297000  0.42969000  0.35434000  1.0
  C  C17  1  0.85869000  0.38074000  0.38286000  1.0
  C  C18  1  0.91779000  0.47585000  0.39454000  1.0
  C  C19  1  0.82842000  0.61453000  0.38785000  1.0
  C  C20  1  0.94858000  0.22635000  0.40966000  1.0
  C  C21  1  0.47972000  0.77219000  0.76262000  1.0
  C  C22  1  0.48853000  0.63267000  0.88651000  1.0
  C  C23  1  0.62194000  0.57027000  0.93722000  1.0
  C  C24  1  0.36673000  0.56140000  0.95009000  1.0
  O  O1  1  0.56595000  0.16387000  0.63038000  1.0
  O  O2  1  0.38715000  0.12619000  0.57598000  1.0
  O  O3  1  0.92542000  0.81123000  0.55478000  1.0
  O  O4  1  0.10412000  0.86021000  0.60116000  1.0
  O  O5  1  0.63362000  0.18341000  0.29239000  1.0
  O  O6  1  0.41244000  0.16245000  0.28289000  1.0
  O  O7  1  0.43404000  0.83615000  0.36960000  1.0
  O  O8  1  0.61282000  0.87382000  0.42401000  1.0
  O  O9  1  0.07450000  0.18878000  0.44521000  1.0
  O  O10  1  0.89587000  0.13978000  0.39882000  1.0
  O  O11  1  0.36638000  0.81660000  0.70762000  1.0
  O  O12  1  0.58756000  0.83756000  0.71709000  1.0
