# generated using pymatgen
data_V4H32(C18O7)3
_symmetry_space_group_name_H-M   'P 1'
_cell_length_a   6.94473000
_cell_length_b   13.47534000
_cell_length_c   20.12469000
_cell_angle_alpha   104.13344000
_cell_angle_beta   89.67672000
_cell_angle_gamma   89.67497000
_symmetry_Int_Tables_number   1
_chemical_formula_structural   V4H32(C18O7)3
_chemical_formula_sum   'V4 H32 C54 O21'
_cell_volume   1826.23468304
_cell_formula_units_Z   1
loop_
 _symmetry_equiv_pos_site_id
 _symmetry_equiv_pos_as_xyz
  1  'x, y, z'
loop_
 _atom_site_type_symbol
 _atom_site_label
 _atom_site_symmetry_multiplicity
 _atom_site_fract_x
 _atom_site_fract_y
 _atom_site_fract_z
 _atom_site_occupancy
  V  V0  1  0.06465000  0.48800000  0.49757000  1
  V  V1  1  0.56404000  0.51200000  0.50243000  1
  V  V2  1  0.64820000  0.01198000  0.00243000  1
  V  V3  1  0.14878000  0.98778000  0.99764000  1
  H  H4  1  0.86820000  0.84368000  0.48560000  1
  H  H5  1  0.89014000  0.01921000  0.30963000  1
  H  H6  1  0.88433000  0.97320000  0.41888000  1
  H  H7  1  0.83867000  0.60492000  0.30275000  1
  H  H8  1  0.84457000  0.66017000  0.01147000  1
  H  H9  1  0.83374000  0.56403000  0.19658000  1
  H  H10  1  0.82840000  0.52462000  0.07354000  1
  H  H11  1  0.88431000  0.97377000  0.18622000  1
  H  H12  1  0.81419000  0.85073000  0.66456000  1
  H  H13  1  0.55593000  0.85003000  0.77405000  1
  H  H14  1  0.58178000  0.63292000  0.74381000  1
  H  H15  1  0.15748000  0.65011000  0.72602000  1
  H  H16  1  0.12825000  0.86715000  0.75632000  1
  H  H17  1  0.54236000  0.09414000  0.24936000  1
  H  H18  1  0.68844000  0.29631000  0.28505000  1
  H  H19  1  0.50238000  0.33753000  0.16929000  1
  H  H20  1  0.17037000  0.40501000  0.25080000  1
  H  H21  1  0.02443000  0.20267000  0.21516000  1
  H  H22  1  0.21036000  0.16161000  0.33089000  1
  H  H23  1  0.32866000  0.15631000  0.51472000  1
  H  H24  1  0.32574000  0.98093000  0.69072000  1
  H  H25  1  0.32345000  0.02676000  0.58152000  1
  H  H26  1  0.37171000  0.39519000  0.69707000  1
  H  H27  1  0.38770000  0.34015000  0.98821000  1
  H  H28  1  0.39491000  0.43557000  0.80291000  1
  H  H29  1  0.40493000  0.47517000  0.92581000  1
  H  H30  1  0.33457000  0.02668000  0.81414000  1
  H  H31  1  0.05216000  0.51835000  0.78915000  1
  H  H32  1  0.79152000  0.50830000  0.78350000  1
  H  H33  1  0.77293000  0.49484000  0.90356000  1
  H  H34  1  0.92881000  0.39678000  0.85298000  1
  H  H35  1  0.03082000  0.50754000  0.91138000  1
  C  C36  1  0.34875000  0.38101000  0.38308000  1
  C  C37  1  0.34593000  0.36111000  0.56377000  1
  C  C38  1  0.84014000  0.61817000  0.61715000  1
  C  C39  1  0.84338000  0.63898000  0.43632000  1
  C  C40  1  0.87430000  0.89321000  0.39206000  1
  C  C41  1  0.85224000  0.71646000  0.39682000  1
  C  C42  1  0.84744000  0.68056000  0.06698000  1
  C  C43  1  0.83824000  0.60376000  0.10199000  1
  C  C44  1  0.84146000  0.62793000  0.17338000  1
  C  C45  1  0.85417000  0.73089000  0.21195000  1
  C  C46  1  0.86376000  0.80931000  0.17559000  1
  C  C47  1  0.85761000  0.75868000  0.28520000  1
  C  C48  1  0.87068000  0.86381000  0.32016000  1
  C  C49  1  0.88011000  0.93899000  0.28329000  1
  C  C50  1  0.87669000  0.91239000  0.21223000  1
  C  C51  1  0.84855000  0.68591000  0.32526000  1
  C  C52  1  0.86512000  0.81988000  0.43015000  1
  C  C53  1  0.86017000  0.78293000  0.10302000  1
  C  C54  1  0.69114000  0.80443000  0.76309000  1
  C  C55  1  0.83307000  0.80547000  0.70339000  1
  C  C56  1  0.84832000  0.68788000  0.68786000  1
  C  C57  1  0.70498000  0.68593000  0.74667000  1
  C  C58  1  0.87803000  0.69528000  0.79531000  1
  C  C59  1  0.02190000  0.69542000  0.73681000  1
  C  C60  1  0.00551000  0.81391000  0.75322000  1
  C  C61  1  0.86362000  0.81206000  0.81215000  1
  C  C62  1  0.53837000  0.27513000  0.26913000  1
  C  C63  1  0.45843000  0.16473000  0.24996000  1
  C  C64  1  0.35665000  0.18843000  0.18773000  1
  C  C65  1  0.43667000  0.29798000  0.20609000  1
  C  C66  1  0.25435000  0.33444000  0.25023000  1
  C  C67  1  0.17444000  0.22404000  0.23108000  1
  C  C68  1  0.27613000  0.20122000  0.29413000  1
  C  C69  1  0.35617000  0.31081000  0.31247000  1
  C  C70  1  0.33505000  0.10674000  0.60819000  1
  C  C71  1  0.35313000  0.28350000  0.60318000  1
  C  C72  1  0.37961000  0.31969000  0.93277000  1
  C  C73  1  0.39028000  0.39619000  0.89758000  1
  C  C74  1  0.38371000  0.37196000  0.82626000  1
  C  C75  1  0.36517000  0.26922000  0.78797000  1
  C  C76  1  0.35492000  0.19099000  0.82449000  1
  C  C77  1  0.35835000  0.24136000  0.71478000  1
  C  C78  1  0.34370000  0.13622000  0.68000000  1
  C  C79  1  0.33631000  0.06115000  0.71697000  1
  C  C80  1  0.34129000  0.08791000  0.78801000  1
  C  C81  1  0.36365000  0.31410000  0.67464000  1
  C  C82  1  0.33855000  0.18008000  0.57005000  1
  C  C83  1  0.36183000  0.21742000  0.89703000  1
  C  C84  1  0.36739000  0.13912000  0.93630000  1
  C  C85  1  0.36413000  0.11870000  0.11700000  1
  C  C86  1  0.86914000  0.86097000  0.06368000  1
  C  C87  1  0.87254000  0.88163000  0.88292000  1
  C  C88  1  0.91436000  0.53665000  0.81817000  1
  C  C89  1  0.91167000  0.48036000  0.87509000  1
  O  O90  1  0.50678000  0.39994000  0.55005000  1
  O  O91  1  0.17984000  0.40289000  0.41059000  1
  O  O92  1  0.00457000  0.60006000  0.44995000  1
  O  O93  1  0.17738000  0.38784000  0.54711000  1
  O  O94  1  0.00210000  0.58490000  0.58744000  1
  O  O95  1  0.50925000  0.41510000  0.41256000  1
  O  O96  1  0.33757000  0.56467000  0.51307000  1
  O  O97  1  0.67209000  0.59711000  0.58941000  1
  O  O98  1  0.67454000  0.61216000  0.45289000  1
  O  O99  1  0.84099000  0.43533000  0.48693000  1
  O  O100  1  0.20358000  0.08508000  0.08739000  1
  O  O101  1  0.53571000  0.11219000  0.95288000  1
  O  O102  1  0.71073000  0.91505000  0.91257000  1
  O  O103  1  0.53301000  0.09715000  0.08940000  1
  O  O104  1  0.70801000  0.89991000  0.05007000  1
  O  O105  1  0.20630000  0.10022000  0.94990000  1
  O  O106  1  0.37517000  0.93542000  0.98690000  1
  O  O107  1  0.03803000  0.88767000  0.04716000  1
  O  O108  1  0.04073000  0.90270000  0.91064000  1
  O  O109  1  0.87193000  0.06457000  0.01310000  1
  O  O110  1  0.89926000  0.64274000  0.84752000  1
