# generated using pymatgen
data_InH16(C7O2)4
_symmetry_space_group_name_H-M   'P 1'
_cell_length_a   22.88578676
_cell_length_b   23.18125000
_cell_length_c   23.37468000
_cell_angle_alpha   76.06980000
_cell_angle_beta   60.79617613
_cell_angle_gamma   60.44546890
_symmetry_Int_Tables_number   1
_chemical_formula_structural   InH16(C7O2)4
_chemical_formula_sum   'In8 H128 C224 O64'
_cell_volume   9416.08363895
_cell_formula_units_Z   8
loop_
 _symmetry_equiv_pos_site_id
 _symmetry_equiv_pos_as_xyz
  1  'x, y, z'
loop_
 _atom_site_type_symbol
 _atom_site_label
 _atom_site_symmetry_multiplicity
 _atom_site_fract_x
 _atom_site_fract_y
 _atom_site_fract_z
 _atom_site_occupancy
  In  In0  1  0.63916000  0.75025000  0.22088000  1
  In  In1  1  0.88945000  0.24974000  0.72065000  1
  In  In2  1  0.49958000  0.50086000  0.24992000  1
  In  In3  1  0.24939000  0.00114000  0.75004000  1
  In  In4  1  0.75067000  0.99879000  0.24993000  1
  In  In5  1  0.50046000  0.49903000  0.75009000  1
  In  In6  1  0.11054000  0.75028000  0.27935000  1
  In  In7  1  0.36084000  0.24976000  0.77906000  1
  H  H8  1  0.64263000  0.57277000  0.37832000  1
  H  H9  1  0.68047000  0.49767000  0.46263000  1
  H  H10  1  0.82042000  0.58706000  0.43218000  1
  H  H11  1  0.78303000  0.66084000  0.34691000  1
  H  H12  1  0.93260000  0.39679000  0.53089000  1
  H  H13  1  0.89135000  0.47965000  0.45158000  1
  H  H14  1  0.67136000  0.48688000  0.56272000  1
  H  H15  1  0.71281000  0.40592000  0.64093000  1
  H  H16  1  0.47822000  0.92879000  0.37827000  1
  H  H17  1  0.35599000  0.00402000  0.46203000  1
  H  H18  1  0.24739000  0.91416000  0.43077000  1
  H  H19  1  0.37014000  0.83985000  0.34654000  1
  H  H20  1  0.03572000  0.10147000  0.53226000  1
  H  H21  1  0.15622000  0.01977000  0.45225000  1
  H  H22  1  0.26557000  0.01310000  0.56297000  1
  H  H23  1  0.14584000  0.09306000  0.64193000  1
  H  H24  1  0.71530000  0.42736000  0.87834000  1
  H  H25  1  0.67822000  0.50229000  0.96268000  1
  H  H26  1  0.90745000  0.41291000  0.93215000  1
  H  H27  1  0.94371000  0.33931000  0.84681000  1
  H  H28  1  0.82941000  0.60325000  0.03096000  1
  H  H29  1  0.87106000  0.52035000  0.95169000  1
  H  H30  1  0.65824000  0.51313000  0.06269000  1
  H  H31  1  0.61875000  0.59404000  0.14089000  1
  H  H32  1  0.90696000  0.07138000  0.87813000  1
  H  H33  1  0.85997000  0.99607000  0.96195000  1
  H  H34  1  0.66158000  0.08576000  0.93084000  1
  H  H35  1  0.71005000  0.16011000  0.84649000  1
  H  H36  1  0.63716000  0.89839000  0.03245000  1
  H  H37  1  0.67597000  0.98015000  0.95237000  1
  H  H38  1  0.77886000  0.98689000  0.06283000  1
  H  H39  1  0.73908000  0.90690000  0.14188000  1
  H  H40  1  0.76505000  0.37537000  0.15531000  1
  H  H41  1  0.88741000  0.30045000  0.07345000  1
  H  H42  1  0.77603000  0.29000000  0.97332000  1
  H  H43  1  0.65486000  0.36387000  0.05656000  1
  H  H44  1  0.09775000  0.14618000  0.94184000  1
  H  H45  1  0.97820000  0.22720000  0.02022000  1
  H  H46  1  0.87078000  0.23323000  0.90727000  1
  H  H47  1  0.98897000  0.15125000  0.83222000  1
  H  H48  1  0.35957000  0.37524000  0.34464000  1
  H  H49  1  0.31197000  0.30041000  0.42674000  1
  H  H50  1  0.43399000  0.29007000  0.52660000  1
  H  H51  1  0.48133000  0.36395000  0.44321000  1
  H  H52  1  0.25611000  0.14598000  0.55831000  1
  H  H53  1  0.29458000  0.22713000  0.47988000  1
  H  H54  1  0.39615000  0.23322000  0.59263000  1
  H  H55  1  0.36001000  0.15112000  0.66771000  1
  H  H56  1  0.42018000  0.87639000  0.84551000  1
  H  H57  1  0.46048000  0.80096000  0.92759000  1
  H  H58  1  0.24906000  0.79086000  0.02653000  1
  H  H59  1  0.21148000  0.86502000  0.94298000  1
  H  H60  1  0.53976000  0.64459000  0.05761000  1
  H  H61  1  0.49861000  0.72592000  0.97910000  1
  H  H62  1  0.27782000  0.73363000  0.09258000  1
  H  H63  1  0.32068000  0.65187000  0.16814000  1
  H  H64  1  0.20367000  0.87609000  0.65455000  1
  H  H65  1  0.23856000  0.80098000  0.57233000  1
  H  H66  1  0.46011000  0.79076000  0.47337000  1
  H  H67  1  0.42374000  0.86476000  0.55702000  1
  H  H68  1  0.31560000  0.64447000  0.44237000  1
  H  H69  1  0.27536000  0.72592000  0.52082000  1
  H  H70  1  0.48847000  0.73367000  0.40739000  1
  H  H71  1  0.52738000  0.65185000  0.33187000  1
  H  H72  1  0.57977000  0.12368000  0.15453000  1
  H  H73  1  0.53951000  0.19904000  0.07240000  1
  H  H74  1  0.75090000  0.20918000  0.97347000  1
  H  H75  1  0.78848000  0.13502000  0.05705000  1
  H  H76  1  0.46023000  0.35543000  0.94240000  1
  H  H77  1  0.50140000  0.27405000  0.02090000  1
  H  H78  1  0.72218000  0.26633000  0.90742000  1
  H  H79  1  0.67932000  0.34813000  0.83188000  1
  H  H80  1  0.79641000  0.12370000  0.34550000  1
  H  H81  1  0.76146000  0.19895000  0.42764000  1
  H  H82  1  0.53988000  0.20915000  0.52655000  1
  H  H83  1  0.57637000  0.13502000  0.44298000  1
  H  H84  1  0.68436000  0.35550000  0.55759000  1
  H  H85  1  0.72460000  0.27407000  0.47913000  1
  H  H86  1  0.51152000  0.26626000  0.59259000  1
  H  H87  1  0.47262000  0.34807000  0.66811000  1
  H  H88  1  0.23498000  0.62462000  0.84464000  1
  H  H89  1  0.11262000  0.69954000  0.92652000  1
  H  H90  1  0.22400000  0.70996000  0.02666000  1
  H  H91  1  0.34517000  0.63608000  0.94344000  1
  H  H92  1  0.90229000  0.85381000  0.05813000  1
  H  H93  1  0.02182000  0.77276000  0.97976000  1
  H  H94  1  0.12927000  0.76677000  0.09269000  1
  H  H95  1  0.01107000  0.84873000  0.16775000  1
  H  H96  1  0.64050000  0.62467000  0.65535000  1
  H  H97  1  0.68796000  0.69962000  0.57332000  1
  H  H98  1  0.56589000  0.70995000  0.47352000  1
  H  H99  1  0.51862000  0.63602000  0.55687000  1
  H  H100  1  0.74391000  0.85397000  0.44171000  1
  H  H101  1  0.70542000  0.77283000  0.52015000  1
  H  H102  1  0.60379000  0.76678000  0.40742000  1
  H  H103  1  0.64005000  0.84881000  0.33228000  1
  H  H104  1  0.28468000  0.57268000  0.12172000  1
  H  H105  1  0.32183000  0.49773000  0.03737000  1
  H  H106  1  0.09261000  0.58708000  0.06782000  1
  H  H107  1  0.05631000  0.66071000  0.15314000  1
  H  H108  1  0.17065000  0.39677000  0.96896000  1
  H  H109  1  0.12908000  0.47952000  0.04830000  1
  H  H110  1  0.34180000  0.48688000  0.93729000  1
  H  H111  1  0.38124000  0.40612000  0.85897000  1
  H  H112  1  0.09303000  0.92867000  0.12186000  1
  H  H113  1  0.14004000  0.00396000  0.03802000  1
  H  H114  1  0.33843000  0.91426000  0.06913000  1
  H  H115  1  0.28996000  0.83991000  0.15348000  1
  H  H116  1  0.36283000  0.10164000  0.96758000  1
  H  H117  1  0.32402000  0.01988000  0.04765000  1
  H  H118  1  0.22115000  0.01315000  0.93717000  1
  H  H119  1  0.26095000  0.09313000  0.85811000  1
  H  H120  1  0.35726000  0.42730000  0.62169000  1
  H  H121  1  0.31948000  0.50234000  0.53731000  1
  H  H122  1  0.17949000  0.41297000  0.56783000  1
  H  H123  1  0.21680000  0.33928000  0.65321000  1
  H  H124  1  0.06734000  0.60325000  0.46915000  1
  H  H125  1  0.10862000  0.52033000  0.54842000  1
  H  H126  1  0.32861000  0.51314000  0.43728000  1
  H  H127  1  0.28713000  0.59414000  0.35912000  1
  H  H128  1  0.52174000  0.07122000  0.62177000  1
  H  H129  1  0.64396000  0.99600000  0.53799000  1
  H  H130  1  0.75256000  0.08586000  0.56925000  1
  H  H131  1  0.62980000  0.16016000  0.65350000  1
  H  H132  1  0.96427000  0.89855000  0.46766000  1
  H  H133  1  0.84378000  0.98025000  0.54768000  1
  H  H134  1  0.73435000  0.98688000  0.43707000  1
  H  H135  1  0.85406000  0.90696000  0.35807000  1
  C  C136  1  0.68175000  0.57497000  0.39049000  1
  C  C137  1  0.70257000  0.53362000  0.43787000  1
  C  C138  1  0.75425000  0.53598000  0.45300000  1
  C  C139  1  0.78283000  0.58271000  0.41959000  1
  C  C140  1  0.76182000  0.62436000  0.37229000  1
  C  C141  1  0.71115000  0.62076000  0.35734000  1
  C  C142  1  0.87556000  0.41773000  0.53715000  1
  C  C143  1  0.85203000  0.46435000  0.49353000  1
  C  C144  1  0.77824000  0.48963000  0.50099000  1
  C  C145  1  0.72871000  0.46751000  0.55494000  1
  C  C146  1  0.75164000  0.42201000  0.59942000  1
  C  C147  1  0.82559000  0.39588000  0.59021000  1
  C  C148  1  0.68662000  0.66664000  0.30814000  1
  C  C149  1  0.85084000  0.34404000  0.63590000  1
  C  C150  1  0.42721000  0.92619000  0.39040000  1
  C  C151  1  0.35893000  0.96764000  0.43751000  1
  C  C152  1  0.29241000  0.96489000  0.45260000  1
  C  C153  1  0.29749000  0.91822000  0.41886000  1
  C  C154  1  0.36586000  0.87638000  0.37198000  1
  C  C155  1  0.43131000  0.87999000  0.35735000  1
  C  C156  1  0.08667000  0.08095000  0.53817000  1
  C  C157  1  0.15386000  0.03495000  0.49418000  1
  C  C158  1  0.22040000  0.01041000  0.50113000  1
  C  C159  1  0.21590000  0.03225000  0.55538000  1
  C  C160  1  0.14847000  0.07713000  0.60028000  1
  C  C161  1  0.08369000  0.10299000  0.59114000  1
  C  C162  1  0.50491000  0.83400000  0.30823000  1
  C  C163  1  0.01276000  0.15498000  0.63644000  1
  C  C164  1  0.75669000  0.42507000  0.89045000  1
  C  C165  1  0.73623000  0.46635000  0.93788000  1
  C  C166  1  0.79023000  0.46402000  0.95302000  1
  C  C167  1  0.86548000  0.41730000  0.91959000  1
  C  C168  1  0.88607000  0.37573000  0.87223000  1
  C  C169  1  0.83184000  0.37929000  0.85725000  1
  C  C170  1  0.79334000  0.58226000  0.03720000  1
  C  C171  1  0.81644000  0.53561000  0.99362000  1
  C  C172  1  0.76791000  0.51034000  0.00103000  1
  C  C173  1  0.69626000  0.53246000  0.05496000  1
  C  C174  1  0.67369000  0.57798000  0.09943000  1
  C  C175  1  0.72154000  0.60409000  0.09026000  1
  C  C176  1  0.85331000  0.33331000  0.80804000  1
  C  C177  1  0.69518000  0.65581000  0.13599000  1
  C  C178  1  0.85338000  0.07389000  0.89032000  1
  C  C179  1  0.82655000  0.03243000  0.93745000  1
  C  C180  1  0.75730000  0.03511000  0.95259000  1
  C  C181  1  0.71572000  0.08176000  0.91887000  1
  C  C182  1  0.74224000  0.12362000  0.87196000  1
  C  C183  1  0.81131000  0.12002000  0.85726000  1
  C  C184  1  0.66760000  0.91896000  0.03831000  1
  C  C185  1  0.68881000  0.96498000  0.99427000  1
  C  C186  1  0.73085000  0.98954000  0.00116000  1
  C  C187  1  0.74828000  0.96771000  0.05534000  1
  C  C188  1  0.72570000  0.92283000  0.10028000  1
  C  C189  1  0.68668000  0.89696000  0.09127000  1
  C  C190  1  0.83894000  0.16599000  0.80808000  1
  C  C191  1  0.66772000  0.84501000  0.13672000  1
  C  C192  1  0.76895000  0.35530000  0.11537000  1
  C  C193  1  0.83724000  0.31297000  0.06926000  1
  C  C194  1  0.84215000  0.28606000  0.01773000  1
  C  C195  1  0.77476000  0.30690000  0.01351000  1
  C  C196  1  0.70635000  0.34895000  0.05966000  1
  C  C197  1  0.70266000  0.37304000  0.11153000  1
  C  C198  1  0.04707000  0.16536000  0.93576000  1
  C  C199  1  0.97972000  0.21158000  0.97911000  1
  C  C200  1  0.91346000  0.23773000  0.97113000  1
  C  C201  1  0.91899000  0.21466000  0.91683000  1
  C  C202  1  0.98608000  0.16807000  0.87356000  1
  C  C203  1  0.05061000  0.14260000  0.88291000  1
  C  C204  1  0.62929000  0.41765000  0.16172000  1
  C  C205  1  0.12181000  0.09165000  0.83691000  1
  C  C206  1  0.37575000  0.35520000  0.38457000  1
  C  C207  1  0.34970000  0.31294000  0.43079000  1
  C  C208  1  0.37178000  0.28605000  0.48227000  1
  C  C209  1  0.41834000  0.30695000  0.48642000  1
  C  C210  1  0.44477000  0.34895000  0.44019000  1
  C  C211  1  0.42441000  0.37289000  0.38830000  1
  C  C212  1  0.28760000  0.16523000  0.56433000  1
  C  C213  1  0.30871000  0.21150000  0.52098000  1
  C  C214  1  0.34884000  0.23768000  0.52891000  1
  C  C215  1  0.36646000  0.21461000  0.58316000  1
  C  C216  1  0.34599000  0.16796000  0.62643000  1
  C  C217  1  0.30685000  0.14250000  0.61715000  1
  C  C218  1  0.45328000  0.41740000  0.33799000  1
  C  C219  1  0.28655000  0.09156000  0.66318000  1
  C  C220  1  0.38432000  0.85600000  0.88509000  1
  C  C221  1  0.40631000  0.81350000  0.93132000  1
  C  C222  1  0.35969000  0.78640000  0.98240000  1
  C  C223  1  0.28805000  0.80766000  0.98647000  1
  C  C224  1  0.26606000  0.84975000  0.94012000  1
  C  C225  1  0.31450000  0.87352000  0.88837000  1
  C  C226  1  0.48286000  0.66443000  0.06385000  1
  C  C227  1  0.45891000  0.71076000  0.02047000  1
  C  C228  1  0.38449000  0.73754000  0.02877000  1
  C  C229  1  0.33557000  0.71483000  0.08314000  1
  C  C230  1  0.35927000  0.66830000  0.12662000  1
  C  C231  1  0.43324000  0.64241000  0.11708000  1
  C  C232  1  0.29183000  0.91780000  0.83778000  1
  C  C233  1  0.45889000  0.59172000  0.16308000  1
  C  C234  1  0.25989000  0.85577000  0.61496000  1
  C  C235  1  0.28023000  0.81345000  0.56863000  1
  C  C236  1  0.35389000  0.78640000  0.51751000  1
  C  C237  1  0.40435000  0.80757000  0.51346000  1
  C  C238  1  0.38440000  0.84952000  0.55987000  1
  C  C239  1  0.31227000  0.87319000  0.61170000  1
  C  C240  1  0.35263000  0.66437000  0.43614000  1
  C  C241  1  0.33025000  0.71074000  0.47948000  1
  C  C242  1  0.37791000  0.73754000  0.47116000  1
  C  C243  1  0.44955000  0.71481000  0.41682000  1
  C  C244  1  0.47235000  0.66826000  0.37337000  1
  C  C245  1  0.42426000  0.64234000  0.38293000  1
  C  C246  1  0.29082000  0.91739000  0.66231000  1
  C  C247  1  0.44929000  0.59165000  0.33691000  1
  C  C248  1  0.61563000  0.14405000  0.11494000  1
  C  C249  1  0.59366000  0.18653000  0.06869000  1
  C  C250  1  0.64031000  0.21357000  0.01758000  1
  C  C251  1  0.71192000  0.19237000  0.01354000  1
  C  C252  1  0.73390000  0.15029000  0.05991000  1
  C  C253  1  0.68544000  0.12655000  0.11167000  1
  C  C254  1  0.51714000  0.33556000  0.93615000  1
  C  C255  1  0.54107000  0.28925000  0.97953000  1
  C  C256  1  0.61550000  0.26245000  0.97123000  1
  C  C257  1  0.66443000  0.28516000  0.91688000  1
  C  C258  1  0.64074000  0.33168000  0.87339000  1
  C  C259  1  0.56676000  0.35759000  0.88294000  1
  C  C260  1  0.70812000  0.08228000  0.16227000  1
  C  C261  1  0.54113000  0.40827000  0.83695000  1
  C  C262  1  0.74019000  0.14406000  0.38507000  1
  C  C263  1  0.71978000  0.18648000  0.43135000  1
  C  C264  1  0.64610000  0.21355000  0.48244000  1
  C  C265  1  0.59566000  0.19235000  0.48648000  1
  C  C266  1  0.61569000  0.15030000  0.44010000  1
  C  C267  1  0.68786000  0.12657000  0.38833000  1
  C  C268  1  0.64733000  0.33560000  0.56382000  1
  C  C269  1  0.66971000  0.28924000  0.52047000  1
  C  C270  1  0.62207000  0.26242000  0.52878000  1
  C  C271  1  0.55044000  0.28512000  0.58314000  1
  C  C272  1  0.52764000  0.33166000  0.62660000  1
  C  C273  1  0.57571000  0.35761000  0.61704000  1
  C  C274  1  0.70947000  0.08227000  0.33772000  1
  C  C275  1  0.55071000  0.40827000  0.66308000  1
  C  C276  1  0.23107000  0.64470000  0.88459000  1
  C  C277  1  0.16279000  0.68701000  0.93072000  1
  C  C278  1  0.15788000  0.71392000  0.98225000  1
  C  C279  1  0.22529000  0.69306000  0.98646000  1
  C  C280  1  0.29370000  0.65102000  0.94029000  1
  C  C281  1  0.29737000  0.62693000  0.88843000  1
  C  C282  1  0.95296000  0.83462000  0.06421000  1
  C  C283  1  0.02030000  0.78839000  0.02087000  1
  C  C284  1  0.08658000  0.76226000  0.02883000  1
  C  C285  1  0.08106000  0.78531000  0.08314000  1
  C  C286  1  0.01397000  0.83191000  0.12641000  1
  C  C287  1  0.94943000  0.85739000  0.11706000  1
  C  C288  1  0.37073000  0.58228000  0.83828000  1
  C  C289  1  0.87824000  0.90832000  0.16308000  1
  C  C290  1  0.62427000  0.64476000  0.61545000  1
  C  C291  1  0.65025000  0.68706000  0.56926000  1
  C  C292  1  0.62816000  0.71395000  0.51778000  1
  C  C293  1  0.58156000  0.69306000  0.51368000  1
  C  C294  1  0.55519000  0.65102000  0.55990000  1
  C  C295  1  0.57564000  0.62701000  0.61174000  1
  C  C296  1  0.71241000  0.83472000  0.43569000  1
  C  C297  1  0.69128000  0.78847000  0.47906000  1
  C  C298  1  0.65109000  0.76233000  0.47116000  1
  C  C299  1  0.63349000  0.78538000  0.41689000  1
  C  C300  1  0.65402000  0.83198000  0.37360000  1
  C  C301  1  0.69314000  0.85747000  0.38287000  1
  C  C302  1  0.54687000  0.58243000  0.66199000  1
  C  C303  1  0.71345000  0.90837000  0.33679000  1
  C  C304  1  0.24331000  0.57495000  0.10959000  1
  C  C305  1  0.26381000  0.53365000  0.06216000  1
  C  C306  1  0.20983000  0.53594000  0.04699000  1
  C  C307  1  0.13458000  0.58268000  0.08040000  1
  C  C308  1  0.11396000  0.62426000  0.12776000  1
  C  C309  1  0.16816000  0.62073000  0.14277000  1
  C  C310  1  0.20676000  0.41771000  0.96271000  1
  C  C311  1  0.18367000  0.46433000  0.00634000  1
  C  C312  1  0.23218000  0.48960000  0.99897000  1
  C  C313  1  0.30378000  0.46756000  0.94499000  1
  C  C314  1  0.32634000  0.42209000  0.90046000  1
  C  C315  1  0.27853000  0.39595000  0.90959000  1
  C  C316  1  0.14666000  0.66668000  0.19203000  1
  C  C317  1  0.30498000  0.34419000  0.86382000  1
  C  C318  1  0.14661000  0.92614000  0.10969000  1
  C  C319  1  0.17344000  0.96760000  0.06254000  1
  C  C320  1  0.24268000  0.96494000  0.04741000  1
  C  C321  1  0.28429000  0.91826000  0.08111000  1
  C  C322  1  0.25776000  0.87642000  0.12802000  1
  C  C323  1  0.18870000  0.88000000  0.14273000  1
  C  C324  1  0.33237000  0.08109000  0.96172000  1
  C  C325  1  0.31119000  0.03506000  0.00574000  1
  C  C326  1  0.26913000  0.01051000  0.99886000  1
  C  C327  1  0.25174000  0.03232000  0.94465000  1
  C  C328  1  0.27430000  0.07721000  0.89973000  1
  C  C329  1  0.31329000  0.10310000  0.90877000  1
  C  C330  1  0.16110000  0.83401000  0.19190000  1
  C  C331  1  0.33228000  0.15503000  0.86331000  1
  C  C332  1  0.31817000  0.42507000  0.60952000  1
  C  C333  1  0.29736000  0.46640000  0.56212000  1
  C  C334  1  0.24570000  0.46403000  0.54698000  1
  C  C335  1  0.21707000  0.41733000  0.58042000  1
  C  C336  1  0.23804000  0.37572000  0.62775000  1
  C  C337  1  0.28875000  0.37928000  0.64266000  1
  C  C338  1  0.12438000  0.58228000  0.46289000  1
  C  C339  1  0.14794000  0.53562000  0.50647000  1
  C  C340  1  0.22174000  0.51035000  0.49898000  1
  C  C341  1  0.27127000  0.53248000  0.44505000  1
  C  C342  1  0.24831000  0.57802000  0.40060000  1
  C  C343  1  0.17436000  0.60413000  0.40984000  1
  C  C344  1  0.31342000  0.33325000  0.69171000  1
  C  C345  1  0.14907000  0.65597000  0.36418000  1
  C  C346  1  0.57275000  0.07383000  0.60961000  1
  C  C347  1  0.64104000  0.03236000  0.56251000  1
  C  C348  1  0.70756000  0.03514000  0.54739000  1
  C  C349  1  0.70246000  0.08180000  0.58117000  1
  C  C350  1  0.63409000  0.12365000  0.62802000  1
  C  C351  1  0.56866000  0.12001000  0.64266000  1
  C  C352  1  0.91331000  0.91909000  0.46174000  1
  C  C353  1  0.84612000  0.96507000  0.50577000  1
  C  C354  1  0.77957000  0.98962000  0.49884000  1
  C  C355  1  0.78404000  0.96776000  0.44462000  1
  C  C356  1  0.85147000  0.92290000  0.39970000  1
  C  C357  1  0.91630000  0.89706000  0.40876000  1
  C  C358  1  0.49506000  0.16597000  0.69180000  1
  C  C359  1  0.98719000  0.84509000  0.36339000  1
  O  O360  1  0.62862000  0.67308000  0.30606000  1
  O  O361  1  0.72211000  0.69953000  0.26978000  1
  O  O362  1  0.91173000  0.32928000  0.63722000  1
  O  O363  1  0.81049000  0.31433000  0.67341000  1
  O  O364  1  0.56498000  0.82858000  0.30520000  1
  O  O365  1  0.50757000  0.80000000  0.27093000  1
  O  O366  1  0.95082000  0.16911000  0.63762000  1
  O  O367  1  0.01542000  0.18546000  0.67350000  1
  O  O368  1  0.80180000  0.32669000  0.80604000  1
  O  O369  1  0.92165000  0.30061000  0.76959000  1
  O  O370  1  0.74140000  0.67055000  0.13716000  1
  O  O371  1  0.62517000  0.68549000  0.17366000  1
  O  O372  1  0.89353000  0.17146000  0.80511000  1
  O  O373  1  0.80767000  0.19991000  0.77072000  1
  O  O374  1  0.61959000  0.83100000  0.13834000  1
  O  O375  1  0.70115000  0.81444000  0.17352000  1
  O  O376  1  0.62798000  0.44636000  0.20288000  1
  O  O377  1  0.56924000  0.42653000  0.16239000  1
  O  O378  1  0.18378000  0.08202000  0.83280000  1
  O  O379  1  0.12002000  0.05850000  0.80202000  1
  O  O380  1  0.42610000  0.44581000  0.29667000  1
  O  O381  1  0.50421000  0.42656000  0.33746000  1
  O  O382  1  0.23423000  0.08186000  0.66731000  1
  O  O383  1  0.32146000  0.05843000  0.69809000  1
  O  O384  1  0.33021000  0.94826000  0.79836000  1
  O  O385  1  0.23408000  0.92498000  0.83513000  1
  O  O386  1  0.51923000  0.57972000  0.16394000  1
  O  O387  1  0.42020000  0.56108000  0.20112000  1
  O  O388  1  0.22197000  0.94806000  0.70163000  1
  O  O389  1  0.34149000  0.92432000  0.66501000  1
  O  O390  1  0.40096000  0.57967000  0.33599000  1
  O  O391  1  0.51860000  0.56105000  0.29886000  1
  O  O392  1  0.66986000  0.05169000  0.20160000  1
  O  O393  1  0.76582000  0.07518000  0.16495000  1
  O  O394  1  0.48078000  0.42029000  0.83608000  1
  O  O395  1  0.57983000  0.43889000  0.79889000  1
  O  O396  1  0.77829000  0.05192000  0.29824000  1
  O  O397  1  0.65894000  0.07496000  0.33516000  1
  O  O398  1  0.59903000  0.42025000  0.66400000  1
  O  O399  1  0.48140000  0.43889000  0.70111000  1
  O  O400  1  0.37206000  0.55337000  0.79726000  1
  O  O401  1  0.43078000  0.57354000  0.83751000  1
  O  O402  1  0.81625000  0.91797000  0.16720000  1
  O  O403  1  0.88005000  0.94147000  0.19794000  1
  O  O404  1  0.57429000  0.55375000  0.70312000  1
  O  O405  1  0.49571000  0.57350000  0.66268000  1
  O  O406  1  0.76581000  0.91808000  0.33257000  1
  O  O407  1  0.67853000  0.94145000  0.30190000  1
  O  O408  1  0.19815000  0.67325000  0.19412000  1
  O  O409  1  0.07830000  0.69942000  0.23042000  1
  O  O410  1  0.25890000  0.32907000  0.86290000  1
  O  O411  1  0.37494000  0.31480000  0.82593000  1
  O  O412  1  0.10652000  0.82851000  0.19488000  1
  O  O413  1  0.19238000  0.80011000  0.22926000  1
  O  O414  1  0.38029000  0.16912000  0.86183000  1
  O  O415  1  0.29897000  0.18552000  0.82641000  1
  O  O416  1  0.37177000  0.32648000  0.69337000  1
  O  O417  1  0.27778000  0.30056000  0.73033000  1
  O  O418  1  0.08828000  0.67057000  0.36276000  1
  O  O419  1  0.18930000  0.68581000  0.32681000  1
  O  O420  1  0.43501000  0.17138000  0.69481000  1
  O  O421  1  0.49239000  0.20000000  0.72908000  1
  O  O422  1  0.04922000  0.83102000  0.36202000  1
  O  O423  1  0.98445000  0.81453000  0.32648000  1
