# generated using pymatgen
data_H21C22(NO)2
_symmetry_space_group_name_H-M   'P 1'
_cell_length_a   31.03885000
_cell_length_b   31.03880000
_cell_length_c   34.38010000
_cell_angle_alpha   90.00000000
_cell_angle_beta   90.00000000
_cell_angle_gamma   119.99984014
_symmetry_Int_Tables_number   1
_chemical_formula_structural   H21C22(NO)2
_chemical_formula_sum   'H126 C132 N12 O12'
_cell_volume   28684.61409391
_cell_formula_units_Z   6
loop_
 _symmetry_equiv_pos_site_id
 _symmetry_equiv_pos_as_xyz
  1  'x, y, z'
loop_
 _atom_site_type_symbol
 _atom_site_label
 _atom_site_symmetry_multiplicity
 _atom_site_fract_x
 _atom_site_fract_y
 _atom_site_fract_z
 _atom_site_occupancy
  H  7  1  0.49939900  0.52632600  0.94332700  1
  H  16  1  0.55810200  0.55138100  0.04515500  1
  H  19  1  0.42265100  0.45877200  0.06728100  1
  H  20  1  0.43372900  0.39568800  0.98734800  1
  H  21  1  0.36072200  0.54958100  0.96008000  1
  H  22  1  0.64141300  0.46348100  0.01117300  1
  H  24  1  0.65075200  0.56518900  0.04969600  1
  H  26  1  0.53216500  0.36261500  0.99809900  1
  H  28  1  0.38580200  0.56660300  0.05272900  1
  H  30  1  0.43623200  0.54307500  0.89848900  1
  H  37  1  0.98428100  0.46898100  0.27298400  1
  H  46  1  0.95678000  0.40908400  0.37391200  1
  H  49  1  0.99674700  0.54430700  0.39831000  1
  H  50  1  0.91652400  0.52968500  0.32096800  1
  H  51  1  0.15748100  0.56053000  0.30768800  1
  H  52  1  0.78496900  0.31959000  0.34217300  1
  H  54  1  0.88244000  0.31527300  0.37707600  1
  H  56  1  0.78742400  0.42727000  0.33261200  1
  H  58  1  0.14049900  0.58153800  0.38084600  1
  H  60  1  0.06305900  0.53293000  0.22699900  1
  H  67  1  0.44115300  0.97714600  0.60687200  1
  H  76  1  0.41887900  0.01338700  0.70964700  1
  H  79  1  0.50956800  0.96951300  0.73082000  1
  H  80  1  0.57163100  0.04110700  0.64886100  1
  H  81  1  0.41714100  0.81512700  0.62545500  1
  H  82  1  0.50942800  0.18478300  0.67612400  1
  H  84  1  0.40819800  0.09484400  0.71591000  1
  H  86  1  0.60848000  0.17252000  0.66101100  1
  H  88  1  0.40086000  0.82486800  0.71792100  1
  H  90  1  0.42342500  0.89642500  0.56286400  1
  H  97  1  0.51589000  0.13547600  0.82065500  1
  H  104  1  0.45055900  0.22843900  0.90763300  1
  H  105  1  0.47727000  0.29675700  0.95103600  1
  H  106  1  0.59288500  0.38803400  0.87413900  1
  H  107  1  0.40055200  0.15364400  0.77420000  1
  H  109  1  0.38872800  0.22074400  0.79068000  1
  H  110  1  0.44464600  0.27526000  0.80274800  1
  H  111  1  0.40310500  0.23767700  0.83993800  1
  H  112  1  0.54275900  0.20806200  0.85972000  1
  H  114  1  0.54832900  0.31356800  0.79276800  1
  H  115  1  0.58993600  0.29765000  0.81537200  1
  H  116  1  0.60442500  0.36025200  0.81338500  1
  H  118  1  0.39961400  0.06610000  0.77710400  1
  H  119  1  0.45976300  0.07426700  0.77655400  1
  H  121  1  0.55594600  0.42274200  0.92575900  1
  H  122  1  0.59535300  0.40576600  0.95031100  1
  H  129  1  0.58284400  0.45741500  0.15495400  1
  H  136  1  0.73845500  0.51337000  0.24153300  1
  H  137  1  0.77815800  0.48465500  0.28506400  1
  H  138  1  0.75012600  0.36777400  0.20829600  1
  H  139  1  0.71942900  0.56646000  0.10786000  1
  H  141  1  0.79619200  0.57281100  0.12402000  1
  H  142  1  0.79087500  0.51514700  0.13619000  1
  H  143  1  0.79775300  0.55793200  0.17330500  1
  H  144  1  0.62494300  0.42601500  0.19368600  1
  H  146  1  0.72241500  0.41385300  0.12687100  1
  H  147  1  0.66429600  0.37413400  0.14946500  1
  H  148  1  0.71054600  0.35701800  0.14770900  1
  H  150  1  0.63761900  0.57499500  0.11224900  1
  H  151  1  0.58237500  0.51739900  0.11196100  1
  H  153  1  0.82260000  0.40391600  0.25947400  1
  H  154  1  0.76624600  0.36520700  0.28429600  1
  H  161  1  0.84238000  0.37936700  0.48513300  1
  H  168  1  0.74037800  0.22171400  0.56889400  1
  H  169  1  0.67233100  0.18155800  0.61266900  1
  H  170  1  0.58454700  0.21519700  0.53925400  1
  H  171  1  0.81040200  0.24300000  0.43474900  1
  H  173  1  0.73875100  0.16686600  0.44997900  1
  H  174  1  0.68753300  0.17348200  0.46344000  1
  H  175  1  0.72305700  0.16426800  0.49954500  1
  H  176  1  0.76891000  0.33779000  0.52402200  1
  H  178  1  0.65718900  0.24444300  0.45700900  1
  H  179  1  0.67709000  0.30193600  0.48116900  1
  H  180  1  0.61334100  0.25679200  0.47935900  1
  H  182  1  0.90168200  0.32231200  0.44023800  1
  H  183  1  0.90203100  0.37891400  0.44131100  1
  H  185  1  0.54729000  0.14095400  0.58902700  1
  H  186  1  0.56685900  0.19688400  0.61509200  1
  H  193  1  0.41477600  0.79651200  0.77747900  1
  H  200  1  0.52576100  0.76634800  0.86761200  1
  H  201  1  0.53160300  0.71188300  0.91360000  1
  H  202  1  0.45485300  0.59125300  0.83698400  1
  H  203  1  0.54342600  0.81670800  0.72007600  1
  H  205  1  0.59016600  0.78067600  0.74163200  1
  H  206  1  0.55193500  0.72049400  0.76057700  1
  H  207  1  0.58656100  0.77137100  0.79238900  1
  H  208  1  0.42016600  0.74086800  0.82219200  1
  H  210  1  0.46124900  0.65547400  0.75417700  1
  H  211  1  0.40553900  0.64471700  0.77714800  1
  H  212  1  0.42210000  0.59802700  0.77702400  1
  H  214  1  0.47255700  0.82636200  0.68539700  1
  H  215  1  0.51110600  0.87919800  0.71399300  1
  H  217  1  0.51931400  0.63362600  0.93314900  1
  H  218  1  0.52095000  0.59829800  0.89372600  1
  H  225  1  0.34224900  0.55322800  0.11146700  1
  H  232  1  0.19754000  0.44245100  0.19925300  1
  H  233  1  0.13561700  0.43664100  0.24350200  1
  H  234  1  0.09597000  0.51523900  0.16521000  1
  H  235  1  0.23512800  0.42425800  0.05357300  1
  H  237  1  0.15163100  0.37820900  0.07353200  1
  H  238  1  0.12952600  0.41693700  0.09111200  1
  H  239  1  0.14434300  0.38222200  0.12402600  1
  H  240  1  0.28001800  0.54857500  0.15452400  1
  H  242  1  0.15634900  0.50845600  0.08406400  1
  H  243  1  0.20079700  0.56396700  0.10758400  1
  H  244  1  0.13771300  0.54791200  0.10591400  1
  H  246  1  0.31645200  0.49419600  0.01975700  1
  H  247  1  0.33027100  0.45632400  0.04963500  1
  H  249  1  0.06880200  0.44857000  0.26066900  1
  H  250  1  0.03417400  0.44896400  0.22032000  1
  H  257  1  0.17053400  0.62402500  0.44011600  1
  H  264  1  0.20076900  0.76355200  0.53121800  1
  H  265  1  0.25495500  0.82302400  0.57779400  1
  H  266  1  0.37585400  0.86892000  0.50112800  1
  H  267  1  0.15010500  0.73301400  0.38386800  1
  H  269  1  0.18635100  0.81561300  0.40589300  1
  H  270  1  0.24663600  0.83743200  0.42457200  1
  H  271  1  0.19590600  0.82078200  0.45663100  1
  H  272  1  0.22660000  0.68467800  0.48482800  1
  H  274  1  0.31197500  0.81260800  0.41781800  1
  H  275  1  0.32287900  0.76734800  0.44004600  1
  H  276  1  0.36939700  0.83065900  0.44060400  1
  H  278  1  0.13959000  0.65200500  0.34866500  1
  H  279  1  0.08728600  0.63856600  0.37769000  1
  H  281  1  0.33295500  0.88902300  0.59777100  1
  H  282  1  0.36851700  0.92663400  0.55868400  1
  C  1  1  0.47671600  0.50916900  0.00207500  1
  C  2  1  0.47660600  0.52726300  0.96444200  1
  C  3  1  0.44743300  0.54922600  0.95589200  1
  C  4  1  0.41586800  0.55064200  0.98481300  1
  C  5  1  0.41500400  0.53202700  0.02263900  1
  C  6  1  0.44591400  0.51184600  0.03126300  1
  C  9  1  0.50903400  0.49033000  0.00999800  1
  C  10  1  0.50117700  0.44539800  0.99302500  1
  C  11  1  0.53633200  0.42960100  0.99833300  1
  C  12  1  0.57911100  0.45841100  0.02144700  1
  C  13  1  0.58637000  0.50247000  0.03946300  1
  C  14  1  0.55163100  0.51845600  0.03316900  1
  C  31  1  0.99139300  0.49095500  0.33203300  1
  C  32  1  0.00849500  0.49184000  0.29384200  1
  C  33  1  0.05932500  0.52145000  0.28443600  1
  C  34  1  0.09314600  0.55218700  0.31323400  1
  C  35  1  0.07632200  0.55316100  0.35139000  1
  C  36  1  0.02558900  0.52173900  0.36085800  1
  C  39  1  0.94088400  0.45711600  0.34097700  1
  C  40  1  0.90197300  0.46304400  0.32532600  1
  C  41  1  0.85176500  0.42590200  0.33104100  1
  C  42  1  0.84036500  0.38294700  0.35311500  1
  C  43  1  0.87899900  0.37748900  0.36974400  1
  C  44  1  0.92896500  0.41434200  0.36316400  1
  C  61  1  0.45871700  0.97249300  0.66566200  1
  C  62  1  0.44024900  0.95370200  0.62822100  1
  C  63  1  0.41787100  0.90238400  0.62022300  1
  C  64  1  0.41650200  0.86979600  0.64948400  1
  C  65  1  0.43549700  0.88812100  0.68711900  1
  C  66  1  0.45606300  0.93939700  0.69519000  1
  C  69  1  0.47826700  0.02390300  0.67303200  1
  C  70  1  0.52309600  0.06029500  0.65543500  1
  C  71  1  0.54021700  0.11148900  0.66098500  1
  C  72  1  0.51289400  0.12638600  0.68498700  1
  C  73  1  0.46892700  0.09026500  0.70354100  1
  C  74  1  0.45153400  0.03930900  0.69697000  1
  C  91  1  0.45561700  0.13803000  0.79377300  1
  C  92  1  0.43064100  0.16558300  0.79223800  1
  C  93  1  0.44617000  0.20898700  0.81491900  1
  C  94  1  0.48793500  0.22489700  0.83997200  1
  C  95  1  0.51281400  0.19729500  0.84168400  1
  C  96  1  0.49698600  0.15455900  0.81877300  1
  C  98  1  0.50541100  0.26736100  0.86436700  1
  C  99  1  0.48062300  0.26192600  0.90002900  1
  C  100  1  0.49654500  0.30224500  0.92570400  1
  C  101  1  0.53818900  0.34903700  0.91677600  1
  C  102  1  0.56289000  0.35417400  0.88102500  1
  C  103  1  0.54720600  0.31416700  0.85450400  1
  C  108  1  0.41903700  0.23708000  0.81179800  1
  C  113  1  0.57408800  0.32203200  0.81698100  1
  C  117  1  0.43833800  0.09258900  0.76966200  1
  C  120  1  0.55662100  0.39325800  0.94277100  1
  C  123  1  0.64754600  0.51490400  0.12777800  1
  C  124  1  0.69982000  0.53658700  0.12584700  1
  C  125  1  0.72555000  0.51845600  0.14840700  1
  C  126  1  0.69773700  0.47728700  0.17361600  1
  C  127  1  0.64547000  0.45541800  0.17547500  1
  C  128  1  0.62069700  0.47389200  0.15276100  1
  C  130  1  0.72075000  0.45799800  0.19836000  1
  C  131  1  0.74052100  0.48250100  0.23405200  1
  C  132  1  0.76381900  0.46542000  0.25979400  1
  C  133  1  0.76751300  0.42293600  0.25087300  1
  C  134  1  0.74730900  0.39837500  0.21518100  1
  C  135  1  0.72401600  0.41518200  0.18861300  1
  C  140  1  0.78063100  0.54254800  0.14520100  1
  C  145  1  0.70428800  0.38843800  0.15113800  1
  C  149  1  0.62194700  0.53576600  0.10447700  1
  C  152  1  0.79284900  0.40380400  0.27667500  1
  C  155  1  0.83289400  0.31472500  0.45628800  1
  C  156  1  0.80102700  0.26271000  0.45340800  1
  C  157  1  0.75722700  0.23730200  0.47605800  1
  C  158  1  0.74520800  0.26519700  0.50230300  1
  C  159  1  0.77680300  0.31724600  0.50502500  1
  C  160  1  0.82001600  0.34170900  0.48222400  1
  C  162  1  0.70321800  0.24230300  0.52736100  1
  C  163  1  0.70776000  0.22078100  0.56218900  1
  C  164  1  0.66758100  0.19718700  0.58807300  1
  C  165  1  0.62182300  0.19496600  0.58020200  1
  C  166  1  0.61765900  0.21690700  0.54537400  1
  C  167  1  0.65754400  0.24049700  0.51864900  1
  C  172  1  0.72499400  0.18245400  0.47192500  1
  C  177  1  0.65072300  0.26205000  0.48207000  1
  C  181  1  0.87947500  0.33969600  0.43310300  1
  C  184  1  0.57767200  0.16972900  0.60634000  1
  C  187  1  0.47837100  0.81135300  0.74395900  1
  C  188  1  0.51760200  0.80066800  0.74180000  1
  C  189  1  0.52210900  0.76847900  0.76854100  1
  C  190  1  0.48534100  0.74552900  0.79800900  1
  C  191  1  0.44668000  0.75681700  0.80092500  1
  C  192  1  0.44346300  0.78955800  0.77444200  1
  C  194  1  0.48596600  0.71105400  0.82481500  1
  C  195  1  0.51002500  0.72936300  0.86087500  1
  C  196  1  0.51349900  0.69733700  0.88789800  1
  C  197  1  0.49349900  0.64631100  0.87945700  1
  C  198  1  0.46928000  0.62814400  0.84337100  1
  C  199  1  0.46449300  0.65956200  0.81598100  1
  C  204  1  0.56507800  0.75985300  0.76546400  1
  C  209  1  0.43685400  0.63810000  0.77908000  1
  C  213  1  0.47563200  0.84415700  0.71353100  1
  C  216  1  0.49879200  0.61263300  0.90738300  1
  C  219  1  0.29428700  0.48940200  0.07784600  1
  C  220  1  0.24437700  0.45030000  0.07505600  1
  C  221  1  0.20695300  0.44626600  0.10078900  1
  C  222  1  0.22005200  0.48335100  0.12989000  1
  C  223  1  0.26997700  0.52186200  0.13347900  1
  C  224  1  0.30664200  0.52463900  0.10797900  1
  C  226  1  0.18425900  0.48306700  0.15574200  1
  C  227  1  0.17687700  0.45859800  0.19181000  1
  C  228  1  0.14041400  0.45512900  0.21780100  1
  C  229  1  0.11010800  0.47562900  0.20831600  1
  C  230  1  0.11790500  0.50043000  0.17230400  1
  C  231  1  0.15498300  0.50504800  0.14588500  1
  C  236  1  0.15532700  0.40352700  0.09701100  1
  C  241  1  0.16269400  0.53285300  0.10884600  1
  C  245  1  0.33059400  0.49171600  0.04832600  1
  C  248  1  0.07004600  0.47019300  0.23507300  1
  C  251  1  0.15550000  0.67307500  0.40717500  1
  C  252  1  0.16635200  0.72305600  0.40530800  1
  C  253  1  0.19875900  0.75952500  0.43210200  1
  C  254  1  0.22187700  0.74543400  0.46123800  1
  C  255  1  0.21058400  0.69545500  0.46377200  1
  C  256  1  0.17756900  0.65971600  0.43729100  1
  C  258  1  0.25621300  0.78017200  0.48830600  1
  C  259  1  0.23775500  0.78507300  0.52457100  1
  C  260  1  0.26961700  0.82007500  0.55195100  1
  C  261  1  0.32063700  0.85142200  0.54367800  1
  C  262  1  0.33897100  0.84620700  0.50739300  1
  C  263  1  0.30771100  0.81052000  0.47962700  1
  C  268  1  0.20730900  0.81112500  0.42950500  1
  C  273  1  0.32934200  0.80518400  0.44251200  1
  C  277  1  0.12206800  0.63763800  0.37695100  1
  C  280  1  0.35412100  0.88993200  0.57198300  1
  N  23  1  0.62945800  0.53084100  0.06227000  1
  N  25  1  0.52761300  0.38558900  0.97911200  1
  N  27  1  0.38327000  0.53234300  0.05224400  1
  N  29  1  0.44935400  0.57065600  0.91915400  1
  N  53  1  0.86711000  0.33380400  0.39087200  1
  N  55  1  0.81464700  0.43278200  0.31296100  1
  N  57  1  0.10911900  0.58469700  0.38070900  1
  N  59  1  0.07787600  0.51965900  0.24724300  1
  N  83  1  0.44263200  0.10610500  0.72771000  1
  N  85  1  0.58448500  0.14615100  0.64170900  1
  N  87  1  0.43518300  0.85650200  0.71709800  1
  N  89  1  0.39603400  0.88233700  0.58368700  1
  O  8  1  0.38820700  0.57259400  0.97700900  1
  O  15  1  0.61228600  0.44251300  0.02748800  1
  O  17  1  0.44558900  0.49491400  0.06791300  1
  O  18  1  0.46081400  0.41810400  0.96987300  1
  O  38  1  0.14212900  0.58131900  0.30398200  1
  O  45  1  0.79199600  0.34768800  0.35936000  1
  O  47  1  0.01001600  0.52141500  0.39798700  1
  O  48  1  0.91259800  0.50340100  0.30290000  1
  O  68  1  0.39425300  0.82004300  0.64218900  1
  O  75  1  0.53035600  0.17566700  0.69154900  1
  O  77  1  0.47347300  0.95656200  0.73164800  1
  O  78  1  0.54927500  0.04637800  0.63177600  1
