# generated using pymatgen
data_GdH4C5O6
_symmetry_space_group_name_H-M   'P 1'
_cell_length_a   9.11900000
_cell_length_b   9.11900000
_cell_length_c   14.49424145
_cell_angle_alpha   100.22480224
_cell_angle_beta   100.22480224
_cell_angle_gamma   115.83200000
_symmetry_Int_Tables_number   1
_chemical_formula_structural   GdH4C5O6
_chemical_formula_sum   'Gd4 H16 C20 O24'
_cell_volume   1022.47418608
_cell_formula_units_Z   4
loop_
 _symmetry_equiv_pos_site_id
 _symmetry_equiv_pos_as_xyz
  1  'x, y, z'
loop_
 _atom_site_type_symbol
 _atom_site_label
 _atom_site_symmetry_multiplicity
 _atom_site_fract_x
 _atom_site_fract_y
 _atom_site_fract_z
 _atom_site_occupancy
  Gd  Gd1  1  0.50951000  0.25951000  0.51902000  1.0
  Gd  Gd2  1  0.74049000  0.49049000  0.98098000  1.0
  Gd  Gd3  1  0.49049000  0.74049000  0.48098000  1.0
  Gd  Gd4  1  0.25951000  0.50951000  0.01902000  1.0
  H  H1  1  0.07880000  0.68880000  0.50960000  1.0
  H  H2  1  0.14060000  0.75760000  0.62320000  1.0
  H  H3  1  0.93080000  0.82080000  0.50960000  1.0
  H  H4  1  0.98260000  0.86560000  0.62320000  1.0
  H  H5  1  0.31120000  0.92120000  0.99040000  1.0
  H  H6  1  0.24240000  0.85940000  0.87680000  1.0
  H  H7  1  0.17920000  0.06920000  0.99040000  1.0
  H  H8  1  0.13440000  0.01740000  0.87680000  1.0
  H  H9  1  0.92120000  0.31120000  0.49040000  1.0
  H  H10  1  0.85940000  0.24240000  0.37680000  1.0
  H  H11  1  0.06920000  0.17920000  0.49040000  1.0
  H  H12  1  0.01740000  0.13440000  0.37680000  1.0
  H  H13  1  0.68880000  0.07880000  0.00960000  1.0
  H  H14  1  0.75760000  0.14060000  0.12320000  1.0
  H  H15  1  0.82080000  0.93080000  0.00960000  1.0
  H  H16  1  0.86560000  0.98260000  0.12320000  1.0
  C  C1  1  0.25455000  0.93493000  0.55828000  1.0
  C  C2  1  0.10376000  0.78332000  0.56408000  1.0
  C  C3  1  0.80373000  0.62335000  0.55828000  1.0
  C  C4  1  0.96032000  0.78076000  0.56408000  1.0
  C  C5  1  0.06507000  0.74545000  0.94172000  1.0
  C  C6  1  0.21668000  0.89624000  0.93592000  1.0
  C  C7  1  0.37665000  0.19627000  0.94172000  1.0
  C  C8  1  0.21924000  0.03968000  0.93592000  1.0
  C  C9  1  0.74545000  0.06507000  0.44172000  1.0
  C  C10  1  0.89624000  0.21668000  0.43592000  1.0
  C  C11  1  0.19627000  0.37665000  0.44172000  1.0
  C  C12  1  0.03968000  0.21924000  0.43592000  1.0
  C  C13  1  0.93493000  0.25455000  0.05828000  1.0
  C  C14  1  0.78332000  0.10376000  0.06408000  1.0
  C  C15  1  0.62335000  0.80373000  0.05828000  1.0
  C  C16  1  0.78076000  0.96032000  0.06408000  1.0
  C  C17  1  0.67520000  0.32480000  0.75000000  1.0
  C  C18  1  0.57480000  0.42520000  0.75000000  1.0
  C  C19  1  0.32480000  0.67520000  0.25000000  1.0
  C  C20  1  0.42520000  0.57480000  0.25000000  1.0
  O  O1  1  0.26836000  0.08034000  0.57590000  1.0
  O  O2  1  0.36701000  0.90691000  0.53292000  1.0
  O  O3  1  0.66050000  0.23770000  0.66860000  1.0
  O  O4  1  0.80754000  0.49556000  0.57590000  1.0
  O  O5  1  0.66591000  0.62601000  0.53292000  1.0
  O  O6  1  0.50810000  0.43090000  0.66860000  1.0
  O  O7  1  0.91966000  0.73164000  0.92410000  1.0
  O  O8  1  0.09309000  0.63299000  0.96708000  1.0
  O  O9  1  0.76230000  0.33950000  0.83140000  1.0
  O  O10  1  0.50444000  0.19246000  0.92410000  1.0
  O  O11  1  0.37399000  0.33409000  0.96708000  1.0
  O  O12  1  0.56910000  0.49190000  0.83140000  1.0
  O  O13  1  0.73164000  0.91966000  0.42410000  1.0
  O  O14  1  0.63299000  0.09309000  0.46708000  1.0
  O  O15  1  0.33950000  0.76230000  0.33140000  1.0
  O  O16  1  0.19246000  0.50444000  0.42410000  1.0
  O  O17  1  0.33409000  0.37399000  0.46708000  1.0
  O  O18  1  0.49190000  0.56910000  0.33140000  1.0
  O  O19  1  0.08034000  0.26836000  0.07590000  1.0
  O  O20  1  0.90691000  0.36701000  0.03292000  1.0
  O  O21  1  0.23770000  0.66050000  0.16860000  1.0
  O  O22  1  0.49556000  0.80754000  0.07590000  1.0
  O  O23  1  0.62601000  0.66591000  0.03292000  1.0
  O  O24  1  0.43090000  0.50810000  0.16860000  1.0
