# generated using pymatgen
data_H9C15N4
_symmetry_space_group_name_H-M   'P 1'
_cell_length_a   28.48400000
_cell_length_b   35.32645000
_cell_length_c   35.32650000
_cell_angle_alpha   59.99985954
_cell_angle_beta   89.99870000
_cell_angle_gamma   89.99740000
_symmetry_Int_Tables_number   1
_chemical_formula_structural   H9C15N4
_chemical_formula_sum   'H108 C180 N48'
_cell_volume   30784.46440129
_cell_formula_units_Z   12
loop_
 _symmetry_equiv_pos_site_id
 _symmetry_equiv_pos_as_xyz
  1  'x, y, z'
loop_
 _atom_site_type_symbol
 _atom_site_label
 _atom_site_symmetry_multiplicity
 _atom_site_fract_x
 _atom_site_fract_y
 _atom_site_fract_z
 _atom_site_occupancy
  H  9  1  0.11795700  0.52642900  0.13431800  1
  H  17  1  0.86038100  0.53659000  0.28316700  1
  H  19  1  0.94857800  0.42461300  0.27931500  1
  H  20  1  0.01558800  0.42175400  0.24239000  1
  H  21  1  0.96423200  0.64281800  0.17537800  1
  H  22  1  0.02578600  0.64029600  0.13302400  1
  H  27  1  0.09670700  0.63266800  0.10497800  1
  H  28  1  0.89283200  0.64121600  0.20650300  1
  H  29  1  0.84552600  0.45834900  0.28742000  1
  H  30  1  0.09949100  0.42928800  0.22616100  1
  H  36  1  0.45134500  0.10824100  0.28228800  1
  H  42  1  0.19373000  0.25698400  0.12325500  1
  H  43  1  0.28185600  0.25314000  0.23911300  1
  H  44  1  0.34886900  0.21624800  0.27889900  1
  H  47  1  0.17881300  0.26130600  0.19711200  1
  H  48  1  0.43280100  0.20004500  0.28763500  1
  H  57  1  0.78462100  0.25613900  0.55249700  1
  H  65  1  0.52697600  0.09711800  0.56287000  1
  H  67  1  0.61502600  0.21303100  0.45083100  1
  H  68  1  0.68207900  0.25278200  0.44791600  1
  H  69  1  0.63101700  0.09861800  0.66900900  1
  H  70  1  0.69259400  0.14348100  0.66644600  1
  H  75  1  0.76334100  0.17923400  0.65883600  1
  H  76  1  0.55961600  0.06904200  0.66748300  1
  H  77  1  0.51195400  0.17096400  0.48470500  1
  H  78  1  0.76610200  0.26145400  0.45540500  1
  H  87  1  0.45136200  0.81895200  0.69718600  1
  H  95  1  0.19380700  0.67010000  0.85622500  1
  H  97  1  0.28199300  0.67394000  0.74040000  1
  H  98  1  0.34899600  0.71086500  0.70060600  1
  H  99  1  0.29768300  0.77787000  0.85467300  1
  H  100  1  0.35924000  0.82021700  0.80979500  1
  H  105  1  0.43021700  0.84822800  0.77411400  1
  H  106  1  0.22628100  0.74676800  0.88418700  1
  H  107  1  0.17894600  0.66584800  0.78228400  1
  H  108  1  0.43288500  0.72713200  0.69186000  1
  H  114  1  0.13799000  0.68824800  0.03438700  1
  H  117  1  0.17831400  0.75288600  0.98306100  1
  H  118  1  0.17303400  0.76156600  0.92955000  1
  H  119  1  0.22687800  0.74245600  0.95861500  1
  H  126  1  0.80456900  0.19424600  0.71441000  1
  H  129  1  0.84467500  0.18095700  0.77913800  1
  H  130  1  0.89333100  0.21572100  0.76876800  1
  H  137  1  0.47138000  0.91884500  0.75910900  1
  H  140  1  0.51171200  0.97014800  0.77244500  1
  H  141  1  0.50641400  0.02366500  0.72763400  1
  H  142  1  0.56026500  0.99461100  0.73756800  1
  H  151  1  0.84475800  0.74617600  0.20034700  1
  H  152  1  0.83950700  0.70130200  0.19173400  1
  H  153  1  0.89337000  0.71136100  0.21073100  1
  H  160  1  0.91953900  0.36142100  0.40546900  1
  H  163  1  0.91741000  0.29360300  0.47329200  1
  H  164  1  0.86724300  0.26215700  0.47799700  1
  H  165  1  0.86995800  0.29182600  0.50633800  1
  H  173  1  0.25294200  0.37912800  0.17649800  1
  H  176  1  0.25082800  0.44687800  0.17663100  1
  H  177  1  0.20058300  0.45156700  0.20329400  1
  H  178  1  0.20347900  0.48004700  0.14528900  1
  H  186  1  0.58618200  0.15055500  0.38740800  1
  H  189  1  0.58411700  0.15069900  0.31952100  1
  H  190  1  0.53382200  0.17725500  0.28819100  1
  H  191  1  0.53685600  0.11925600  0.31773600  1
  H  200  1  0.58624800  0.77670300  0.59204000  1
  H  202  1  0.58416600  0.77652100  0.65994700  1
  H  203  1  0.53388200  0.74993200  0.69127400  1
  H  204  1  0.53688000  0.80793100  0.66175700  1
  H  209  1  0.25287900  0.54787600  0.80309300  1
  H  216  1  0.29770000  0.14926800  0.12479200  1
  H  217  1  0.35927900  0.10695300  0.16966100  1
  H  220  1  0.43023400  0.07894800  0.20534500  1
  H  221  1  0.22633400  0.18038200  0.09522100  1
  H  230  1  0.11788400  0.40080800  0.84515100  1
  H  238  1  0.86038700  0.39051700  0.69630500  1
  H  240  1  0.94848500  0.50253100  0.70016100  1
  H  241  1  0.01547200  0.50542500  0.73709100  1
  H  242  1  0.96432800  0.28433400  0.80405900  1
  H  243  1  0.02585300  0.28688900  0.84641800  1
  H  248  1  0.09679100  0.29458000  0.87441200  1
  H  249  1  0.89306300  0.28584400  0.77290600  1
  H  250  1  0.84544800  0.46868500  0.69200800  1
  H  251  1  0.09954700  0.49780900  0.75334700  1
  H  260  1  0.78458200  0.67098100  0.42689700  1
  H  268  1  0.52704000  0.83009700  0.41659700  1
  H  270  1  0.61513100  0.71419700  0.52862400  1
  H  271  1  0.68214100  0.67439800  0.53151800  1
  H  272  1  0.63097500  0.82851800  0.31043100  1
  H  273  1  0.69252900  0.78362500  0.31298500  1
  H  278  1  0.76346500  0.74791600  0.32066100  1
  H  279  1  0.55957700  0.85809900  0.31198900  1
  H  280  1  0.51205200  0.75626700  0.49475900  1
  H  281  1  0.76611800  0.66570900  0.52400600  1
  H  287  1  0.47126100  0.00825500  0.22037700  1
  H  290  1  0.51143400  0.95686600  0.20706500  1
  H  291  1  0.50620300  0.90338700  0.25195500  1
  H  292  1  0.56007600  0.93244000  0.24183800  1
  H  296  1  0.83947500  0.22586200  0.78771200  1
  H  303  1  0.13807000  0.23897600  0.94499300  1
  H  306  1  0.17841600  0.17433300  0.99629700  1
  H  307  1  0.17310800  0.16561300  0.04981900  1
  H  308  1  0.22695500  0.18475500  0.02077100  1
  H  312  1  0.80452900  0.73287500  0.26502400  1
  H  319  1  0.91954700  0.56584600  0.57412400  1
  H  322  1  0.91743200  0.63370000  0.50633900  1
  H  323  1  0.86720500  0.66508500  0.50163000  1
  H  324  1  0.87005800  0.63550000  0.47320900  1
  H  330  1  0.25065300  0.48011100  0.80298600  1
  H  331  1  0.20039000  0.47546400  0.77631900  1
  H  332  1  0.20326100  0.44702000  0.83432400  1
  C  1  1  0.00902900  0.53167000  0.19590100  1
  C  2  1  0.02766800  0.49037600  0.20485400  1
  C  3  1  0.06855400  0.48832200  0.18270100  1
  C  4  1  0.08800700  0.52791100  0.14969500  1
  C  5  1  0.06898900  0.56944300  0.13760300  1
  C  6  1  0.03040600  0.57111200  0.16273400  1
  C  7  1  0.00435300  0.45192100  0.23588000  1
  C  8  1  0.01187300  0.61113400  0.15611000  1
  C  10  1  0.96921400  0.53333700  0.22014600  1
  C  11  1  0.94612700  0.49379700  0.25086400  1
  C  12  1  0.90546200  0.49529900  0.27341900  1
  C  13  1  0.89006600  0.53599800  0.26693300  1
  C  14  1  0.91311600  0.57581600  0.23859900  1
  C  15  1  0.95199100  0.57433400  0.21356300  1
  C  16  1  0.96406300  0.45361200  0.25762300  1
  C  18  1  0.97482400  0.61263800  0.18154700  1
  C  23  1  0.09106500  0.60606800  0.10288800  1
  C  24  1  0.89418600  0.61422000  0.23535800  1
  C  25  1  0.87684300  0.45966500  0.29923000  1
  C  26  1  0.09320000  0.44965200  0.19459200  1
  C  31  1  0.34243800  0.16981600  0.21541800  1
  C  32  1  0.36103800  0.17875900  0.24777400  1
  C  33  1  0.40190300  0.15659600  0.27202000  1
  C  34  1  0.42141200  0.12363100  0.26540200  1
  C  35  1  0.33769800  0.20978300  0.25519600  1
  C  37  1  0.30260800  0.19403500  0.18950600  1
  C  38  1  0.27948300  0.22473200  0.19833900  1
  C  39  1  0.23879000  0.24723800  0.17430400  1
  C  40  1  0.22341300  0.24075100  0.14008900  1
  C  41  1  0.29740500  0.23150800  0.23175700  1
  C  45  1  0.21017400  0.27308500  0.18408900  1
  C  46  1  0.42650300  0.16848000  0.29882300  1
  C  49  1  0.67569600  0.18927900  0.55783100  1
  C  50  1  0.69428300  0.22164100  0.51652500  1
  C  51  1  0.73518300  0.24584700  0.51443400  1
  C  52  1  0.75468400  0.23925700  0.55400800  1
  C  53  1  0.73571600  0.20980100  0.59555700  1
  C  54  1  0.69712900  0.18298900  0.59725900  1
  C  55  1  0.67091300  0.22907800  0.47808700  1
  C  56  1  0.67863700  0.14957800  0.63729100  1
  C  58  1  0.63585900  0.16337600  0.55953100  1
  C  59  1  0.61269500  0.17223200  0.52001100  1
  C  60  1  0.57197700  0.14821800  0.52155600  1
  C  61  1  0.55665600  0.11395700  0.56225600  1
  C  62  1  0.57978500  0.10244100  0.60204800  1
  C  63  1  0.61868800  0.12894100  0.60053700  1
  C  64  1  0.63058600  0.20567300  0.47981600  1
  C  66  1  0.64159900  0.12261900  0.63882100  1
  C  71  1  0.75783900  0.20790100  0.63216200  1
  C  72  1  0.56094600  0.06722500  0.64046600  1
  C  73  1  0.54335100  0.15800300  0.48593300  1
  C  74  1  0.75969500  0.27271500  0.47570200  1
  C  79  1  0.34246200  0.75734100  0.76404600  1
  C  80  1  0.36109000  0.74839600  0.73169900  1
  C  81  1  0.40196900  0.77055700  0.70747700  1
  C  82  1  0.42142600  0.80356100  0.71405900  1
  C  83  1  0.40241500  0.81564200  0.74351100  1
  C  84  1  0.36384300  0.79050800  0.77032000  1
  C  85  1  0.33776800  0.71737000  0.72426900  1
  C  86  1  0.34532000  0.79713100  0.80372100  1
  C  88  1  0.30265100  0.73310100  0.78996100  1
  C  89  1  0.27955700  0.70238400  0.78113900  1
  C  90  1  0.23889200  0.67983600  0.80519500  1
  C  91  1  0.22349700  0.68632800  0.83940300  1
  C  92  1  0.24654900  0.71466100  0.85088800  1
  C  93  1  0.28542700  0.73968700  0.82437300  1
  C  94  1  0.29749300  0.69561900  0.74771900  1
  C  96  1  0.30827100  0.77169900  0.83066200  1
  C  101  1  0.42447000  0.85036700  0.74541700  1
  C  102  1  0.22760800  0.71791500  0.88604300  1
  C  103  1  0.21027200  0.65402100  0.79537800  1
  C  104  1  0.42657600  0.75869800  0.68065400  1
  C  109  1  0.13158300  0.62928400  0.03338400  1
  C  110  1  0.14664700  0.67274000  0.01745700  1
  C  111  1  0.17334600  0.69471000  0.97824300  1
  C  112  1  0.18469300  0.67154600  0.95609200  1
  C  116  1  0.18872000  0.74044000  0.96151900  1
  C  122  1  0.79831100  0.25419000  0.65539800  1
  C  123  1  0.81327900  0.22667100  0.69889000  1
  C  124  1  0.83994000  0.24391500  0.72088300  1
  C  128  1  0.85517400  0.21492800  0.76666400  1
  C  132  1  0.46494200  0.91988500  0.69912500  1
  C  133  1  0.48003100  0.93578800  0.72667000  1
  C  134  1  0.50673400  0.97499700  0.70943800  1
  C  135  1  0.51808400  0.99715600  0.66412400  1
  C  139  1  0.52211100  0.99170400  0.73845900  1
  C  145  1  0.81324200  0.70044900  0.28054800  1
  C  146  1  0.83993300  0.68320600  0.25857200  1
  C  147  1  0.85135900  0.63791000  0.28176000  1
  C  150  1  0.85521400  0.71219800  0.21280800  1
  C  155  1  0.86165200  0.39956500  0.36926500  1
  C  156  1  0.88365900  0.36335400  0.40442300  1
  C  157  1  0.85636300  0.33038400  0.43842200  1
  C  158  1  0.80679500  0.33520400  0.43579300  1
  C  162  1  0.87920100  0.29244400  0.47605700  1
  C  168  1  0.19506400  0.34309700  0.17423800  1
  C  169  1  0.21706900  0.37816900  0.17545300  1
  C  170  1  0.18978000  0.41216400  0.17444000  1
  C  171  1  0.14021900  0.40963600  0.17207300  1
  C  175  1  0.21262800  0.44970400  0.17492700  1
  C  181  1  0.52828200  0.14827200  0.42569600  1
  C  182  1  0.55030500  0.14948400  0.38941400  1
  C  183  1  0.52304400  0.14840700  0.35644900  1
  C  184  1  0.47349000  0.14591800  0.36139700  1
  C  188  1  0.54592000  0.14891900  0.31842200  1
  C  194  1  0.19505300  0.58400700  0.80528500  1
  C  197  1  0.55037200  0.77776400  0.59003600  1
  C  198  1  0.52310100  0.77881300  0.62301000  1
  C  199  1  0.47354300  0.78128000  0.61806900  1
  C  201  1  0.54596600  0.77828200  0.66105200  1
  C  206  1  0.40242600  0.11154000  0.23595100  1
  C  207  1  0.21700200  0.54889400  0.80409900  1
  C  211  1  0.36384300  0.13666200  0.20913900  1
  C  212  1  0.34534500  0.13003700  0.17573400  1
  C  213  1  0.24650300  0.21244000  0.12859400  1
  C  214  1  0.28540900  0.18745000  0.15508800  1
  C  215  1  0.30829600  0.15546500  0.14878300  1
  C  218  1  0.42451500  0.07683300  0.23403600  1
  C  219  1  0.22761500  0.20922100  0.09340100  1
  C  222  1  0.00900500  0.39550700  0.78356000  1
  C  223  1  0.02759800  0.43680600  0.77462400  1
  C  224  1  0.06844900  0.43889000  0.79679900  1
  C  225  1  0.08794400  0.39930900  0.82977500  1
  C  226  1  0.06895800  0.35776500  0.84187100  1
  C  227  1  0.03040300  0.35607600  0.81672200  1
  C  228  1  0.00426500  0.47525300  0.74359100  1
  C  229  1  0.01190800  0.31604600  0.82334200  1
  C  231  1  0.96920500  0.39381800  0.75931000  1
  C  232  1  0.94609800  0.43334700  0.72859000  1
  C  233  1  0.90543600  0.43182800  0.70604600  1
  C  234  1  0.89006700  0.39112100  0.71253700  1
  C  235  1  0.91315600  0.35131100  0.74084900  1
  C  236  1  0.95201700  0.35281300  0.76588800  1
  C  237  1  0.96401500  0.47354100  0.72181700  1
  C  239  1  0.97487900  0.31452300  0.79789900  1
  C  244  1  0.09109700  0.32115200  0.87654100  1
  C  245  1  0.89421300  0.31290500  0.74410100  1
  C  246  1  0.87680700  0.46745100  0.68021800  1
  C  247  1  0.09303500  0.47759000  0.78489900  1
  C  252  1  0.67569800  0.73787600  0.42160600  1
  C  253  1  0.69430000  0.70551800  0.46290400  1
  C  254  1  0.73515700  0.68126600  0.46498600  1
  C  255  1  0.75465500  0.68787100  0.42540200  1
  C  256  1  0.73566400  0.71732300  0.38386000  1
  C  257  1  0.69709600  0.74414700  0.38217100  1
  C  258  1  0.67096800  0.69810300  0.50135100  1
  C  259  1  0.67860000  0.77755700  0.34214100  1
  C  261  1  0.63588300  0.76380100  0.41991300  1
  C  262  1  0.61275800  0.75497400  0.45944200  1
  C  263  1  0.57207500  0.77902200  0.45791300  1
  C  264  1  0.55671200  0.81324900  0.41720800  1
  C  265  1  0.57980600  0.82473800  0.37740600  1
  C  266  1  0.61869500  0.79822400  0.37890900  1
  C  267  1  0.63067700  0.72154800  0.49963600  1
  C  269  1  0.64157100  0.80452400  0.34061800  1
  C  274  1  0.75774300  0.71922700  0.34724100  1
  C  275  1  0.56094600  0.85994100  0.33899000  1
  C  276  1  0.54344200  0.76923200  0.49353000  1
  C  277  1  0.75978000  0.65448500  0.50366600  1
  C  282  1  0.46506800  0.00735000  0.28031200  1
  C  283  1  0.48000300  0.99136500  0.25279500  1
  C  284  1  0.50669100  0.95214500  0.27002800  1
  C  285  1  0.51816500  0.93005300  0.31531200  1
  C  289  1  0.52192100  0.93535700  0.24103400  1
  C  295  1  0.85137700  0.28920900  0.69769600  1
  C  298  1  0.13163200  0.29791600  0.94604200  1
  C  299  1  0.14670700  0.25446600  0.96194600  1
  C  300  1  0.17340200  0.23248000  0.00116400  1
  C  301  1  0.18470700  0.25561500  0.02335000  1
  C  305  1  0.18879700  0.18676000  0.01785900  1
  C  311  1  0.79825100  0.67293200  0.32403400  1
  C  314  1  0.86165800  0.52760500  0.61020800  1
  C  315  1  0.88366900  0.56386000  0.57510400  1
  C  316  1  0.85638300  0.59683900  0.54110100  1
  C  317  1  0.80682400  0.59195400  0.54365500  1
  C  321  1  0.87922700  0.63483300  0.50352800  1
  C  327  1  0.18966400  0.51492100  0.80512300  1
  C  328  1  0.14011000  0.51752100  0.80747300  1
  C  329  1  0.21244500  0.47733700  0.80467700  1
  C  334  1  0.52835300  0.77903100  0.55372900  1
  N  113  1  0.16888100  0.62981800  0.97402800  1
  N  115  1  0.14423500  0.61003100  0.01000500  1
  N  120  1  0.10747800  0.60426000  0.06978900  1
  N  121  1  0.20807800  0.68481500  0.91884300  1
  N  125  1  0.83565100  0.31299200  0.65593900  1
  N  127  1  0.81103200  0.29680600  0.63613300  1
  N  131  1  0.77426200  0.24280600  0.63034800  1
  N  136  1  0.50224700  0.97924800  0.64031400  1
  N  138  1  0.47759100  0.94327700  0.65649400  1
  N  143  1  0.44083300  0.88348400  0.71049800  1
  N  144  1  0.54142700  0.03443100  0.64014200  1
  N  148  1  0.83559600  0.61412400  0.32350600  1
  N  149  1  0.81095100  0.63031100  0.34329900  1
  N  154  1  0.87471100  0.61392300  0.26847800  1
  N  159  1  0.78823300  0.37159400  0.40144200  1
  N  161  1  0.81397400  0.40170100  0.37013800  1
  N  166  1  0.88739000  0.43221100  0.33916900  1
  N  167  1  0.77870100  0.30883000  0.46835800  1
  N  172  1  0.12166500  0.37537800  0.16985900  1
  N  174  1  0.14739800  0.34406900  0.17105900  1
  N  179  1  0.22079100  0.31298800  0.17169900  1
  N  180  1  0.11215100  0.44222900  0.16585200  1
  N  185  1  0.45490800  0.14371900  0.39785200  1
  N  187  1  0.48062400  0.14498600  0.42793300  1
  N  192  1  0.55400900  0.14569900  0.45836000  1
  N  193  1  0.44545700  0.13972800  0.33498000  1
  N  195  1  0.14738400  0.58310300  0.80843000  1
  N  196  1  0.22081900  0.61408800  0.80783400  1
  N  205  1  0.44550600  0.78745700  0.64449200  1
  N  208  1  0.12160100  0.55182300  0.80963700  1
  N  210  1  0.45496800  0.78347600  0.58161600  1
  N  286  1  0.50241900  0.94801200  0.33910400  1
  N  288  1  0.47778000  0.98399400  0.32292800  1
  N  293  1  0.44092500  0.04373700  0.26894600  1
  N  294  1  0.54148600  0.89276400  0.33930100  1
  N  297  1  0.87468500  0.31319600  0.71100400  1
  N  302  1  0.16886700  0.29733300  0.00544700  1
  N  304  1  0.14423200  0.31713600  0.96946300  1
  N  309  1  0.10748800  0.32293900  0.90965600  1
  N  310  1  0.20807100  0.24232400  0.06061500  1
  N  313  1  0.77413000  0.68430900  0.34905400  1
  N  318  1  0.78825300  0.55552200  0.57795500  1
  N  320  1  0.81398800  0.52542000  0.60926900  1
  N  325  1  0.88740000  0.49496300  0.64031100  1
  N  326  1  0.77873800  0.61832600  0.51107900  1
  N  333  1  0.11196100  0.48498900  0.81366500  1
  N  335  1  0.48068700  0.78224900  0.55151200  1
  N  336  1  0.55408300  0.78156500  0.52108300  1
