# generated using pymatgen
data_Zr3H17C24N3O16
_symmetry_space_group_name_H-M   'P 1'
_cell_length_a   14.76835000
_cell_length_b   14.77264000
_cell_length_c   14.78123000
_cell_angle_alpha   90.15213000
_cell_angle_beta   119.93379000
_cell_angle_gamma   119.79997000
_symmetry_Int_Tables_number   1
_chemical_formula_structural   Zr3H17C24N3O16
_chemical_formula_sum   'Zr6 H34 C48 N6 O32'
_cell_volume   2286.40040844
_cell_formula_units_Z   2
loop_
 _symmetry_equiv_pos_site_id
 _symmetry_equiv_pos_as_xyz
  1  'x, y, z'
loop_
 _atom_site_type_symbol
 _atom_site_label
 _atom_site_symmetry_multiplicity
 _atom_site_fract_x
 _atom_site_fract_y
 _atom_site_fract_z
 _atom_site_occupancy
  Zr  Zr1  1  0.01290000  0.13248000  0.12388000  1.0
  Zr  Zr2  1  0.25391000  0.13485000  0.12525000  1.0
  Zr  Zr3  1  0.01122000  0.12925000  0.88435000  1.0
  Zr  Zr4  1  0.77458000  0.89224000  0.88743000  1.0
  Zr  Zr5  1  0.01620000  0.89556000  0.12843000  1.0
  Zr  Zr6  1  0.01423000  0.89238000  0.88872000  1.0
  H  H1  1  0.56571000  0.42313000  0.41901000  1.0
  H  H2  1  0.05970000  0.44813000  0.16413000  1.0
  H  H3  1  0.73545000  0.12284000  0.56844000  1.0
  H  H4  1  0.92938000  0.56093000  0.83050000  1.0
  H  H5  1  0.46160000  0.58575000  0.61457000  1.0
  H  H6  1  0.55815000  0.19133000  0.09527000  1.0
  H  H7  1  0.07246000  0.17824000  0.62526000  1.0
  H  H8  1  0.46446000  0.85466000  0.89264000  1.0
  H  H9  1  0.29215000  0.92608000  0.46192000  1.0
  H  H10  1  0.46125000  0.60451000  0.86285000  1.0
  H  H11  1  0.56267000  0.40946000  0.12932000  1.0
  H  H12  1  0.98838000  0.86020000  0.40183000  1.0
  H  H13  1  0.19906000  0.29485000  0.09762000  1.0
  H  H14  1  0.82507000  0.91626000  0.72389000  1.0
  H  H15  1  0.82603000  0.92057000  0.10107000  1.0
  H  H16  1  0.20454000  0.92077000  0.10247000  1.0
  H  H17  1  0.07328000  0.18664000  0.45604000  1.0
  H  H18  1  0.74002000  0.57906000  0.13689000  1.0
  H  H19  1  0.57236000  0.13088000  0.40025000  1.0
  H  H20  1  0.06159000  0.61909000  0.17143000  1.0
  H  H21  1  0.74188000  0.59215000  0.58966000  1.0
  H  H22  1  0.28977000  0.85023000  0.88800000  1.0
  H  H23  1  0.24438000  0.48444000  0.79922000  1.0
  H  H24  1  0.85231000  0.38273000  0.72731000  1.0
  H  H25  1  0.93998000  0.75961000  0.51461000  1.0
  H  H26  1  0.76075000  0.29262000  0.11904000  1.0
  H  H27  1  0.24260000  0.44989000  0.47739000  1.0
  H  H28  1  0.36790000  0.89892000  0.63934000  1.0
  H  H29  1  0.89928000  0.30187000  0.79129000  1.0
  H  H30  1  0.51153000  0.91283000  0.71750000  1.0
  H  H31  1  0.97473000  0.82290000  0.63773000  1.0
  H  H32  1  0.82408000  0.22708000  0.10254000  1.0
  H  H33  1  0.18885000  0.34542000  0.36912000  1.0
  H  H34  1  0.18872000  0.36938000  0.83927000  1.0
  C  C1  1  0.31721000  0.31407000  0.31543000  1.0
  C  C2  1  0.31489000  0.31393000  0.99772000  1.0
  C  C3  1  0.99907000  0.31071000  0.99853000  1.0
  C  C4  1  0.70825000  0.01788000  0.70597000  1.0
  C  C5  1  0.02307000  0.02094000  0.31502000  1.0
  C  C6  1  0.00492000  0.70451000  0.00500000  1.0
  C  C7  1  0.71147000  0.70261000  0.70838000  1.0
  C  C8  1  0.71173000  0.70511000  0.00417000  1.0
  C  C9  1  0.31619000  0.01782000  0.99867000  1.0
  C  C10  1  0.02276000  0.01401000  0.70572000  1.0
  C  C11  1  0.70673000  0.01824000  0.99755000  1.0
  C  C12  1  0.32129000  0.02379000  0.31730000  1.0
  C  C13  1  0.41488000  0.40891000  0.42003000  1.0
  C  C14  1  0.41251000  0.41091000  0.99267000  1.0
  C  C15  1  0.99260000  0.40745000  0.99390000  1.0
  C  C16  1  0.60742000  0.02161000  0.61099000  1.0
  C  C17  1  0.02829000  0.02203000  0.41854000  1.0
  C  C18  1  0.99572000  0.59899000  0.00053000  1.0
  C  C19  1  0.61015000  0.59874000  0.61048000  1.0
  C  C20  1  0.60938000  0.60164000  0.00016000  1.0
  C  C21  1  0.41589000  0.02126000  0.99276000  1.0
  C  C22  1  0.02909000  0.01500000  0.60899000  1.0
  C  C23  1  0.60877000  0.02475000  0.99480000  1.0
  C  C24  1  0.42263000  0.02789000  0.42202000  1.0
  C  C25  1  0.54483000  0.45968000  0.46340000  1.0
  C  C26  1  0.38106000  0.46546000  0.91435000  1.0
  C  C27  1  0.02959000  0.47321000  0.09126000  1.0
  C  C28  1  0.63828000  0.08161000  0.54490000  1.0
  C  C29  1  0.05358000  0.11389000  0.48136000  1.0
  C  C30  1  0.95631000  0.53445000  0.90276000  1.0
  C  C31  1  0.48327000  0.54904000  0.57116000  1.0
  C  C32  1  0.64039000  0.54675000  0.07613000  1.0
  C  C33  1  0.53845000  0.11844000  0.04985000  1.0
  C  C34  1  0.05350000  0.10894000  0.57492000  1.0
  C  C35  1  0.63761000  0.12382000  0.05157000  1.0
  C  C36  1  0.54873000  0.08620000  0.45191000  1.0
  C  C37  1  0.48276000  0.92817000  0.93520000  1.0
  C  C38  1  0.39026000  0.97019000  0.48707000  1.0
  C  C39  1  0.00672000  0.92303000  0.54680000  1.0
  C  C40  1  0.03108000  0.56760000  0.09592000  1.0
  C  C41  1  0.64216000  0.55286000  0.55720000  1.0
  C  C42  1  0.48238000  0.56097000  0.92096000  1.0
  C  C43  1  0.38278000  0.45308000  0.47653000  1.0
  C  C44  1  0.54231000  0.45318000  0.07125000  1.0
  C  C45  1  0.48089000  0.96613000  0.58336000  1.0
  C  C46  1  0.00639000  0.92936000  0.45146000  1.0
  C  C47  1  0.38623000  0.92506000  0.93261000  1.0
  C  C48  1  0.95240000  0.43701000  0.89598000  1.0
  N  N1  1  0.91336000  0.37706000  0.79692000  1.0
  N  N2  1  0.44282000  0.90757000  0.64410000  1.0
  N  N3  1  0.26009000  0.40547000  0.44463000  1.0
  N  N4  1  0.98746000  0.82985000  0.57583000  1.0
  N  N5  1  0.75668000  0.22250000  0.10913000  1.0
  N  N6  1  0.25771000  0.42851000  0.83209000  1.0
  O  O1  1  0.14618000  0.21457000  0.07121000  1.0
  O  O2  1  0.87808000  0.94340000  0.80423000  1.0
  O  O3  1  0.87946000  0.94669000  0.07413000  1.0
  O  O4  1  0.15048000  0.94721000  0.07549000  1.0
  O  O5  1  0.11262000  0.06181000  0.95619000  1.0
  O  O6  1  0.91315000  0.06124000  0.95528000  1.0
  O  O7  1  0.11390000  0.06429000  0.15501000  1.0
  O  O8  1  0.91548000  0.86382000  0.95864000  1.0
  O  O9  1  0.19860000  0.27447000  0.27127000  1.0
  O  O10  1  0.35272000  0.27567000  0.07608000  1.0
  O  O11  1  0.99845000  0.26840000  0.92174000  1.0
  O  O12  1  0.67359000  0.94133000  0.74753000  1.0
  O  O13  1  0.01990000  0.94231000  0.27328000  1.0
  O  O14  1  0.01334000  0.74843000  0.08611000  1.0
  O  O15  1  0.82777000  0.74362000  0.74538000  1.0
  O  O16  1  0.67481000  0.74659000  0.92868000  1.0
  O  O17  1  0.20003000  0.93623000  0.92694000  1.0
  O  O18  1  0.01639000  0.93436000  0.74468000  1.0
  O  O19  1  0.66894000  0.93598000  0.92524000  1.0
  O  O20  1  0.20509000  0.94610000  0.27774000  1.0
  O  O21  1  0.82472000  0.09443000  0.07408000  1.0
  O  O22  1  0.35817000  0.09644000  0.27347000  1.0
  O  O23  1  0.02093000  0.09042000  0.74452000  1.0
  O  O24  1  0.00661000  0.74442000  0.92861000  1.0
  O  O25  1  0.67464000  0.74443000  0.74690000  1.0
  O  O26  1  0.82786000  0.74596000  0.08307000  1.0
  O  O27  1  0.35453000  0.27760000  0.27229000  1.0
  O  O28  1  0.19605000  0.27409000  0.92384000  1.0
  O  O29  1  0.82479000  0.09009000  0.74049000  1.0
  O  O30  1  0.01954000  0.09635000  0.27401000  1.0
  O  O31  1  0.35412000  0.09477000  0.07626000  1.0
  O  O32  1  0.00749000  0.27582000  0.08015000  1.0
