# generated using pymatgen
data_Cd2H14C24N4Cl4O9
_symmetry_space_group_name_H-M   'P 1'
_cell_length_a   11.50371000
_cell_length_b   11.50654000
_cell_length_c   15.20062540
_cell_angle_alpha   109.51261826
_cell_angle_beta   109.53487055
_cell_angle_gamma   96.53630000
_symmetry_Int_Tables_number   1
_chemical_formula_structural   Cd2H14C24N4Cl4O9
_chemical_formula_sum   'Cd4 H28 C48 N8 Cl8 O18'
_cell_volume   1728.79116020
_cell_formula_units_Z   2
loop_
 _symmetry_equiv_pos_site_id
 _symmetry_equiv_pos_as_xyz
  1  'x, y, z'
loop_
 _atom_site_type_symbol
 _atom_site_label
 _atom_site_symmetry_multiplicity
 _atom_site_fract_x
 _atom_site_fract_y
 _atom_site_fract_z
 _atom_site_occupancy
  Cd  Cd0  1  0.71860000  0.98214000  0.71590000  1
  Cd  Cd1  1  0.28140000  0.01786000  0.28410000  1
  Cd  Cd2  1  0.48139000  0.21822000  0.21546000  1
  Cd  Cd3  1  0.51862000  0.78180000  0.78455000  1
  H  H4  1  0.92921000  0.19070000  0.07507000  1
  H  H5  1  0.68557000  0.89410000  0.13734000  1
  H  H6  1  0.79102000  0.29116000  0.31631000  1
  H  H7  1  0.69127000  0.42989000  0.57559000  1
  H  H8  1  0.39409000  0.18567000  0.63737000  1
  H  H9  1  0.54276000  0.56146000  0.88175000  1
  H  H10  1  0.07080000  0.80930000  0.92493000  1
  H  H11  1  0.31444000  0.10591000  0.86266000  1
  H  H12  1  0.40457000  0.53115000  0.58339000  1
  H  H13  1  0.96881000  0.09532000  0.91636000  1
  H  H14  1  0.93860000  0.95713000  0.61806000  1
  H  H15  1  0.03120000  0.90469000  0.08364000  1
  H  H16  1  0.20899000  0.70885000  0.68369000  1
  H  H17  1  0.37976000  0.97140000  0.48312000  1
  H  H18  1  0.30874000  0.57012000  0.42441000  1
  H  H19  1  0.79115000  0.29126000  0.81655000  1
  H  H20  1  0.52806000  0.11983000  0.01657000  1
  H  H21  1  0.60592000  0.81433000  0.36263000  1
  H  H22  1  0.45725000  0.43855000  0.11826000  1
  H  H23  1  0.76656000  0.80207000  0.81697000  1
  H  H24  1  0.62024000  0.02861000  0.51688000  1
  H  H25  1  0.59543000  0.46886000  0.41661000  1
  H  H26  1  0.20886000  0.70875000  0.18345000  1
  H  H27  1  0.06142000  0.04288000  0.38195000  1
  H  H28  1  0.47195000  0.88018000  0.98343000  1
  H  H29  1  0.69925000  0.73473000  0.68445000  1
  H  H30  1  0.23345000  0.19793000  0.18303000  1
  H  H31  1  0.30076000  0.26528000  0.31555000  1
  C  C32  1  0.98175000  0.92196000  0.13461000  1
  C  C33  1  0.68660000  0.08382000  0.91851000  1
  C  C34  1  0.86609000  0.97095000  0.26842000  1
  C  C35  1  0.42183000  0.48163000  0.63430000  1
  C  C36  1  0.22532000  0.16468000  0.01784000  1
  C  C37  1  0.65652000  0.12857000  0.56866000  1
  C  C38  1  0.12355000  0.75364000  0.79505000  1
  C  C39  1  0.47090000  0.36617000  0.76819000  1
  C  C40  1  0.75257000  0.27556000  0.73648000  1
  C  C41  1  0.25326000  0.62320000  0.29473000  1
  C  C42  1  0.13393000  0.02906000  0.73159000  1
  C  C43  1  0.85176000  0.19606000  0.10120000  1
  C  C44  1  0.37197000  0.84394000  0.93163000  1
  C  C45  1  0.60975000  0.65145000  0.40437000  1
  C  C46  1  0.01826000  0.07805000  0.86539000  1
  C  C47  1  0.24743000  0.72445000  0.26352000  1
  C  C48  1  0.49868000  0.49882000  0.80128000  1
  C  C49  1  0.21103000  0.08435000  0.83555000  1
  C  C50  1  0.14824000  0.80394000  0.89880000  1
  C  C51  1  0.15131000  0.10952000  0.90394000  1
  C  C52  1  0.35100000  0.77510000  0.46802000  1
  C  C53  1  0.50133000  0.50119000  0.19872000  1
  C  C54  1  0.27566000  0.85134000  0.96835000  1
  C  C55  1  0.58341000  0.18689000  0.41885000  1
  C  C56  1  0.30346000  0.64773000  0.39847000  1
  C  C57  1  0.39026000  0.34857000  0.59564000  1
  C  C58  1  0.52910000  0.63384000  0.23181000  1
  C  C59  1  0.72434000  0.14866000  0.03165000  1
  C  C60  1  0.64900000  0.22491000  0.53198000  1
  C  C61  1  0.66547000  0.72568000  0.51846000  1
  C  C62  1  0.57818000  0.51837000  0.36570000  1
  C  C63  1  0.77468000  0.83533000  0.98216000  1
  C  C64  1  0.41557000  0.28903000  0.66421000  1
  C  C65  1  0.41660000  0.81312000  0.58115000  1
  C  C66  1  0.69654000  0.35228000  0.60153000  1
  C  C67  1  0.84870000  0.89049000  0.09606000  1
  C  C68  1  0.74676000  0.37682000  0.70528000  1
  C  C69  1  0.77521000  0.25229000  0.23621000  1
  C  C70  1  0.33453000  0.27433000  0.48154000  1
  C  C71  1  0.22479000  0.74771000  0.76379000  1
  C  C72  1  0.62804000  0.15607000  0.06837000  1
  C  C73  1  0.31341000  0.91618000  0.08149000  1
  C  C74  1  0.87645000  0.24637000  0.20495000  1
  C  C75  1  0.99879000  0.99876000  0.30149000  1
  C  C76  1  0.34349000  0.87144000  0.43134000  1
  C  C77  1  0.58444000  0.71097000  0.33579000  1
  C  C78  1  0.00122000  0.00125000  0.69851000  1
  C  C79  1  0.78898000  0.91566000  0.16445000  1
  N  N80  1  0.70880000  0.15378000  0.66847000  1
  N  N81  1  0.34665000  0.79163000  0.83178000  1
  N  N82  1  0.47393000  0.55489000  0.73462000  1
  N  N83  1  0.94507000  0.02602000  0.76511000  1
  N  N84  1  0.05494000  0.97398000  0.23489000  1
  N  N85  1  0.29121000  0.84623000  0.33153000  1
  N  N86  1  0.52607000  0.44512000  0.26538000  1
  N  N87  1  0.65336000  0.20838000  0.16822000  1
  Cl  Cl88  1  0.80004000  0.53119000  0.79721000  1
  Cl  Cl89  1  0.79913000  0.00841000  0.35810000  1
  Cl  Cl90  1  0.03096000  0.29983000  0.29680000  1
  Cl  Cl91  1  0.19997000  0.46882000  0.20279000  1
  Cl  Cl92  1  0.20088000  0.99160000  0.64190000  1
  Cl  Cl93  1  0.49163000  0.70066000  0.14202000  1
  Cl  Cl94  1  0.96904000  0.70017000  0.70320000  1
  Cl  Cl95  1  0.50838000  0.29935000  0.85798000  1
  O  O96  1  0.50897000  0.07649000  0.36814000  1
  O  O97  1  0.84077000  0.82491000  0.92868000  1
  O  O98  1  0.60787000  0.26953000  0.38434000  1
  O  O99  1  0.32429000  0.34007000  0.42780000  1
  O  O100  1  0.49103000  0.92351000  0.63186000  1
  O  O101  1  0.30468000  0.15314000  0.44973000  1
  O  O102  1  0.70076000  0.80054000  0.75064000  1
  O  O103  1  0.39214000  0.73047000  0.61566000  1
  O  O104  1  0.57593000  0.01002000  0.86703000  1
  O  O105  1  0.34653000  0.19379000  0.04972000  1
  O  O106  1  0.67572000  0.65994000  0.57220000  1
  O  O107  1  0.15924000  0.17510000  0.07132000  1
  O  O108  1  0.77013000  0.10824000  0.88471000  1
  O  O109  1  0.22988000  0.89177000  0.11529000  1
  O  O110  1  0.65348000  0.80622000  0.95028000  1
  O  O111  1  0.69533000  0.84686000  0.55027000  1
  O  O112  1  0.29924000  0.19947000  0.24936000  1
  O  O113  1  0.42408000  0.98999000  0.13297000  1
