# generated using pymatgen
data_CaH4(C4O3)2
_symmetry_space_group_name_H-M   'P 1'
_cell_length_a   9.66500000
_cell_length_b   10.25690000
_cell_length_c   10.34551611
_cell_angle_alpha   119.71715627
_cell_angle_beta   94.51809295
_cell_angle_gamma   90.00000000
_symmetry_Int_Tables_number   1
_chemical_formula_structural   CaH4(C4O3)2
_chemical_formula_sum   'Ca2 H8 C16 O12'
_cell_volume   887.02867737
_cell_formula_units_Z   2
loop_
 _symmetry_equiv_pos_site_id
 _symmetry_equiv_pos_as_xyz
  1  'x, y, z'
loop_
 _atom_site_type_symbol
 _atom_site_label
 _atom_site_symmetry_multiplicity
 _atom_site_fract_x
 _atom_site_fract_y
 _atom_site_fract_z
 _atom_site_occupancy
  Ca  Ca1  1  0.25000000  0.07825000  0.00000000  1.0
  Ca  Ca2  1  0.75000000  0.92175000  0.00000000  1.0
  H  H1  1  0.25870000  0.72090000  0.67580000  1.0
  H  H2  1  0.81110000  0.60310000  0.63480000  1.0
  H  H3  1  0.24130000  0.04510000  0.32420000  1.0
  H  H4  1  0.68890000  0.96830000  0.36520000  1.0
  H  H5  1  0.74130000  0.27910000  0.32420000  1.0
  H  H6  1  0.18890000  0.39690000  0.36520000  1.0
  H  H7  1  0.75870000  0.95490000  0.67580000  1.0
  H  H8  1  0.31110000  0.03170000  0.63480000  1.0
  C  C1  1  0.02920000  0.78413000  0.77966000  1.0
  C  C2  1  0.01580000  0.63739000  0.63398000  1.0
  C  C3  1  0.13060000  0.57524000  0.55148000  1.0
  C  C4  1  0.88730000  0.56145000  0.58070000  1.0
  C  C5  1  0.47080000  0.00447000  0.22034000  1.0
  C  C6  1  0.48420000  0.00341000  0.36602000  1.0
  C  C7  1  0.36940000  0.02376000  0.44852000  1.0
  C  C8  1  0.61270000  0.98075000  0.41930000  1.0
  C  C9  1  0.97080000  0.21587000  0.22034000  1.0
  C  C10  1  0.98420000  0.36261000  0.36602000  1.0
  C  C11  1  0.86940000  0.42476000  0.44852000  1.0
  C  C12  1  0.11270000  0.43855000  0.41930000  1.0
  C  C13  1  0.52920000  0.99553000  0.77966000  1.0
  C  C14  1  0.51580000  0.99659000  0.63398000  1.0
  C  C15  1  0.63060000  0.97624000  0.55148000  1.0
  C  C16  1  0.38730000  0.01925000  0.58070000  1.0
  O  O1  1  0.15100000  0.84191000  0.82942000  1.0
  O  O2  1  0.25930000  0.64416000  0.59432000  1.0
  O  O3  1  0.92416000  0.83762000  0.84384000  1.0
  O  O4  1  0.34900000  0.01249000  0.17058000  1.0
  O  O5  1  0.24070000  0.04984000  0.40568000  1.0
  O  O6  1  0.57584000  0.99378000  0.15616000  1.0
  O  O7  1  0.84900000  0.15809000  0.17058000  1.0
  O  O8  1  0.74070000  0.35584000  0.40568000  1.0
  O  O9  1  0.07584000  0.16238000  0.15616000  1.0
  O  O10  1  0.65100000  0.98751000  0.82942000  1.0
  O  O11  1  0.75930000  0.95016000  0.59432000  1.0
  O  O12  1  0.42416000  0.00622000  0.84384000  1.0
