# generated using pymatgen
data_CoH6(C3O)4
_symmetry_space_group_name_H-M   'P 1'
_cell_length_a   7.00240000
_cell_length_b   11.46278000
_cell_length_c   17.45722000
_cell_angle_alpha   89.88945000
_cell_angle_beta   91.99127000
_cell_angle_gamma   89.76393000
_symmetry_Int_Tables_number   1
_chemical_formula_structural   CoH6(C3O)4
_chemical_formula_sum   'Co4 H24 C48 O16'
_cell_volume   1400.37710612
_cell_formula_units_Z   4
loop_
 _symmetry_equiv_pos_site_id
 _symmetry_equiv_pos_as_xyz
  1  'x, y, z'
loop_
 _atom_site_type_symbol
 _atom_site_label
 _atom_site_symmetry_multiplicity
 _atom_site_fract_x
 _atom_site_fract_y
 _atom_site_fract_z
 _atom_site_occupancy
  Co  Co1  1  0.00208000  0.50263000  0.00080000  1.0
  Co  Co2  1  0.99805000  0.99992000  0.49955000  1.0
  Co  Co3  1  0.49977000  0.50042000  0.99982000  1.0
  Co  Co4  1  0.49874000  0.00096000  0.49962000  1.0
  H  H1  1  0.69719000  0.54850000  0.27607000  1.0
  H  H2  1  0.94636000  0.29298000  0.43051000  1.0
  H  H3  1  0.95253000  0.51454000  0.18579000  1.0
  H  H4  1  0.68865000  0.43483000  0.39805000  1.0
  H  H5  1  0.53678000  0.18733000  0.32028000  1.0
  H  H6  1  0.53247000  0.29035000  0.19294000  1.0
  H  H7  1  0.30084000  0.04793000  0.22509000  1.0
  H  H8  1  0.05192000  0.79529000  0.07018000  1.0
  H  H9  1  0.04476000  0.01438000  0.31528000  1.0
  H  H10  1  0.30818000  0.93582000  0.10278000  1.0
  H  H11  1  0.46584000  0.68635000  0.17997000  1.0
  H  H12  1  0.46590000  0.79036000  0.30660000  1.0
  H  H13  1  0.30352000  0.45245000  0.72378000  1.0
  H  H14  1  0.05262000  0.70786000  0.56965000  1.0
  H  H15  1  0.04760000  0.48591000  0.81426000  1.0
  H  H16  1  0.30996000  0.56617000  0.60176000  1.0
  H  H17  1  0.46196000  0.81235000  0.68094000  1.0
  H  H18  1  0.46698000  0.70869000  0.80783000  1.0
  H  H19  1  0.69926000  0.95248000  0.77511000  1.0
  H  H20  1  0.94795000  0.20536000  0.92991000  1.0
  H  H21  1  0.95492000  0.98627000  0.68476000  1.0
  H  H22  1  0.69112000  0.06462000  0.89733000  1.0
  H  H23  1  0.53268000  0.31370000  0.82095000  1.0
  H  H24  1  0.53346000  0.21107000  0.69408000  1.0
  C  C1  1  0.26145000  0.36994000  0.20761000  1.0
  C  C2  1  0.41601000  0.24131000  0.30173000  1.0
  C  C3  1  0.10169000  0.32293000  0.32777000  1.0
  C  C4  1  0.26014000  0.24862000  0.34830000  1.0
  C  C5  1  0.10292000  0.38652000  0.25664000  1.0
  C  C6  1  0.26320000  0.41980000  0.12835000  1.0
  C  C7  1  0.26155000  0.16796000  0.41593000  1.0
  C  C8  1  0.41470000  0.30001000  0.23101000  1.0
  C  C9  1  0.80785000  0.48482000  0.29007000  1.0
  C  C10  1  0.94754000  0.34149000  0.37712000  1.0
  C  C11  1  0.95220000  0.46639000  0.23935000  1.0
  C  C12  1  0.80494000  0.42125000  0.35937000  1.0
  C  C13  1  0.73421000  0.87104000  0.29243000  1.0
  C  C14  1  0.58500000  0.74111000  0.19800000  1.0
  C  C15  1  0.89682000  0.82419000  0.17278000  1.0
  C  C16  1  0.74037000  0.74950000  0.15107000  1.0
  C  C17  1  0.89401000  0.88765000  0.24404000  1.0
  C  C18  1  0.72714000  0.91989000  0.37167000  1.0
  C  C19  1  0.74419000  0.66843000  0.08323000  1.0
  C  C20  1  0.58407000  0.80014000  0.26860000  1.0
  C  C21  1  0.18950000  0.98519000  0.21107000  1.0
  C  C22  1  0.05103000  0.84302000  0.12377000  1.0
  C  C23  1  0.04457000  0.96687000  0.26156000  1.0
  C  C24  1  0.19266000  0.92239000  0.14167000  1.0
  C  C25  1  0.73705000  0.62900000  0.79266000  1.0
  C  C26  1  0.58328000  0.75852000  0.69884000  1.0
  C  C27  1  0.89707000  0.67713000  0.67238000  1.0
  C  C28  1  0.73892000  0.75183000  0.65193000  1.0
  C  C29  1  0.89564000  0.61308000  0.74348000  1.0
  C  C30  1  0.73555000  0.57960000  0.87206000  1.0
  C  C31  1  0.73798000  0.83331000  0.58494000  1.0
  C  C32  1  0.58443000  0.69934000  0.76950000  1.0
  C  C33  1  0.19157000  0.51552000  0.70987000  1.0
  C  C34  1  0.05144000  0.65912000  0.62298000  1.0
  C  C35  1  0.04704000  0.53359000  0.76058000  1.0
  C  C36  1  0.19405000  0.57914000  0.64058000  1.0
  C  C37  1  0.26458000  0.12950000  0.70772000  1.0
  C  C38  1  0.41378000  0.25937000  0.80218000  1.0
  C  C39  1  0.10235000  0.17643000  0.82753000  1.0
  C  C40  1  0.25859000  0.25144000  0.84906000  1.0
  C  C41  1  0.10552000  0.11265000  0.75639000  1.0
  C  C42  1  0.27196000  0.08010000  0.62848000  1.0
  C  C43  1  0.25752000  0.33333333  0.91670000  1.0
  C  C44  1  0.41483000  0.20040000  0.73161000  1.0
  C  C45  1  0.81074000  0.01489000  0.78926000  1.0
  C  C46  1  0.94847000  0.15726000  0.87650000  1.0
  C  C47  1  0.95532000  0.03333000  0.73865000  1.0
  C  C48  1  0.80732000  0.07753000  0.85869000  1.0
  O  O1  1  0.11010000  0.41089000  0.08772000  1.0
  O  O2  1  0.41357000  0.15661000  0.45648000  1.0
  O  O3  1  0.10838000  0.10816000  0.42506000  1.0
  O  O4  1  0.41826000  0.46590000  0.10590000  1.0
  O  O5  1  0.87972000  0.91455000  0.41343000  1.0
  O  O6  1  0.59448000  0.65568000  0.04081000  1.0
  O  O7  1  0.89785000  0.61049000  0.07579000  1.0
  O  O8  1  0.56835000  0.96058000  0.39426000  1.0
  O  O9  1  0.88729000  0.58766000  0.91281000  1.0
  O  O10  1  0.58365000  0.84643000  0.54463000  1.0
  O  O11  1  0.89303000  0.89209000  0.57475000  1.0
  O  O12  1  0.57932000  0.53472000  0.89498000  1.0
  O  O13  1  0.11987000  0.08415000  0.58605000  1.0
  O  O14  1  0.40998000  0.34549000  0.95834000  1.0
  O  O15  1  0.10535000  0.39141000  0.92527000  1.0
  O  O16  1  0.43118000  0.03996000  0.60624000  1.0
