# generated using pymatgen
data_H8C14N5O4
_symmetry_space_group_name_H-M   'P 1'
_cell_length_a   15.69755000
_cell_length_b   27.18895415
_cell_length_c   47.09260000
_cell_angle_alpha   90.00000000
_cell_angle_beta   90.00000000
_cell_angle_gamma   90.00000000
_symmetry_Int_Tables_number   1
_chemical_formula_structural   H8C14N5O4
_chemical_formula_sum   'H96 C168 N60 O48'
_cell_volume   20099.12013940
_cell_formula_units_Z   12
loop_
 _symmetry_equiv_pos_site_id
 _symmetry_equiv_pos_as_xyz
  1  'x, y, z'
loop_
 _atom_site_type_symbol
 _atom_site_label
 _atom_site_symmetry_multiplicity
 _atom_site_fract_x
 _atom_site_fract_y
 _atom_site_fract_z
 _atom_site_occupancy
  C  1  1  0.53483100  0.49463100  0.01400300  1
  C  2  1  0.62325600  0.48694400  0.00855500  1
  C  3  1  0.06537900  0.99293600  0.06528000  1
  C  6  1  0.53989700  0.48988300  0.65843900  1
  C  7  1  0.62522100  0.43426100  0.61404400  1
  C  8  1  0.63350600  0.42028800  0.64296600  1
  C  9  1  0.59252900  0.44836200  0.66428700  1
  C  11  1  0.01510800  0.02371900  0.68090600  1
  C  12  1  0.98168800  0.07163500  0.67554600  1
  C  13  1  0.95914900  0.10517100  0.69731000  1
  C  14  1  0.97418900  0.09231700  0.72610400  1
  C  22  1  0.00432400  0.02776100  0.32538300  1
  C  23  1  0.99874800  0.01571500  0.29595800  1
  C  24  1  0.01875900  0.04933300  0.27398000  1
  C  25  1  0.04072200  0.07477800  0.33113100  1
  C  32  1  0.01362700  0.00202100  0.86710100  1
  C  33  1  0.06300600  0.03380400  0.85011100  1
  C  34  1  0.06128500  0.03141400  0.82003600  1
  C  35  1  0.01319200  0.00726400  0.89695100  1
  C  37  1  0.01905100  0.01216900  0.47257800  1
  C  38  1  0.09372400  0.00702700  0.48951500  1
  C  39  1  0.08675000  0.00451600  0.51950000  1
  C  40  1  0.02519300  0.01188300  0.44251400  1
  C  42  1  0.84416400  0.21857500  0.67037300  1
  C  43  1  0.82668900  0.24502500  0.64481900  1
  C  44  1  0.77933900  0.28943300  0.64562600  1
  C  48  1  0.89221100  0.17417900  0.66904600  1
  C  51  1  0.02667700  0.99590100  0.01386900  1
  C  52  1  0.11493400  0.98817700  0.00814300  1
  C  53  1  0.57230800  0.49217800  0.06553500  1
  C  54  1  0.51367100  0.50061100  0.04326700  1
  C  57  1  0.04644000  0.99216000  0.65852000  1
  C  58  1  0.12742000  0.93517000  0.61373400  1
  C  59  1  0.13718100  0.92154700  0.64265400  1
  C  60  1  0.09846800  0.95030100  0.66414300  1
  C  62  1  0.50750800  0.52138100  0.68067000  1
  C  63  1  0.47486600  0.56943000  0.67517900  1
  C  64  1  0.45312800  0.60326000  0.69687400  1
  C  65  1  0.46781000  0.59044600  0.72569400  1
  C  73  1  0.51077600  0.52572800  0.32502800  1
  C  74  1  0.50408000  0.51405400  0.29558400  1
  C  75  1  0.52178800  0.54824800  0.27367600  1
  C  76  1  0.54645200  0.57288000  0.33083100  1
  C  83  1  0.51722600  0.49917000  0.86673600  1
  C  84  1  0.56509300  0.53092900  0.84926400  1
  C  85  1  0.55960300  0.52907100  0.81922900  1
  C  86  1  0.51998000  0.50422300  0.89658700  1
  C  88  1  0.52371800  0.51104200  0.47243600  1
  C  89  1  0.59740300  0.50628300  0.48988800  1
  C  90  1  0.58862300  0.50390300  0.51982500  1
  C  91  1  0.53155500  0.51019600  0.44241000  1
  C  93  1  0.34272400  0.71804500  0.66982100  1
  C  94  1  0.32618900  0.74473300  0.64428000  1
  C  95  1  0.27992200  0.78951500  0.64509300  1
  C  99  1  0.38914600  0.67308200  0.66848300  1
  C  101  1  0.52583700  0.49901900  0.62898700  1
  C  102  1  0.56829100  0.47304100  0.60709800  1
  C  104  1  0.99986300  0.04352900  0.73249400  1
  C  109  1  0.00825400  0.01143800  0.53361700  1
  C  110  1  0.74703300  0.30897100  0.67121400  1
  C  111  1  0.76295700  0.28217000  0.69625000  1
  C  112  1  0.81044500  0.23782000  0.69629000  1
  C  116  1  0.69927400  0.35301000  0.67248600  1
  C  118  1  0.03117100  0.00120400  0.62911400  1
  C  119  1  0.07142700  0.97452800  0.60703400  1
  C  121  1  0.49223600  0.54148800  0.73218400  1
  C  122  1  0.50903400  0.50788600  0.70995300  1
  C  127  1  0.50921400  0.51054600  0.53340700  1
  C  128  1  0.24815900  0.80930300  0.67069200  1
  C  129  1  0.26345000  0.78239900  0.69572800  1
  C  130  1  0.30971700  0.73763800  0.69575500  1
  C  134  1  0.20173800  0.85379200  0.67202100  1
  C  136  1  0.68476000  0.48090100  0.03029200  1
  C  137  1  0.65800100  0.47993400  0.05909500  1
  C  140  1  0.04960900  0.09700500  0.28077300  1
  C  141  1  0.06475700  0.10860600  0.30972400  1
  C  150  1  0.17698300  0.98181400  0.02963600  1
  C  151  1  0.15096700  0.98084300  0.05852000  1
  C  154  1  0.55143500  0.59612800  0.28056900  1
  C  155  1  0.56811200  0.60732400  0.30948000  1
  C  165  1  0.01744100  0.01019400  0.71019100  1
  C  166  1  0.00139100  0.01049800  0.56354100  1
  C  174  1  0.00600100  0.00139200  0.04320300  1
  C  175  1  0.96486200  0.04426300  0.18677400  1
  C  176  1  0.46644400  0.54360300  0.18642300  1
  C  178  1  0.47141900  0.49410500  0.99176600  1
  C  179  1  0.98404900  0.99853400  0.96230700  1
  C  180  1  0.92505300  0.98862200  0.94031400  1
  C  181  1  0.34531500  0.47920200  0.94736600  1
  C  182  1  0.32027600  0.48190900  0.97629000  1
  C  183  1  0.38285900  0.48834500  0.99761200  1
  C  203  1  0.47993000  0.49386200  0.34732400  1
  C  204  1  0.42421300  0.45348200  0.34191000  1
  C  205  1  0.38438600  0.42581600  0.36366700  1
  C  206  1  0.39631400  0.43975200  0.39245900  1
  C  207  1  0.45755000  0.47648000  0.39888500  1
  C  208  1  0.49950000  0.50152700  0.37658800  1
  C  217  1  0.49545300  0.50032800  0.19992400  1
  C  218  1  0.51865600  0.46045200  0.18242000  1
  C  219  1  0.51865600  0.46419200  0.15238800  1
  C  220  1  0.98427600  0.00818000  0.13928300  1
  C  221  1  0.95623700  0.04762200  0.15686900  1
  C  226  1  0.50153300  0.49633800  0.22977900  1
  C  228  1  0.97934600  0.01238100  0.10928000  1
  C  230  1  0.51046400  0.49151600  0.80579600  1
  C  231  1  0.46633500  0.45718200  0.82328500  1
  C  232  1  0.46732400  0.46282400  0.85321300  1
  C  238  1  0.50541700  0.48783000  0.77578300  1
  C  241  1  0.93554300  0.01957300  0.51667600  1
  C  242  1  0.93905500  0.01782300  0.48660100  1
  C  250  1  0.58827700  0.97986800  0.00310700  1
  C  251  1  0.53987000  0.98561000  0.02803900  1
  C  252  1  0.44963100  0.98500300  0.02790500  1
  C  253  1  0.91239600  0.47862100  0.00344100  1
  C  254  1  0.96093700  0.47363700  0.97794200  1
  C  256  1  0.05123400  0.47457100  0.97883400  1
  C  264  1  0.67820900  0.98097200  0.00473100  1
  C  266  1  0.82174500  0.47787400  0.00201600  1
  C  277  1  0.17736000  0.22030700  0.33778200  1
  C  278  1  0.21014200  0.24149700  0.36278100  1
  C  279  1  0.25427200  0.28697600  0.36273500  1
  C  280  1  0.26718900  0.31316800  0.33676700  1
  C  281  1  0.23539700  0.29145200  0.31125700  1
  C  283  1  0.19125000  0.24596000  0.31214300  1
  C  291  1  0.13373500  0.17488000  0.33917000  1
  C  293  1  0.31150300  0.35883100  0.33537400  1
  C  295  1  0.96313400  0.99518000  0.99169600  1
  C  296  1  0.49215500  0.49656600  0.96231800  1
  C  297  1  0.43193000  0.48833800  0.94043900  1
  C  298  1  0.83932000  0.97688600  0.94712600  1
  C  299  1  0.81313000  0.98026200  0.97592100  1
  C  300  1  0.87475900  0.98827600  0.99741200  1
  C  320  1  0.97261900  0.99611400  0.34766600  1
  C  321  1  0.91775700  0.95534000  0.34222400  1
  C  322  1  0.87876500  0.92716300  0.36394300  1
  C  323  1  0.89023600  0.94107700  0.39275800  1
  C  324  1  0.95030500  0.97841200  0.39922200  1
  C  325  1  0.99149400  0.00398400  0.37696200  1
  C  334  1  0.99382800  0.00095800  0.20024200  1
  C  335  1  0.01685000  0.96110000  0.18269100  1
  C  336  1  0.01613900  0.96478500  0.15264200  1
  C  337  1  0.48755500  0.50771700  0.13898500  1
  C  338  1  0.45861300  0.54704200  0.15649400  1
  C  343  1  0.99963900  0.99700400  0.23011100  1
  C  345  1  0.48439100  0.51207900  0.10897900  1
  C  347  1  0.01402800  0.99355400  0.80615100  1
  C  348  1  0.96830100  0.95927200  0.82321900  1
  C  349  1  0.96592300  0.96523800  0.85311600  1
  C  355  1  0.01208500  0.98965900  0.77610100  1
  C  358  1  0.43756000  0.51867400  0.51597300  1
  C  359  1  0.44291600  0.51683500  0.48593000  1
  C  365  1  0.50043000  0.50924700  0.56326900  1
  C  367  1  0.09658500  0.48076900  0.00446000  1
  C  368  1  0.04835300  0.48631500  0.02946600  1
  C  369  1  0.95807400  0.48531800  0.02941900  1
  C  370  1  0.40390700  0.97848900  0.00190800  1
  C  371  1  0.45299500  0.97362300  0.97639000  1
  C  373  1  0.54306700  0.97420400  0.97740500  1
  C  380  1  0.18650800  0.48240900  0.00580500  1
  C  382  1  0.31319500  0.97785300  0.00078000  1
  C  393  1  0.67849300  0.71956400  0.33769700  1
  C  394  1  0.71096900  0.74078600  0.36273000  1
  C  395  1  0.75402700  0.78660300  0.36277700  1
  C  396  1  0.76609300  0.81310600  0.33686600  1
  C  397  1  0.73494600  0.79125500  0.31130800  1
  C  399  1  0.69170500  0.74547600  0.31211100  1
  C  407  1  0.63606200  0.67377400  0.33898800  1
  C  409  1  0.80885500  0.85926400  0.33556900  1
  H  4  1  0.64460200  0.48355300  0.98828600  1
  H  16  1  0.95152200  0.16008100  0.74323200  1
  H  17  1  0.70807800  0.38314100  0.59754700  1
  H  18  1  0.60646900  0.43924100  0.68467300  1
  H  19  1  0.97564900  0.08399700  0.65529700  1
  H  26  1  0.03472400  0.02990200  0.38286700  1
  H  28  1  0.94589900  0.07355100  0.19888500  1
  H  36  1  0.05531800  0.03067400  0.90654700  1
  H  41  1  0.08245000  0.01819700  0.43283700  1
  H  45  1  0.76847500  0.30761400  0.62695700  1
  H  49  1  0.90904100  0.16028900  0.64971000  1
  H  50  1  0.55307100  0.50345100  0.95610200  1
  H  55  1  0.13573000  0.98460900  0.98781800  1
  H  67  1  0.44774300  0.65860900  0.74267400  1
  H  68  1  0.20669500  0.88253900  0.59685200  1
  H  69  1  0.11336300  0.94126800  0.68446500  1
  H  70  1  0.46947300  0.58178800  0.65490600  1
  H  77  1  0.54337400  0.52715200  0.38243800  1
  H  79  1  0.44713500  0.57283900  0.19851500  1
  H  87  1  0.56378900  0.52705200  0.90580300  1
  H  92  1  0.58931400  0.51627600  0.43302000  1
  H  96  1  0.26969300  0.80787200  0.62644100  1
  H  100  1  0.40554300  0.65899600  0.64915300  1
  H  103  1  0.99095100  0.02858400  0.62303900  1
  H  105  1  0.97055300  0.11781200  0.76719500  1
  H  106  1  0.66368800  0.41831300  0.57331300  1
  H  113  1  0.73914100  0.29488800  0.71513600  1
  H  117  1  0.67651700  0.36477200  0.69166500  1
  H  120  1  0.48516300  0.52608100  0.62276700  1
  H  123  1  0.46532000  0.61625400  0.76670700  1
  H  124  1  0.16196100  0.91789800  0.57278500  1
  H  131  1  0.24012600  0.79536700  0.71462500  1
  H  135  1  0.17965300  0.86581100  0.69123200  1
  H  139  1  0.19178900  0.96876100  0.09939400  1
  H  142  1  0.05891800  0.12303100  0.23986000  1
  H  143  1  0.04669100  0.08666100  0.35146500  1
  H  144  1  0.09849000  0.06080200  0.85961600  1
  H  146  1  0.14113100  0.99969300  0.53117100  1
  H  153  1  0.69757100  0.46810200  0.10013200  1
  H  156  1  0.55653000  0.62320500  0.23980400  1
  H  157  1  0.55320100  0.58444700  0.35120400  1
  H  158  1  0.60183300  0.55772300  0.85842400  1
  H  160  1  0.64230800  0.49921400  0.53186700  1
  H  164  1  0.04443100  0.00718900  0.95624000  1
  H  167  1  0.77010500  0.45578400  0.07615200  1
  H  170  1  0.26323300  0.95620100  0.07512500  1
  H  173  1  0.03453300  0.97555400  0.71606200  1
  H  185  1  0.94551200  0.00998900  0.04921700  1
  H  186  1  0.22718800  0.46338700  0.93085800  1
  H  187  1  0.79905000  0.96172500  0.90652500  1
  H  188  1  0.36218800  0.48591800  0.01799400  1
  H  197  1  0.52565100  0.47318800  0.71586700  1
  H  202  1  0.48390400  0.48015100  0.28938800  1
  H  210  1  0.30446300  0.39547700  0.40958300  1
  H  211  1  0.35913600  0.42566500  0.43353300  1
  H  212  1  0.08907300  0.16303700  0.26401600  1
  H  213  1  0.40835200  0.44451100  0.32165000  1
  H  222  1  0.54008800  0.42857800  0.19155900  1
  H  227  1  0.51344500  0.46291600  0.23893800  1
  H  229  1  0.94157800  0.03851800  0.10007700  1
  H  233  1  0.43343400  0.43838400  0.86529000  1
  H  239  1  0.48563800  0.45587300  0.76643700  1
  H  243  1  0.87759100  0.02447900  0.52626800  1
  H  249  1  0.94600600  0.02129500  0.57314600  1
  H  255  1  0.57068000  0.99060800  0.04701000  1
  H  257  1  0.08402900  0.47069800  0.96019600  1
  H  265  1  0.70666100  0.98652600  0.02400000  1
  H  267  1  0.79258200  0.47672700  0.98265600  1
  H  282  1  0.20233300  0.22343900  0.38170400  1
  H  284  1  0.16880700  0.23160600  0.29351100  1
  H  292  1  0.12669200  0.15786900  0.35839200  1
  H  294  1  0.32445500  0.37398300  0.31602000  1
  H  302  1  0.45328300  0.50965200  0.04914200  1
  H  303  1  0.72394500  0.95552000  0.93060800  1
  H  304  1  0.30209400  0.46814600  0.90662100  1
  H  305  1  0.85385000  0.98613900  0.01779100  1
  H  319  1  0.97794000  0.98192800  0.28978900  1
  H  327  1  0.80030100  0.89544400  0.40985200  1
  H  328  1  0.85370200  0.92635800  0.43381800  1
  H  329  1  0.58693900  0.66304900  0.26401800  1
  H  330  1  0.90243300  0.94617800  0.32195100  1
  H  339  1  0.03851600  0.92926000  0.19180500  1
  H  344  1  0.01096400  0.96356800  0.23933100  1
  H  346  1  0.44736400  0.53833600  0.09955800  1
  H  350  1  0.93101500  0.94077500  0.86484600  1
  H  356  1  0.99338900  0.95760900  0.76661600  1
  H  360  1  0.37901700  0.52352500  0.52516800  1
  H  366  1  0.44430600  0.51970000  0.57251500  1
  H  372  1  0.07928800  0.49160800  0.04838400  1
  H  374  1  0.57633700  0.97034600  0.95883100  1
  H  381  1  0.21547600  0.48781900  0.02500100  1
  H  383  1  0.28339300  0.97641100  0.98159000  1
  H  398  1  0.70374500  0.72249600  0.38160600  1
  H  400  1  0.66967000  0.73103200  0.29344800  1
  H  408  1  0.62982700  0.65648300  0.35815800  1
  H  410  1  0.82131700  0.87466000  0.31624500  1
  N  5  1  0.04386700  0.99503600  0.09319000  1
  N  10  1  0.66810200  0.40935400  0.59322700  1
  N  15  1  0.96087600  0.12571100  0.74733700  1
  N  20  1  0.91850000  0.14845800  0.69202400  1
  N  21  1  0.67927100  0.37912100  0.64898400  1
  N  27  1  0.01047000  0.03779400  0.24607100  1
  N  29  1  0.92535600  0.09171400  0.14448000  1
  N  46  1  0.85722400  0.22750200  0.61830600  1
  N  56  1  0.54967700  0.49447700  0.09332700  1
  N  61  1  0.16764300  0.90929200  0.59271600  1
  N  66  1  0.45577400  0.62411400  0.74686500  1
  N  71  1  0.41419000  0.64701600  0.69148500  1
  N  72  1  0.18182500  0.87991600  0.64852500  1
  N  78  1  0.51240500  0.53709700  0.24575200  1
  N  80  1  0.42749800  0.59100800  0.14401600  1
  N  97  1  0.35684000  0.72715900  0.61778800  1
  N  107  1  0.00626100  0.03094000  0.76031100  1
  N  108  1  0.55633000  0.48338400  0.57916600  1
  N  114  1  0.82056500  0.21258000  0.72238600  1
  N  125  1  0.49961500  0.52911600  0.76000100  1
  N  126  1  0.05788000  0.98452800  0.57914000  1
  N  132  1  0.31958600  0.71251400  0.72189300  1
  N  138  1  0.71432100  0.46902900  0.08030700  1
  N  145  1  0.11198400  0.06455500  0.80403800  1
  N  147  1  0.17436000  0.00088400  0.47637900  1
  N  152  1  0.20789700  0.96978000  0.07951500  1
  N  159  1  0.60817700  0.56256700  0.80275300  1
  N  161  1  0.67893200  0.50038300  0.47733900  1
  N  168  1  0.06841700  0.13016200  0.25982200  1
  N  171  1  0.56740100  0.62998400  0.25973100  1
  N  184  1  0.28648600  0.47029400  0.92654300  1
  N  189  1  0.76990200  0.47844400  0.02496300  1
  N  190  1  0.23567000  0.47952600  0.98230400  1
  N  191  1  0.94703700  0.99022900  0.91244300  1
  N  209  1  0.35177800  0.41710000  0.41368100  1
  N  214  1  0.47249000  0.48653200  0.42668500  1
  N  215  1  0.33813200  0.38447200  0.35834100  1
  N  216  1  0.10472700  0.15175000  0.31568300  1
  N  223  1  0.54399900  0.42308000  0.13587100  1
  N  234  1  0.41639300  0.41945700  0.81078400  1
  N  244  1  0.86349900  0.02534300  0.47065400  1
  N  258  1  0.40707000  0.99245400  0.05406500  1
  N  259  1  0.91951300  0.46716800  0.95140100  1
  N  285  1  0.28715000  0.30455700  0.38883400  1
  N  286  1  0.24651200  0.31542400  0.28472600  1
  N  301  1  0.78224700  0.96491400  0.92628400  1
  N  306  1  0.26188000  0.97890900  0.02389000  1
  N  307  1  0.72823900  0.97761800  0.98146700  1
  N  308  1  0.45334000  0.48919500  0.91251100  1
  N  326  1  0.84674100  0.91771800  0.41396800  1
  N  331  1  0.96567700  0.98811100  0.42704000  1
  N  332  1  0.83420200  0.88520900  0.35858100  1
  N  333  1  0.60697000  0.65077900  0.31547000  1
  N  340  1  0.04161300  0.92375000  0.13608300  1
  N  351  1  0.92012800  0.92122300  0.81029400  1
  N  361  1  0.36832200  0.52438900  0.46948800  1
  N  375  1  0.91520100  0.49282100  0.05552100  1
  N  376  1  0.41976400  0.96699900  0.94866800  1
  N  401  1  0.78695600  0.80412800  0.38888300  1
  N  402  1  0.74591600  0.81530900  0.28479700  1
  O  30  1  0.61975800  0.41086200  0.14089000  1
  O  31  1  0.97216300  0.12789000  0.15024800  1
  O  47  1  0.79746900  0.21826300  0.60135200  1
  O  81  1  0.11767300  0.91192900  0.14092000  1
  O  82  1  0.47341200  0.62745300  0.15000000  1
  O  98  1  0.29721700  0.71845400  0.60069100  1
  O  115  1  0.85623700  0.23890300  0.74086600  1
  O  133  1  0.35618400  0.73867900  0.74025300  1
  O  148  1  0.20675900  0.95971700  0.48197200  1
  O  149  1  0.90773300  0.25735400  0.60682000  1
  O  162  1  0.71146100  0.45940000  0.48328000  1
  O  163  1  0.40813300  0.75676300  0.60646700  1
  O  169  1  0.09171200  0.10857400  0.80862700  1
  O  172  1  0.58811600  0.60645600  0.80784100  1
  O  177  1  0.37559700  0.00274200  0.94033700  1
  O  224  1  0.49669200  0.38649100  0.14002400  1
  O  225  1  0.85061800  0.10104600  0.15237600  1
  O  235  1  0.33869800  0.42390000  0.81674500  1
  O  236  1  0.18997500  0.05937800  0.80927900  1
  O  237  1  0.44114700  0.37751000  0.81836100  1
  O  245  1  0.80833300  0.99311700  0.47597500  1
  O  246  1  0.83165700  0.06702800  0.47516200  1
  O  247  1  0.22557400  0.03411500  0.48362000  1
  O  260  1  0.42097200  0.03459400  0.06403500  1
  O  261  1  0.93853400  0.42679800  0.94003600  1
  O  262  1  0.42771100  0.96079100  0.07230400  1
  O  263  1  0.93632400  0.50142800  0.93437300  1
  O  273  1  0.75047200  0.19773100  0.73205600  1
  O  287  1  0.34369500  0.27657400  0.39866000  1
  O  288  1  0.17650100  0.32626000  0.27337900  1
  O  289  1  0.22969300  0.30987800  0.40721300  1
  O  290  1  0.28934200  0.28984900  0.26767700  1
  O  341  1  0.99502100  0.88692600  0.14043600  1
  O  342  1  0.35229100  0.59988000  0.15159100  1
  O  352  1  0.84180500  0.92551200  0.81532200  1
  O  353  1  0.68677500  0.55750900  0.80690000  1
  O  354  1  0.94439200  0.87947500  0.81840100  1
  O  362  1  0.31251600  0.49242800  0.47459500  1
  O  363  1  0.33666600  0.56623000  0.47364600  1
  O  364  1  0.72925200  0.53386400  0.48489400  1
  O  377  1  0.92865800  0.53508500  0.06538500  1
  O  378  1  0.37903100  0.92747600  0.94615400  1
  O  379  1  0.93612700  0.46142600  0.07387600  1
  O  389  1  0.24931600  0.69826100  0.73171400  1
  O  403  1  0.84412800  0.77635600  0.39851100  1
  O  404  1  0.67584100  0.82582400  0.27339600  1
  O  405  1  0.72965400  0.80879200  0.40737600  1
  O  406  1  0.78923500  0.78994900  0.26777300  1
