# generated using pymatgen
data_ZnH11C9(NO)2
_symmetry_space_group_name_H-M   'P 1'
_cell_length_a   9.62082000
_cell_length_b   19.00347000
_cell_length_c   19.05391000
_cell_angle_alpha   119.41031000
_cell_angle_beta   90.08891000
_cell_angle_gamma   90.01072000
_symmetry_Int_Tables_number   1
_chemical_formula_structural   ZnH11C9(NO)2
_chemical_formula_sum   'Zn6 H66 C54 N12 O12'
_cell_volume   3034.65298056
_cell_formula_units_Z   6
loop_
 _symmetry_equiv_pos_site_id
 _symmetry_equiv_pos_as_xyz
  1  'x, y, z'
loop_
 _atom_site_type_symbol
 _atom_site_label
 _atom_site_symmetry_multiplicity
 _atom_site_fract_x
 _atom_site_fract_y
 _atom_site_fract_z
 _atom_site_occupancy
  Zn  Zn0  1  0.01040000  0.94314000  0.50478000  1
  Zn  Zn1  1  0.33628000  0.49619000  0.43743000  1
  Zn  Zn2  1  0.67007000  0.56423000  0.05863000  1
  Zn  Zn3  1  0.51112000  0.05706000  0.49420000  1
  Zn  Zn4  1  0.83677000  0.50418000  0.56301000  1
  Zn  Zn5  1  0.17021000  0.43554000  0.94116000  1
  H  H6  1  0.76984000  0.89783000  0.56710000  1
  H  H7  1  0.71520000  0.79397000  0.60470000  1
  H  H8  1  0.11285000  0.68156000  0.50260000  1
  H  H9  1  0.15267000  0.78845000  0.46785000  1
  H  H10  1  0.97034000  0.66500000  0.62459000  1
  H  H11  1  0.79042000  0.68439000  0.62451000  1
  H  H12  1  0.73239000  0.63082000  0.46558000  1
  H  H13  1  0.88237000  0.52996000  0.35559000  1
  H  H14  1  0.70566000  0.49805000  0.33471000  1
  H  H15  1  0.82005000  0.45163000  0.37327000  1
  H  H16  1  0.96100000  0.56486000  0.48922000  1
  H  H17  1  0.09831000  0.43211000  0.32908000  1
  H  H18  1  0.04692000  0.39332000  0.18782000  1
  H  H19  1  0.44670000  0.49569000  0.17842000  1
  H  H20  1  0.48309000  0.53158000  0.31976000  1
  H  H21  1  0.30676000  0.37484000  0.04162000  1
  H  H22  1  0.12658000  0.37273000  0.05893000  1
  H  H23  1  0.06707000  0.53244000  0.16287000  1
  H  H24  1  0.21625000  0.64364000  0.17173000  1
  H  H25  1  0.03943000  0.66382000  0.16000000  1
  H  H26  1  0.15414000  0.62649000  0.07631000  1
  H  H27  1  0.29541000  0.50963000  0.07369000  1
  H  H28  1  0.43247000  0.67319000  0.10460000  1
  H  H29  1  0.38278000  0.81347000  0.20844000  1
  H  H30  1  0.78603000  0.81919000  0.31498000  1
  H  H31  1  0.82056000  0.67890000  0.20852000  1
  H  H32  1  0.64442000  0.95806000  0.33443000  1
  H  H33  1  0.46396000  0.94108000  0.31543000  1
  H  H34  1  0.40211000  0.83576000  0.37057000  1
  H  H35  1  0.55331000  0.82460000  0.47142000  1
  H  H36  1  0.37666000  0.83541000  0.50283000  1
  H  H37  1  0.49144000  0.91934000  0.54920000  1
  H  H38  1  0.63335000  0.92233000  0.43508000  1
  H  H39  1  0.27237000  0.10170000  0.43121000  1
  H  H40  1  0.21632000  0.20583000  0.39432000  1
  H  H41  1  0.61520000  0.31817000  0.49551000  1
  H  H42  1  0.65651000  0.21083000  0.52934000  1
  H  H43  1  0.46952000  0.33641000  0.37523000  1
  H  H44  1  0.28996000  0.31626000  0.37539000  1
  H  H45  1  0.23332000  0.36930000  0.53473000  1
  H  H46  1  0.38332000  0.47102000  0.64511000  1
  H  H47  1  0.20632000  0.50210000  0.66517000  1
  H  H48  1  0.32019000  0.54877000  0.62681000  1
  H  H49  1  0.46168000  0.43546000  0.51095000  1
  H  H50  1  0.59854000  0.56711000  0.67041000  1
  H  H51  1  0.54720000  0.60682000  0.81190000  1
  H  H52  1  0.94583000  0.50452000  0.82275000  1
  H  H53  1  0.98271000  0.46795000  0.68116000  1
  H  H54  1  0.80670000  0.62599000  0.95917000  1
  H  H55  1  0.62680000  0.62822000  0.94134000  1
  H  H56  1  0.56705000  0.46744000  0.83622000  1
  H  H57  1  0.71603000  0.35651000  0.82922000  1
  H  H58  1  0.53912000  0.33655000  0.84080000  1
  H  H59  1  0.65371000  0.37525000  0.92500000  1
  H  H60  1  0.79512000  0.49097000  0.92600000  1
  H  H61  1  0.93145000  0.32716000  0.89484000  1
  H  H62  1  0.88250000  0.18592000  0.79273000  1
  H  H63  1  0.28230000  0.18058000  0.68390000  1
  H  H64  1  0.31642000  0.32186000  0.78882000  1
  H  H65  1  0.14339000  0.04136000  0.66704000  1
  H  H66  1  0.96278000  0.05821000  0.68474000  1
  H  H67  1  0.90598000  0.16580000  0.63003000  1
  H  H68  1  0.05598000  0.17387000  0.52660000  1
  H  H69  1  0.87869000  0.16216000  0.49536000  1
  H  H70  1  0.99307000  0.07800000  0.45094000  1
  H  H71  1  0.13484000  0.07820000  0.56711000  1
  C  C72  1  0.84315000  0.84992000  0.55569000  1
  C  C73  1  0.81438000  0.79153000  0.57605000  1
  C  C74  1  0.91140000  0.72935000  0.56145000  1
  C  C75  1  0.03562000  0.72923000  0.51992000  1
  C  C76  1  0.05975000  0.78853000  0.50029000  1
  C  C77  1  0.88523000  0.66916000  0.58788000  1
  C  C78  1  0.75402000  0.57272000  0.46275000  1
  C  C79  1  0.62320000  0.54368000  0.48658000  1
  C  C80  1  0.79278000  0.50918000  0.37622000  1
  C  C81  1  0.17273000  0.44340000  0.29289000  1
  C  C82  1  0.14590000  0.42228000  0.21425000  1
  C  C83  1  0.24449000  0.43674000  0.16709000  1
  C  C84  1  0.36828000  0.47863000  0.20865000  1
  C  C85  1  0.39038000  0.49902000  0.28742000  1
  C  C86  1  0.22022000  0.41051000  0.08098000  1
  C  C87  1  0.08829000  0.53571000  0.10792000  1
  C  C88  1  0.95690000  0.51229000  0.05571000  1
  C  C89  1  0.12694000  0.62275000  0.13036000  1
  C  C90  1  0.50780000  0.70834000  0.15147000  1
  C  C91  1  0.48182000  0.78638000  0.20980000  1
  C  C92  1  0.58145000  0.83238000  0.27060000  1
  C  C93  1  0.70602000  0.79012000  0.26897000  1
  C  C94  1  0.72739000  0.71192000  0.20989000  1
  C  C95  1  0.55779000  0.91827000  0.33054000  1
  C  C96  1  0.42568000  0.88995000  0.42812000  1
  C  C97  1  0.29604000  0.94311000  0.45711000  1
  C  C98  1  0.46399000  0.86586000  0.49177000  1
  C  C99  1  0.34570000  0.14962000  0.44240000  1
  C  C100  1  0.31618000  0.20818000  0.42249000  1
  C  C101  1  0.41285000  0.27065000  0.43724000  1
  C  C102  1  0.53798000  0.27039000  0.47809000  1
  C  C103  1  0.56295000  0.21087000  0.49725000  1
  C  C104  1  0.38524000  0.33151000  0.41184000  1
  C  C105  1  0.25489000  0.42734000  0.53745000  1
  C  C106  1  0.12339000  0.45608000  0.51392000  1
  C  C107  1  0.29354000  0.49119000  0.62396000  1
  C  C108  1  0.67321000  0.55662000  0.70713000  1
  C  C109  1  0.64640000  0.57825000  0.78585000  1
  C  C110  1  0.74511000  0.56440000  0.83343000  1
  C  C111  1  0.86835000  0.52191000  0.79220000  1
  C  C112  1  0.89055000  0.50110000  0.71336000  1
  C  C113  1  0.72027000  0.59039000  0.91941000  1
  C  C114  1  0.58810000  0.46462000  0.89148000  1
  C  C115  1  0.45648000  0.48804000  0.94321000  1
  C  C116  1  0.62662000  0.37788000  0.87027000  1
  C  C117  1  0.00670000  0.29174000  0.84822000  1
  C  C118  1  0.98116000  0.21319000  0.79095000  1
  C  C119  1  0.08060000  0.16708000  0.73041000  1
  C  C120  1  0.20365000  0.20977000  0.73061000  1
  C  C121  1  0.22457000  0.28843000  0.78866000  1
  C  C122  1  0.05711000  0.08113000  0.67035000  1
  C  C123  1  0.92773000  0.11086000  0.57273000  1
  C  C124  1  0.79654000  0.05868000  0.54423000  1
  C  C125  1  0.96638000  0.13269000  0.50750000  1
  N  N126  1  0.86786000  0.58281000  0.51935000  1
  N  N127  1  0.96784000  0.85199000  0.51915000  1
  N  N128  1  0.20216000  0.47927000  0.06221000  1
  N  N129  1  0.29684000  0.48054000  0.33183000  1
  N  N130  1  0.54060000  0.93557000  0.41724000  1
  N  N131  1  0.63234000  0.66890000  0.14813000  1
  N  N132  1  0.36820000  0.41757000  0.48090000  1
  N  N133  1  0.47099000  0.14736000  0.47844000  1
  N  N134  1  0.70186000  0.52125000  0.93751000  1
  N  N135  1  0.79746000  0.51969000  0.66870000  1
  N  N136  1  0.04137000  0.06459000  0.58385000  1
  N  N137  1  0.13039000  0.33156000  0.85069000  1
  O  O138  1  0.63819000  0.49454000  0.51397000  1
  O  O139  1  0.50708000  0.56756000  0.47375000  1
  O  O140  1  0.97164000  0.48532000  0.97987000  1
  O  O141  1  0.84075000  0.52545000  0.09204000  1
  O  O142  1  0.31238000  0.01849000  0.50666000  1
  O  O143  1  0.17928000  0.90749000  0.43313000  1
  O  O144  1  0.13766000  0.50466000  0.48587000  1
  O  O145  1  0.00750000  0.43285000  0.52792000  1
  O  O146  1  0.47117000  0.51581000  0.01921000  1
  O  O147  1  0.34036000  0.47414000  0.90651000  1
  O  O148  1  0.81138000  0.98287000  0.49611000  1
  O  O149  1  0.68029000  0.09516000  0.56670000  1
