# generated using pymatgen
data_ZnH22C34(NO)4
_symmetry_space_group_name_H-M   'P 1'
_cell_length_a   11.55436000
_cell_length_b   15.20869000
_cell_length_c   15.26453000
_cell_angle_alpha   111.82721000
_cell_angle_beta   96.46535000
_cell_angle_gamma   98.51027000
_symmetry_Int_Tables_number   1
_chemical_formula_structural   ZnH22C34(NO)4
_chemical_formula_sum   'Zn2 H44 C68 N8 O8'
_cell_volume   2421.27060723
_cell_formula_units_Z   2
loop_
 _symmetry_equiv_pos_site_id
 _symmetry_equiv_pos_as_xyz
  1  'x, y, z'
loop_
 _atom_site_type_symbol
 _atom_site_label
 _atom_site_symmetry_multiplicity
 _atom_site_fract_x
 _atom_site_fract_y
 _atom_site_fract_z
 _atom_site_occupancy
  Zn  Zn1  1  0.35090000  0.14040000  0.73257000  1.0
  Zn  Zn2  1  0.64910000  0.85960000  0.26743000  1.0
  H  H1  1  0.33767000  0.66545000  0.64786000  1.0
  H  H2  1  0.34415000  0.22813000  0.19561000  1.0
  H  H3  1  0.44994000  0.47149000  0.05702000  1.0
  H  H4  1  0.39266000  0.28562000  0.34653000  1.0
  H  H5  1  0.31740000  0.83630000  0.70660000  1.0
  H  H6  1  0.80290000  0.30271000  0.80002000  1.0
  H  H7  1  0.32195000  0.65623000  0.36154000  1.0
  H  H8  1  0.88944000  0.03113000  0.58859000  1.0
  H  H9  1  0.32260000  0.51929000  0.58726000  1.0
  H  H10  1  0.97932000  0.27316000  0.86370000  1.0
  H  H11  1  0.73560000  0.99134000  0.65810000  1.0
  H  H12  1  0.37353000  0.19951000  0.41969000  1.0
  H  H13  1  0.30084000  0.82924000  0.42269000  1.0
  H  H14  1  0.42799000  0.52531000  0.22823000  1.0
  H  H15  1  0.36204000  0.17495000  0.02444000  1.0
  H  H16  1  0.58407000  0.28893000  0.79888000  1.0
  H  H17  1  0.52002000  0.99048000  0.66161000  1.0
  H  H18  1  0.10885000  0.03363000  0.59617000  1.0
  H  H19  1  0.34764000  0.44861000  0.66863000  1.0
  H  H20  1  0.37110000  0.10692000  0.52340000  1.0
  H  H21  1  0.35105000  0.34608000  0.76092000  1.0
  H  H22  1  0.19257000  0.26811000  0.85772000  1.0
  H  H23  1  0.66233000  0.33455000  0.35214000  1.0
  H  H24  1  0.65585000  0.77187000  0.80439000  1.0
  H  H25  1  0.55005000  0.52851000  0.94298000  1.0
  H  H26  1  0.60733000  0.71438000  0.65347000  1.0
  H  H27  1  0.68260000  0.16370000  0.29340000  1.0
  H  H28  1  0.19710000  0.69729000  0.19998000  1.0
  H  H29  1  0.67805000  0.34377000  0.63846000  1.0
  H  H30  1  0.11056000  0.96887000  0.41141000  1.0
  H  H31  1  0.67740000  0.48071000  0.41274000  1.0
  H  H32  1  0.02068000  0.72684000  0.13630000  1.0
  H  H33  1  0.26440000  0.00866000  0.34190000  1.0
  H  H34  1  0.62646000  0.80049000  0.58031000  1.0
  H  H35  1  0.69915000  0.17076000  0.57731000  1.0
  H  H36  1  0.57201000  0.47469000  0.77177000  1.0
  H  H37  1  0.63796000  0.82505000  0.97556000  1.0
  H  H38  1  0.41593000  0.71107000  0.20112000  1.0
  H  H39  1  0.47998000  0.00952000  0.33839000  1.0
  H  H40  1  0.89115000  0.96637000  0.40383000  1.0
  H  H41  1  0.65236000  0.55139000  0.33137000  1.0
  H  H42  1  0.62890000  0.89308000  0.47660000  1.0
  H  H43  1  0.64894000  0.65392000  0.23908000  1.0
  H  H44  1  0.80743000  0.73189000  0.14228000  1.0
  C  C1  1  0.32864000  0.69958000  0.59696000  1.0
  C  C2  1  0.36896000  0.28230000  0.16683000  1.0
  C  C3  1  0.42658000  0.41835000  0.08759000  1.0
  C  C4  1  0.37469000  0.35770000  0.37978000  1.0
  C  C5  1  0.31758000  0.79613000  0.63096000  1.0
  C  C6  1  0.74367000  0.23187000  0.76979000  1.0
  C  C7  1  0.91600000  0.15043000  0.72722000  1.0
  C  C8  1  0.32973000  0.64753000  0.49911000  1.0
  C  C9  1  0.31970000  0.69578000  0.43673000  1.0
  C  C10  1  0.35683000  0.39343000  0.47514000  1.0
  C  C11  1  0.38646000  0.38160000  0.22529000  1.0
  C  C12  1  0.34274000  0.54504000  0.45972000  1.0
  C  C13  1  0.78811000  0.14750000  0.72908000  1.0
  C  C14  1  0.95408000  0.08286000  0.65064000  1.0
  C  C15  1  0.33914000  0.48864000  0.51449000  1.0
  C  C16  1  0.00358000  0.21931000  0.80234000  1.0
  C  C17  1  0.35775000  0.33387000  0.53319000  1.0
  C  C18  1  0.70588000  0.05902000  0.68944000  1.0
  C  C19  1  0.40681000  0.31918000  0.02955000  1.0
  C  C20  1  0.36636000  0.23598000  0.49447000  1.0
  C  C21  1  0.30809000  0.79171000  0.47052000  1.0
  C  C22  1  0.37235000  0.41663000  0.32746000  1.0
  C  C23  1  0.41537000  0.44869000  0.18370000  1.0
  C  C24  1  0.37835000  0.25162000  0.07026000  1.0
  C  C25  1  0.62185000  0.22495000  0.76789000  1.0
  C  C26  1  0.29714000  0.94736000  0.60150000  1.0
  C  C27  1  0.30660000  0.84304000  0.56777000  1.0
  C  C28  1  0.58567000  0.05811000  0.69081000  1.0
  C  C29  1  0.07538000  0.08503000  0.65374000  1.0
  C  C30  1  0.41056000  0.28583000  0.92414000  1.0
  C  C31  1  0.35123000  0.37307000  0.63119000  1.0
  C  C32  1  0.36680000  0.18319000  0.55184000  1.0
  C  C33  1  0.35203000  0.31618000  0.68421000  1.0
  C  C34  1  0.12295000  0.21652000  0.79963000  1.0
  C  C35  1  0.67136000  0.30043000  0.40304000  1.0
  C  C36  1  0.63104000  0.71770000  0.83317000  1.0
  C  C37  1  0.57342000  0.58165000  0.91241000  1.0
  C  C38  1  0.62531000  0.64230000  0.62022000  1.0
  C  C39  1  0.68242000  0.20387000  0.36904000  1.0
  C  C40  1  0.25633000  0.76813000  0.23021000  1.0
  C  C41  1  0.08400000  0.84957000  0.27278000  1.0
  C  C42  1  0.67027000  0.35247000  0.50089000  1.0
  C  C43  1  0.68030000  0.30422000  0.56327000  1.0
  C  C44  1  0.64316000  0.60657000  0.52486000  1.0
  C  C45  1  0.61354000  0.61840000  0.77471000  1.0
  C  C46  1  0.65726000  0.45496000  0.54028000  1.0
  C  C47  1  0.21189000  0.85250000  0.27092000  1.0
  C  C48  1  0.04592000  0.91714000  0.34935000  1.0
  C  C49  1  0.66085000  0.51136000  0.48551000  1.0
  C  C50  1  0.99642000  0.78069000  0.19766000  1.0
  C  C51  1  0.64224000  0.66613000  0.46681000  1.0
  C  C52  1  0.29412000  0.94098000  0.31056000  1.0
  C  C53  1  0.59319000  0.68082000  0.97045000  1.0
  C  C54  1  0.63364000  0.76402000  0.50553000  1.0
  C  C55  1  0.69191000  0.20829000  0.52948000  1.0
  C  C56  1  0.62765000  0.58337000  0.67254000  1.0
  C  C57  1  0.58463000  0.55131000  0.81629000  1.0
  C  C58  1  0.62165000  0.74838000  0.92974000  1.0
  C  C59  1  0.37815000  0.77505000  0.23211000  1.0
  C  C60  1  0.70286000  0.05264000  0.39850000  1.0
  C  C61  1  0.69340000  0.15696000  0.43223000  1.0
  C  C62  1  0.41433000  0.94189000  0.30919000  1.0
  C  C63  1  0.92461000  0.91497000  0.34626000  1.0
  C  C64  1  0.58944000  0.71417000  0.07586000  1.0
  C  C65  1  0.64877000  0.62693000  0.36881000  1.0
  C  C66  1  0.63320000  0.81681000  0.44816000  1.0
  C  C67  1  0.64797000  0.68382000  0.31579000  1.0
  C  C68  1  0.87705000  0.78348000  0.20037000  1.0
  N  N1  1  0.35821000  0.50873000  0.36775000  1.0
  N  N2  1  0.54344000  0.13948000  0.72856000  1.0
  N  N3  1  0.35918000  0.22205000  0.64566000  1.0
  N  N4  1  0.15907000  0.15006000  0.72730000  1.0
  N  N5  1  0.64178000  0.49127000  0.63225000  1.0
  N  N6  1  0.45656000  0.86052000  0.27144000  1.0
  N  N7  1  0.64081000  0.77795000  0.35434000  1.0
  N  N8  1  0.84093000  0.84994000  0.27270000  1.0
  O  O1  1  0.31798000  0.99571000  0.69347000  1.0
  O  O2  1  0.37735000  0.19316000  0.87562000  1.0
  O  O3  1  0.44033000  0.34688000  0.88923000  1.0
  O  O4  1  0.27364000  0.98246000  0.54032000  1.0
  O  O5  1  0.68202000  0.00429000  0.30653000  1.0
  O  O6  1  0.62265000  0.80684000  0.12438000  1.0
  O  O7  1  0.55967000  0.65312000  0.11077000  1.0
  O  O8  1  0.72636000  0.01754000  0.45968000  1.0
