# generated using pymatgen
data_AgC4(NF2)3
_symmetry_space_group_name_H-M   'P 1'
_cell_length_a   13.56474000
_cell_length_b   13.63866000
_cell_length_c   39.59329000
_cell_angle_alpha   89.83919000
_cell_angle_beta   89.87519000
_cell_angle_gamma   89.89405000
_symmetry_Int_Tables_number   1
_chemical_formula_structural   AgC4(NF2)3
_chemical_formula_sum   'Ag24 C96 N72 F144'
_cell_volume   7324.89306971
_cell_formula_units_Z   24
loop_
 _symmetry_equiv_pos_site_id
 _symmetry_equiv_pos_as_xyz
  1  'x, y, z'
loop_
 _atom_site_type_symbol
 _atom_site_label
 _atom_site_symmetry_multiplicity
 _atom_site_fract_x
 _atom_site_fract_y
 _atom_site_fract_z
 _atom_site_occupancy
  Ag  Ag1  1  0.50806000  0.00825000  0.90411000  1.0
  Ag  Ag2  1  0.00367000  0.49906000  0.09719000  1.0
  Ag  Ag3  1  0.49562000  0.49768000  0.34723000  1.0
  Ag  Ag4  1  0.99864000  0.00025000  0.15219000  1.0
  Ag  Ag5  1  0.99980000  0.50161000  0.40322000  1.0
  Ag  Ag6  1  0.50006000  0.99951000  0.59583000  1.0
  Ag  Ag7  1  0.99921000  0.99888000  0.84587000  1.0
  Ag  Ag8  1  0.50009000  0.49589000  0.65327000  1.0
  Ag  Ag9  1  0.60623000  0.13664000  0.75582000  1.0
  Ag  Ag10  1  0.38935000  0.86060000  0.75468000  1.0
  Ag  Ag11  1  0.86538000  0.61715000  0.24658000  1.0
  Ag  Ag12  1  0.13579000  0.37948000  0.24444000  1.0
  Ag  Ag13  1  0.62148000  0.36130000  0.49509000  1.0
  Ag  Ag14  1  0.38360000  0.63771000  0.49397000  1.0
  Ag  Ag15  1  0.86633000  0.87778000  0.00439000  1.0
  Ag  Ag16  1  0.14037000  0.12135000  0.00475000  1.0
  Ag  Ag17  1  0.11980000  0.63780000  0.25321000  1.0
  Ag  Ag18  1  0.87860000  0.36441000  0.25423000  1.0
  Ag  Ag19  1  0.35769000  0.11326000  0.74253000  1.0
  Ag  Ag20  1  0.63951000  0.88003000  0.74452000  1.0
  Ag  Ag21  1  0.11653000  0.86096000  0.99364000  1.0
  Ag  Ag22  1  0.89534000  0.13917000  0.99496000  1.0
  Ag  Ag23  1  0.36750000  0.38903000  0.50601000  1.0
  Ag  Ag24  1  0.63786000  0.61752000  0.50536000  1.0
  C  C1  1  0.47164000  0.07566000  0.82483000  1.0
  C  C2  1  0.52849000  0.93189000  0.82670000  1.0
  C  C3  1  0.92857000  0.48059000  0.17469000  1.0
  C  C4  1  0.07565000  0.53076000  0.17509000  1.0
  C  C5  1  0.46434000  0.43226000  0.42570000  1.0
  C  C6  1  0.52230000  0.57539000  0.42462000  1.0
  C  C7  1  0.92481000  0.02887000  0.07474000  1.0
  C  C8  1  0.06553000  0.96486000  0.07323000  1.0
  C  C9  1  0.96605000  0.57073000  0.32549000  1.0
  C  C10  1  0.02792000  0.42925000  0.32495000  1.0
  C  C11  1  0.42635000  0.97803000  0.67322000  1.0
  C  C12  1  0.57077000  0.03515000  0.67420000  1.0
  C  C13  1  0.97729000  0.91985000  0.92417000  1.0
  C  C14  1  0.02940000  0.06476000  0.92443000  1.0
  C  C15  1  0.43305000  0.53439000  0.57632000  1.0
  C  C16  1  0.57401000  0.46984000  0.57569000  1.0
  C  C17  1  0.42864000  0.17410000  0.83354000  1.0
  C  C18  1  0.57642000  0.83899000  0.83880000  1.0
  C  C19  1  0.83098000  0.43693000  0.16466000  1.0
  C  C20  1  0.17635000  0.56646000  0.16487000  1.0
  C  C21  1  0.42224000  0.33498000  0.41551000  1.0
  C  C22  1  0.57066000  0.66874000  0.41314000  1.0
  C  C23  1  0.83385000  0.08051000  0.08672000  1.0
  C  C24  1  0.16048000  0.91633000  0.08265000  1.0
  C  C25  1  0.92273000  0.66520000  0.33786000  1.0
  C  C26  1  0.07879000  0.33711000  0.33618000  1.0
  C  C27  1  0.33559000  0.92730000  0.66023000  1.0
  C  C28  1  0.67119000  0.07157000  0.66388000  1.0
  C  C29  1  0.93138000  0.82546000  0.91303000  1.0
  C  C30  1  0.06967000  0.16075000  0.91253000  1.0
  C  C31  1  0.33927000  0.58138000  0.58821000  1.0
  C  C32  1  0.66651000  0.41791000  0.58615000  1.0
  C  C33  1  0.33436000  0.06566000  0.95933000  1.0
  C  C34  1  0.67584000  0.94242000  0.95990000  1.0
  C  C35  1  0.93882000  0.34165000  0.03696000  1.0
  C  C36  1  0.07146000  0.67081000  0.04295000  1.0
  C  C37  1  0.32649000  0.42796000  0.29132000  1.0
  C  C38  1  0.65724000  0.56284000  0.28908000  1.0
  C  C39  1  0.93172000  0.17244000  0.20723000  1.0
  C  C40  1  0.06923000  0.83760000  0.20943000  1.0
  C  C41  1  0.83320000  0.57070000  0.46056000  1.0
  C  C42  1  0.17408000  0.43220000  0.45664000  1.0
  C  C43  1  0.43390000  0.82618000  0.54248000  1.0
  C  C44  1  0.56504000  0.16198000  0.53853000  1.0
  C  C45  1  0.82660000  0.93786000  0.79210000  1.0
  C  C46  1  0.17223000  0.06194000  0.79071000  1.0
  C  C47  1  0.43930000  0.66606000  0.70907000  1.0
  C  C48  1  0.55398000  0.33807000  0.71311000  1.0
  C  C49  1  0.30691000  0.91824000  0.94753000  1.0
  C  C50  1  0.70536000  0.08987000  0.94851000  1.0
  C  C51  1  0.08621000  0.31400000  0.05063000  1.0
  C  C52  1  0.92246000  0.69762000  0.05525000  1.0
  C  C53  1  0.29954000  0.57676000  0.30230000  1.0
  C  C54  1  0.68851000  0.41589000  0.30164000  1.0
  C  C55  1  0.08145000  0.19760000  0.19642000  1.0
  C  C56  1  0.91799000  0.81347000  0.20091000  1.0
  C  C57  1  0.80896000  0.42288000  0.44834000  1.0
  C  C58  1  0.20010000  0.57991000  0.44353000  1.0
  C  C59  1  0.58348000  0.80220000  0.55347000  1.0
  C  C60  1  0.41958000  0.19735000  0.55265000  1.0
  C  C61  1  0.79640000  0.08420000  0.80520000  1.0
  C  C62  1  0.19666000  0.91394000  0.80261000  1.0
  C  C63  1  0.58937000  0.68642000  0.69727000  1.0
  C  C64  1  0.40757000  0.31086000  0.69837000  1.0
  C  C65  1  0.31180000  0.81792000  0.93222000  1.0
  C  C66  1  0.69732000  0.19533000  0.93794000  1.0
  C  C67  1  0.18480000  0.31426000  0.06767000  1.0
  C  C68  1  0.81931000  0.69371000  0.06945000  1.0
  C  C69  1  0.30516000  0.67955000  0.31576000  1.0
  C  C70  1  0.69217000  0.31662000  0.31829000  1.0
  C  C71  1  0.18472000  0.19424000  0.18266000  1.0
  C  C72  1  0.81632000  0.81131000  0.18602000  1.0
  C  C73  1  0.80832000  0.32462000  0.43162000  1.0
  C  C74  1  0.19239000  0.68227000  0.42940000  1.0
  C  C75  1  0.68408000  0.80701000  0.56914000  1.0
  C  C76  1  0.31804000  0.19503000  0.56787000  1.0
  C  C77  1  0.80152000  0.18475000  0.82055000  1.0
  C  C78  1  0.19347000  0.81444000  0.81863000  1.0
  C  C79  1  0.68816000  0.67958000  0.67999000  1.0
  C  C80  1  0.30761000  0.31750000  0.68210000  1.0
  C  C81  1  0.38281000  0.16439000  0.95895000  1.0
  C  C82  1  0.62325000  0.84650000  0.96250000  1.0
  C  C83  1  0.83545000  0.38160000  0.03723000  1.0
  C  C84  1  0.17338000  0.62664000  0.04203000  1.0
  C  C85  1  0.37329000  0.32751000  0.29150000  1.0
  C  C86  1  0.60854000  0.66194000  0.28837000  1.0
  C  C87  1  0.82856000  0.13323000  0.20573000  1.0
  C  C88  1  0.17142000  0.88013000  0.20683000  1.0
  C  C89  1  0.87584000  0.67211000  0.46251000  1.0
  C  C90  1  0.12789000  0.33206000  0.45904000  1.0
  C  C91  1  0.33346000  0.87171000  0.54145000  1.0
  C  C92  1  0.65886000  0.10338000  0.53604000  1.0
  C  C93  1  0.87265000  0.83781000  0.79165000  1.0
  C  C94  1  0.13082000  0.16366000  0.79126000  1.0
  C  C95  1  0.33643000  0.62535000  0.70907000  1.0
  C  C96  1  0.65205000  0.38715000  0.71705000  1.0
  N  N1  1  0.50251000  0.00702000  0.84736000  1.0
  N  N2  1  0.00380000  0.50244000  0.15332000  1.0
  N  N3  1  0.48966000  0.50420000  0.40357000  1.0
  N  N4  1  0.99530000  0.99316000  0.09562000  1.0
  N  N5  1  0.99958000  0.50031000  0.34678000  1.0
  N  N6  1  0.49976000  0.00739000  0.65218000  1.0
  N  N7  1  0.00207000  0.99315000  0.90269000  1.0
  N  N8  1  0.50428000  0.50197000  0.59757000  1.0
  N  N9  1  0.47822000  0.04564000  0.79265000  1.0
  N  N10  1  0.51435000  0.95170000  0.79385000  1.0
  N  N11  1  0.95174000  0.49406000  0.20732000  1.0
  N  N12  1  0.04763000  0.52565000  0.20753000  1.0
  N  N13  1  0.48189000  0.45586000  0.45798000  1.0
  N  N14  1  0.51857000  0.54956000  0.45732000  1.0
  N  N15  1  0.94920000  0.02355000  0.04193000  1.0
  N  N16  1  0.04164000  0.98276000  0.04100000  1.0
  N  N17  1  0.97331000  0.54591000  0.29286000  1.0
  N  N18  1  0.01271000  0.45302000  0.29247000  1.0
  N  N19  1  0.44967000  0.98665000  0.70602000  1.0
  N  N20  1  0.54422000  0.02308000  0.70665000  1.0
  N  N21  1  0.98828000  0.94389000  0.95682000  1.0
  N  N22  1  0.02161000  0.03899000  0.95693000  1.0
  N  N23  1  0.45583000  0.52206000  0.54362000  1.0
  N  N24  1  0.54845000  0.48117000  0.54320000  1.0
  N  N25  1  0.36871000  0.99238000  0.93966000  1.0
  N  N26  1  0.64047000  0.01793000  0.94123000  1.0
  N  N27  1  0.01047000  0.37494000  0.05773000  1.0
  N  N28  1  0.99861000  0.63833000  0.06355000  1.0
  N  N29  1  0.36009000  0.50194000  0.31087000  1.0
  N  N30  1  0.62532000  0.48915000  0.30935000  1.0
  N  N31  1  0.00660000  0.13711000  0.18811000  1.0
  N  N32  1  0.99271000  0.87238000  0.19101000  1.0
  N  N33  1  0.86846000  0.49880000  0.44036000  1.0
  N  N34  1  0.13968000  0.50431000  0.43621000  1.0
  N  N35  1  0.50713000  0.86077000  0.56212000  1.0
  N  N36  1  0.49100000  0.13080000  0.55881000  1.0
  N  N37  1  0.85971000  0.01032000  0.81229000  1.0
  N  N38  1  0.13776000  0.98997000  0.81105000  1.0
  N  N39  1  0.51210000  0.62860000  0.68969000  1.0
  N  N40  1  0.48262000  0.37364000  0.69264000  1.0
  N  N41  1  0.25676000  0.03925000  0.97833000  1.0
  N  N42  1  0.75648000  0.96533000  0.97745000  1.0
  N  N43  1  0.96775000  0.26452000  0.01849000  1.0
  N  N44  1  0.04255000  0.74500000  0.02301000  1.0
  N  N45  1  0.25015000  0.45511000  0.27194000  1.0
  N  N46  1  0.73540000  0.53771000  0.27013000  1.0
  N  N47  1  0.95792000  0.24945000  0.22614000  1.0
  N  N48  1  0.04355000  0.76206000  0.22946000  1.0
  N  N49  1  0.75718000  0.54122000  0.47974000  1.0
  N  N50  1  0.25047000  0.46123000  0.47559000  1.0
  N  N51  1  0.46218000  0.75148000  0.52280000  1.0
  N  N52  1  0.54142000  0.24284000  0.52092000  1.0
  N  N53  1  0.74847000  0.96454000  0.77354000  1.0
  N  N54  1  0.24637000  0.03272000  0.77084000  1.0
  N  N55  1  0.46871000  0.74295000  0.72749000  1.0
  N  N56  1  0.52606000  0.25792000  0.73019000  1.0
  N  N57  1  0.23926000  0.94323000  0.97063000  1.0
  N  N58  1  0.77567000  0.06099000  0.97003000  1.0
  N  N59  1  0.06342000  0.24676000  0.02734000  1.0
  N  N60  1  0.94613000  0.76218000  0.03097000  1.0
  N  N61  1  0.23285000  0.55142000  0.27912000  1.0
  N  N62  1  0.75527000  0.44230000  0.27830000  1.0
  N  N63  1  0.05491000  0.26542000  0.21911000  1.0
  N  N64  1  0.94546000  0.74649000  0.22384000  1.0
  N  N65  1  0.74143000  0.44550000  0.47174000  1.0
  N  N66  1  0.26720000  0.55687000  0.46709000  1.0
  N  N67  1  0.55919000  0.73587000  0.53007000  1.0
  N  N68  1  0.44678000  0.26552000  0.53012000  1.0
  N  N69  1  0.72900000  0.05971000  0.78198000  1.0
  N  N70  1  0.26264000  0.93655000  0.77858000  1.0
  N  N71  1  0.56612000  0.75645000  0.71979000  1.0
  N  N72  1  0.43110000  0.24036000  0.72061000  1.0
  F  F1  1  0.33056000  0.16660000  0.84174000  1.0
  F  F2  1  0.67005000  0.85665000  0.85012000  1.0
  F  F3  1  0.84008000  0.33825000  0.15840000  1.0
  F  F4  1  0.17465000  0.66131000  0.15330000  1.0
  F  F5  1  0.33511000  0.34326000  0.39843000  1.0
  F  F6  1  0.66549000  0.64844000  0.40328000  1.0
  F  F7  1  0.85983000  0.16695000  0.10174000  1.0
  F  F8  1  0.14952000  0.81900000  0.09012000  1.0
  F  F9  1  0.83935000  0.64822000  0.35648000  1.0
  F  F10  1  0.17081000  0.35688000  0.34834000  1.0
  F  F11  1  0.36462000  0.84200000  0.64492000  1.0
  F  F12  1  0.66934000  0.16161000  0.64850000  1.0
  F  F13  1  0.83550000  0.84220000  0.90329000  1.0
  F  F14  1  0.16070000  0.14825000  0.89829000  1.0
  F  F15  1  0.35555000  0.66724000  0.60494000  1.0
  F  F16  1  0.64517000  0.32421000  0.59667000  1.0
  F  F17  1  0.47504000  0.21720000  0.86000000  1.0
  F  F18  1  0.52547000  0.79646000  0.86467000  1.0
  F  F19  1  0.79073000  0.47725000  0.13652000  1.0
  F  F20  1  0.21512000  0.50959000  0.14003000  1.0
  F  F21  1  0.48552000  0.28626000  0.39487000  1.0
  F  F22  1  0.52475000  0.71241000  0.38665000  1.0
  F  F23  1  0.78054000  0.02799000  0.10973000  1.0
  F  F24  1  0.20079000  0.95903000  0.11017000  1.0
  F  F25  1  0.98576000  0.71362000  0.35843000  1.0
  F  F26  1  0.02951000  0.29129000  0.36159000  1.0
  F  F27  1  0.28550000  0.98137000  0.63686000  1.0
  F  F28  1  0.71510000  0.00911000  0.64169000  1.0
  F  F29  1  0.97964000  0.78310000  0.88668000  1.0
  F  F30  1  0.01028000  0.20045000  0.88843000  1.0
  F  F31  1  0.28943000  0.52243000  0.60999000  1.0
  F  F32  1  0.71467000  0.46298000  0.61177000  1.0
  F  F33  1  0.43497000  0.23629000  0.80663000  1.0
  F  F34  1  0.58471000  0.77279000  0.81331000  1.0
  F  F35  1  0.76464000  0.44869000  0.19014000  1.0
  F  F36  1  0.23977000  0.56461000  0.19162000  1.0
  F  F37  1  0.40511000  0.27766000  0.44322000  1.0
  F  F38  1  0.57505000  0.73592000  0.43845000  1.0
  F  F39  1  0.77432000  0.10195000  0.06010000  1.0
  F  F40  1  0.22591000  0.92160000  0.05663000  1.0
  F  F41  1  0.89971000  0.72653000  0.31177000  1.0
  F  F42  1  0.08979000  0.27300000  0.31007000  1.0
  F  F43  1  0.27060000  0.90314000  0.68510000  1.0
  F  F44  1  0.73021000  0.07882000  0.69161000  1.0
  F  F45  1  0.92976000  0.75887000  0.93858000  1.0
  F  F46  1  0.07970000  0.22654000  0.93817000  1.0
  F  F47  1  0.27944000  0.60187000  0.56159000  1.0
  F  F48  1  0.73051000  0.41161000  0.55980000  1.0
  F  F49  1  0.22076000  0.78727000  0.92165000  1.0
  F  F50  1  0.78518000  0.23136000  0.92664000  1.0
  F  F51  1  0.19520000  0.23126000  0.08680000  1.0
  F  F52  1  0.79011000  0.78294000  0.08155000  1.0
  F  F53  1  0.22011000  0.70783000  0.33164000  1.0
  F  F54  1  0.78549000  0.30040000  0.33007000  1.0
  F  F55  1  0.21492000  0.28619000  0.17325000  1.0
  F  F56  1  0.80482000  0.72663000  0.16800000  1.0
  F  F57  1  0.72405000  0.31436000  0.41322000  1.0
  F  F58  1  0.27930000  0.71261000  0.41513000  1.0
  F  F59  1  0.71495000  0.71562000  0.57855000  1.0
  F  F60  1  0.28989000  0.28655000  0.57825000  1.0
  F  F61  1  0.71018000  0.21750000  0.82993000  1.0
  F  F62  1  0.28573000  0.78662000  0.82841000  1.0
  F  F63  1  0.70593000  0.76551000  0.66334000  1.0
  F  F64  1  0.28472000  0.23108000  0.66666667  1.0
  F  F65  1  0.34504000  0.75003000  0.95486000  1.0
  F  F66  1  0.66980000  0.25059000  0.96499000  1.0
  F  F67  1  0.26011000  0.31491000  0.04495000  1.0
  F  F68  1  0.75447000  0.66706000  0.04492000  1.0
  F  F69  1  0.32027000  0.74525000  0.29018000  1.0
  F  F70  1  0.67021000  0.24209000  0.29667000  1.0
  F  F71  1  0.24987000  0.16194000  0.20645000  1.0
  F  F72  1  0.74490000  0.81063000  0.21012000  1.0
  F  F73  1  0.81025000  0.25031000  0.45478000  1.0
  F  F74  1  0.17008000  0.74586000  0.45485000  1.0
  F  F75  1  0.75479000  0.84290000  0.54814000  1.0
  F  F76  1  0.25011000  0.16253000  0.54510000  1.0
  F  F77  1  0.83982000  0.25055000  0.79823000  1.0
  F  F78  1  0.15993000  0.74524000  0.79675000  1.0
  F  F79  1  0.76420000  0.66272000  0.70170000  1.0
  F  F80  1  0.23523000  0.33758000  0.70501000  1.0
  F  F81  1  0.37371000  0.81868000  0.90514000  1.0
  F  F82  1  0.62972000  0.20829000  0.91320000  1.0
  F  F83  1  0.19509000  0.39296000  0.08828000  1.0
  F  F84  1  0.81045000  0.62908000  0.09517000  1.0
  F  F85  1  0.37994000  0.68635000  0.33833000  1.0
  F  F86  1  0.62968000  0.31037000  0.34497000  1.0
  F  F87  1  0.19027000  0.13459000  0.15524000  1.0
  F  F88  1  0.80002000  0.88854000  0.16502000  1.0
  F  F89  1  0.88535000  0.31432000  0.41006000  1.0
  F  F90  1  0.12101000  0.68960000  0.40543000  1.0
  F  F91  1  0.68047000  0.86544000  0.59682000  1.0
  F  F92  1  0.31493000  0.13432000  0.59503000  1.0
  F  F93  1  0.85981000  0.18506000  0.84836000  1.0
  F  F94  1  0.13499000  0.81455000  0.84654000  1.0
  F  F95  1  0.68984000  0.60657000  0.65671000  1.0
  F  F96  1  0.30508000  0.38900000  0.65828000  1.0
  F  F97  1  0.40525000  0.19018000  0.92654000  1.0
  F  F98  1  0.60458000  0.80965000  0.93135000  1.0
  F  F99  1  0.78422000  0.34239000  0.06356000  1.0
  F  F100  1  0.21473000  0.62066000  0.07328000  1.0
  F  F101  1  0.37032000  0.28731000  0.32312000  1.0
  F  F102  1  0.59984000  0.69901000  0.32014000  1.0
  F  F103  1  0.79956000  0.12485000  0.17308000  1.0
  F  F104  1  0.19502000  0.89785000  0.17378000  1.0
  F  F105  1  0.89004000  0.71264000  0.43149000  1.0
  F  F106  1  0.12037000  0.28744000  0.42841000  1.0
  F  F107  1  0.29513000  0.88426000  0.57301000  1.0
  F  F108  1  0.70493000  0.09725000  0.56662000  1.0
  F  F109  1  0.87026000  0.79632000  0.82305000  1.0
  F  F110  1  0.12969000  0.19937000  0.82332000  1.0
  F  F111  1  0.30483000  0.61134000  0.67676000  1.0
  F  F112  1  0.70023000  0.39330000  0.68681000  1.0
  F  F113  1  0.46946000  0.16232000  0.97667000  1.0
  F  F114  1  0.53470000  0.86050000  0.97839000  1.0
  F  F115  1  0.83513000  0.48097000  0.04156000  1.0
  F  F116  1  0.17004000  0.53271000  0.02986000  1.0
  F  F117  1  0.47007000  0.33343000  0.28180000  1.0
  F  F118  1  0.51541000  0.65720000  0.27504000  1.0
  F  F119  1  0.82020000  0.04218000  0.22007000  1.0
  F  F120  1  0.17957000  0.96758000  0.22337000  1.0
  F  F121  1  0.96521000  0.67122000  0.47837000  1.0
  F  F122  1  0.03431000  0.33822000  0.47175000  1.0
  F  F123  1  0.33937000  0.96257000  0.52666000  1.0
  F  F124  1  0.63549000  0.00953000  0.52660000  1.0
  F  F125  1  0.96945000  0.84250000  0.78173000  1.0
  F  F126  1  0.03537000  0.16276000  0.77996000  1.0
  F  F127  1  0.33039000  0.53666000  0.72504000  1.0
  F  F128  1  0.64018000  0.48118000  0.72840000  1.0
  F  F129  1  0.32487000  0.23602000  0.97186000  1.0
  F  F130  1  0.67494000  0.77804000  0.98004000  1.0
  F  F131  1  0.78555000  0.36116000  0.00843000  1.0
  F  F132  1  0.23458000  0.67992000  0.02180000  1.0
  F  F133  1  0.32929000  0.26424000  0.26999000  1.0
  F  F134  1  0.66043000  0.72713000  0.26978000  1.0
  F  F135  1  0.76470000  0.19424000  0.22174000  1.0
  F  F136  1  0.24017000  0.81901000  0.22002000  1.0
  F  F137  1  0.81491000  0.73217000  0.48013000  1.0
  F  F138  1  0.18020000  0.27289000  0.47999000  1.0
  F  F139  1  0.26991000  0.81568000  0.52336000  1.0
  F  F140  1  0.72438000  0.13929000  0.51335000  1.0
  F  F141  1  0.82504000  0.77743000  0.76998000  1.0
  F  F142  1  0.18414000  0.22648000  0.77172000  1.0
  F  F143  1  0.27282000  0.68663000  0.72497000  1.0
  F  F144  1  0.70995000  0.33842000  0.73956000  1.0
