# generated using pymatgen
data_Cu3H16(C12N13)2
_symmetry_space_group_name_H-M   'P 1'
_cell_length_a   13.34210256
_cell_length_b   15.11160212
_cell_length_c   15.51808802
_cell_angle_alpha   89.99990191
_cell_angle_beta   93.15929051
_cell_angle_gamma   89.99987381
_symmetry_Int_Tables_number   1
_chemical_formula_structural   Cu3H16(C12N13)2
_chemical_formula_sum   'Cu6 H32 C48 N52'
_cell_volume   3124.01019060
_cell_formula_units_Z   2
loop_
 _symmetry_equiv_pos_site_id
 _symmetry_equiv_pos_as_xyz
  1  'x, y, z'
loop_
 _atom_site_type_symbol
 _atom_site_label
 _atom_site_symmetry_multiplicity
 _atom_site_fract_x
 _atom_site_fract_y
 _atom_site_fract_z
 _atom_site_occupancy
  Cu  Cu1  1  0.94840778  0.18532335  0.10454909  1.0
  Cu  Cu2  1  0.55159396  0.68532293  0.39545069  1.0
  Cu  Cu3  1  0.05159134  0.81467648  0.89545085  1.0
  Cu  Cu4  1  0.44840595  0.31467707  0.60454989  1.0
  Cu  Cu5  1  0.99999957  0.99999979  0.99999986  1.0
  Cu  Cu6  1  0.50000037  0.49999992  0.49999995  1.0
  H  H1  1  0.55312644  0.39215193  0.75886204  1.0
  H  H2  1  0.67752985  0.34145633  0.87598721  1.0
  H  H3  1  0.68210813  0.08756012  0.74910001  1.0
  H  H4  1  0.55530095  0.14710675  0.63896937  1.0
  H  H5  1  0.32908353  0.32676424  0.75580314  1.0
  H  H6  1  0.22126345  0.22675440  0.84037992  1.0
  H  H7  1  0.24371814  0.03172119  0.63904050  1.0
  H  H8  1  0.34830122  0.14035008  0.56124734  1.0
  H  H9  1  0.94687209  0.89215160  0.74113772  1.0
  H  H10  1  0.82246908  0.84145564  0.62401201  1.0
  H  H11  1  0.81789132  0.58755950  0.75090100  1.0
  H  H12  1  0.94469810  0.64710633  0.86103155  1.0
  H  H13  1  0.17091575  0.82676427  0.74419705  1.0
  H  H14  1  0.27873652  0.72675487  0.65962055  1.0
  H  H15  1  0.25628161  0.53172088  0.86095994  1.0
  H  H16  1  0.15169799  0.64034954  0.93875263  1.0
  H  H17  1  0.44687377  0.60784858  0.24113827  1.0
  H  H18  1  0.32247060  0.65854372  0.12401303  1.0
  H  H19  1  0.31789203  0.91243977  0.25090000  1.0
  H  H20  1  0.44469905  0.85289311  0.36103031  1.0
  H  H21  1  0.67091647  0.67323598  0.24419757  1.0
  H  H22  1  0.77873657  0.77324524  0.15962033  1.0
  H  H23  1  0.75628179  0.96827902  0.36095949  1.0
  H  H24  1  0.65169871  0.85965018  0.43875265  1.0
  H  H25  1  0.05312772  0.10784850  0.25886226  1.0
  H  H26  1  0.17753075  0.15854458  0.37598797  1.0
  H  H27  1  0.18210868  0.41244041  0.24909896  1.0
  H  H28  1  0.05530186  0.35289386  0.13896832  1.0
  H  H29  1  0.82908431  0.17323593  0.25580271  1.0
  H  H30  1  0.72126371  0.27324526  0.34037918  1.0
  H  H31  1  0.74371841  0.46827903  0.13904000  1.0
  H  H32  1  0.84830196  0.35965055  0.06124722  1.0
  C  C1  1  0.58328860  0.32504957  0.76005996  1.0
  C  C2  1  0.65237528  0.29673422  0.82422677  1.0
  C  C3  1  0.68989305  0.21005575  0.82165665  1.0
  C  C4  1  0.65478739  0.15519188  0.75341987  1.0
  C  C5  1  0.58491080  0.18810398  0.69237118  1.0
  C  C6  1  0.76360117  0.17746043  0.88628102  1.0
  C  C7  1  0.30879868  0.26056112  0.73268790  1.0
  C  C8  1  0.24845763  0.20542429  0.77885547  1.0
  C  C9  1  0.22417134  0.12097421  0.74640408  1.0
  C  C10  1  0.26118496  0.09639602  0.66696093  1.0
  C  C11  1  0.32031676  0.15578292  0.62417513  1.0
  C  C12  1  0.16340000  0.06165344  0.79537832  1.0
  C  C13  1  0.91670997  0.82504920  0.73994018  1.0
  C  C14  1  0.84762362  0.79673390  0.67577318  1.0
  C  C15  1  0.81010647  0.71005538  0.67834386  1.0
  C  C16  1  0.84521146  0.65519151  0.74658111  1.0
  C  C17  1  0.91508794  0.68810385  0.80762962  1.0
  C  C18  1  0.73639954  0.67745966  0.61371907  1.0
  C  C19  1  0.19120072  0.76056108  0.76731229  1.0
  C  C20  1  0.25154216  0.70542445  0.72114503  1.0
  C  C21  1  0.27582857  0.62097431  0.75359658  1.0
  C  C22  1  0.23881476  0.59639569  0.83303944  1.0
  C  C23  1  0.17968258  0.65578256  0.87582489  1.0
  C  C24  1  0.33660059  0.56165359  0.70462239  1.0
  C  C25  1  0.41671159  0.67495083  0.23994012  1.0
  C  C26  1  0.34762487  0.70326602  0.17577326  1.0
  C  C27  1  0.31010705  0.78994435  0.17834315  1.0
  C  C28  1  0.34521260  0.84480804  0.24657986  1.0
  C  C29  1  0.41508922  0.81189601  0.30762856  1.0
  C  C30  1  0.23639915  0.82253960  0.11371887  1.0
  C  C31  1  0.69120114  0.73943908  0.26731262  1.0
  C  C32  1  0.75154224  0.79457564  0.22114473  1.0
  C  C33  1  0.77582855  0.87902582  0.25359590  1.0
  C  C34  1  0.73881500  0.90360412  0.33303915  1.0
  C  C35  1  0.67968322  0.84421708  0.37582501  1.0
  C  C36  1  0.83659980  0.93834652  0.20462170  1.0
  C  C37  1  0.08328970  0.17495094  0.26005982  1.0
  C  C38  1  0.15237607  0.20326627  0.32422676  1.0
  C  C39  1  0.18989334  0.28994475  0.32165615  1.0
  C  C40  1  0.15478823  0.34480847  0.25341881  1.0
  C  C41  1  0.08491177  0.31189625  0.19237031  1.0
  C  C42  1  0.26360070  0.32254033  0.38628102  1.0
  C  C43  1  0.80879948  0.23943907  0.23268732  1.0
  C  C44  1  0.74845809  0.29457566  0.27885469  1.0
  C  C45  1  0.72417162  0.37902580  0.24640330  1.0
  C  C46  1  0.76118534  0.40360425  0.16696040  1.0
  C  C47  1  0.82031744  0.34421737  0.12417490  1.0
  C  C48  1  0.66339975  0.43834642  0.29537755  1.0
  N  N1  1  0.54938662  0.27148124  0.69540694  1.0
  N  N2  1  0.79833839  0.22367427  0.95619101  1.0
  N  N3  1  0.86421290  0.16897742  0.99501591  1.0
  N  N4  1  0.86952424  0.09301065  0.95133680  1.0
  N  N5  1  0.80697352  0.09647866  0.88254626  1.0
  N  N6  1  0.34458329  0.23613556  0.65664813  1.0
  N  N7  1  0.11674709  0.08743307  0.86617126  1.0
  N  N8  1  0.07262739  0.01478294  0.89193791  1.0
  N  N9  1  0.09128737  0.94660907  0.83988260  1.0
  N  N10  1  0.14827425  0.97475171  0.77804498  1.0
  N  N11  1  0.05893301  0.11695158  0.04943413  1.0
  N  N12  1  0.14769853  0.13471449  0.05698184  1.0
  N  N13  1  0.23251772  0.15250344  0.06310570  1.0
  N  N14  1  0.95061201  0.77148083  0.80459328  1.0
  N  N15  1  0.70166386  0.72367301  0.54380806  1.0
  N  N16  1  0.63578972  0.66897702  0.50498296  1.0
  N  N17  1  0.63047684  0.59301072  0.54866282  1.0
  N  N18  1  0.69302632  0.59647889  0.61745377  1.0
  N  N19  1  0.15541565  0.73613527  0.84335187  1.0
  N  N20  1  0.38325385  0.58743344  0.63382931  1.0
  N  N21  1  0.42737365  0.51478288  0.60806283  1.0
  N  N22  1  0.40871337  0.44660870  0.66011832  1.0
  N  N23  1  0.35172614  0.47475138  0.72195606  1.0
  N  N24  1  0.44107093  0.61695223  0.45056804  1.0
  N  N25  1  0.35229854  0.63471528  0.44301877  1.0
  N  N26  1  0.26748840  0.65250154  0.43689427  1.0
  N  N27  1  0.45061386  0.72851884  0.30459335  1.0
  N  N28  1  0.20166226  0.77632584  0.04380891  1.0
  N  N29  1  0.13578723  0.83102251  0.00498396  1.0
  N  N30  1  0.13047553  0.90698899  0.04866344  1.0
  N  N31  1  0.19302637  0.90352096  0.11745398  1.0
  N  N32  1  0.65541649  0.76386449  0.34335233  1.0
  N  N33  1  0.88325238  0.91256716  0.13382896  1.0
  N  N34  1  0.92737199  0.98521702  0.10806223  1.0
  N  N35  1  0.90871223  0.05339057  0.16011751  1.0
  N  N36  1  0.85172573  0.02524804  0.22195495  1.0
  N  N37  1  0.94106158  0.88304710  0.95056570  1.0
  N  N38  1  0.85231132  0.86528736  0.94301910  1.0
  N  N39  1  0.76747476  0.84749478  0.93689385  1.0
  N  N40  1  0.04938766  0.22851928  0.19540671  1.0
  N  N41  1  0.29833625  0.27632654  0.45619195  1.0
  N  N42  1  0.36421066  0.33102285  0.49501719  1.0
  N  N43  1  0.36952356  0.40698955  0.45133719  1.0
  N  N44  1  0.30697392  0.40352143  0.38254605  1.0
  N  N45  1  0.84458426  0.26386488  0.15664776  1.0
  N  N46  1  0.61674673  0.41256685  0.36617041  1.0
  N  N47  1  0.57262698  0.48521714  0.39193704  1.0
  N  N48  1  0.59128715  0.55339098  0.33988172  1.0
  N  N49  1  0.64827411  0.52524828  0.27804421  1.0
  N  N50  1  0.55893324  0.38304683  0.54943203  1.0
  N  N51  1  0.64769110  0.36528699  0.55698040  1.0
  N  N52  1  0.73251952  0.34749692  0.56310583  1.0
