# generated using pymatgen
data_ZnH14C17NO4
_symmetry_space_group_name_H-M   'P 1'
_cell_length_a   4.57981000
_cell_length_b   13.88283855
_cell_length_c   14.25261000
_cell_angle_alpha   93.27514013
_cell_angle_beta   98.49085000
_cell_angle_gamma   98.64836454
_symmetry_Int_Tables_number   1
_chemical_formula_structural   ZnH14C17NO4
_chemical_formula_sum   'Zn2 H28 C34 N2 O8'
_cell_volume   883.14756017
_cell_formula_units_Z   2
loop_
 _symmetry_equiv_pos_site_id
 _symmetry_equiv_pos_as_xyz
  1  'x, y, z'
loop_
 _atom_site_type_symbol
 _atom_site_label
 _atom_site_symmetry_multiplicity
 _atom_site_fract_x
 _atom_site_fract_y
 _atom_site_fract_z
 _atom_site_occupancy
  Zn  Zn0  1  0.22182000  0.93510000  0.50223000  1
  Zn  Zn1  1  0.77818000  0.06491000  0.49777000  1
  H  H2  1  0.95902000  0.15224000  0.71495000  1
  H  H3  1  0.84281000  0.29656000  0.81045000  1
  H  H4  1  0.53578000  0.48242000  0.70498000  1
  H  H5  1  0.66434000  0.33799000  0.61618000  1
  H  H6  1  0.07812000  0.54188000  0.75001000  1
  H  H7  1  0.88280000  0.47902000  0.83268000  1
  H  H8  1  0.38120000  0.66997000  0.97052000  1
  H  H9  1  0.04533000  0.64487000  0.88897000  1
  H  H10  1  0.70581000  0.61104000  0.79331000  1
  H  H11  1  0.92183000  0.71572000  0.67322000  1
  H  H12  1  0.35909000  0.92455000  0.72873000  1
  H  H13  1  0.16176000  0.82410000  0.85350000  1
  H  H14  1  0.31050000  0.40882000  0.94400000  1
  H  H15  1  0.16554000  0.50027000  0.00738000  1
  H  H16  1  0.04097000  0.84776000  0.28505000  1
  H  H17  1  0.15717000  0.70344000  0.18955000  1
  H  H18  1  0.46422000  0.51759000  0.29502000  1
  H  H19  1  0.33566000  0.66202000  0.38382000  1
  H  H20  1  0.92187000  0.45812000  0.24999000  1
  H  H21  1  0.11719000  0.52098000  0.16732000  1
  H  H22  1  0.61880000  0.33004000  0.02948000  1
  H  H23  1  0.95466000  0.35513000  0.11103000  1
  H  H24  1  0.29418000  0.38896000  0.20669000  1
  H  H25  1  0.07816000  0.28428000  0.32678000  1
  H  H26  1  0.64090000  0.07545000  0.27127000  1
  H  H27  1  0.83824000  0.17591000  0.14650000  1
  H  H28  1  0.68949000  0.59118000  0.05599000  1
  H  H29  1  0.83445000  0.49974000  0.99261000  1
  C  C30  1  0.38449000  0.15319000  0.60388000  1
  C  C31  1  0.32159000  0.23608000  0.66340000  1
  C  C32  1  0.08453000  0.22502000  0.71438000  1
  C  C33  1  0.00860000  0.30660000  0.76325000  1
  C  C34  1  0.17807000  0.39939000  0.76039000  1
  C  C35  1  0.41556000  0.40950000  0.70954000  1
  C  C36  1  0.49916000  0.32897000  0.66344000  1
  C  C37  1  0.10330000  0.49113000  0.80606000  1
  C  C38  1  0.28919000  0.64192000  0.89663000  1
  C  C39  1  0.42138000  0.70878000  0.82900000  1
  C  C40  1  0.64311000  0.68193000  0.78170000  1
  C  C41  1  0.77589000  0.74200000  0.71864000  1
  C  C42  1  0.66404000  0.82935000  0.69912000  1
  C  C43  1  0.43971000  0.85698000  0.74576000  1
  C  C44  1  0.31366000  0.79730000  0.81050000  1
  C  C45  1  0.77721000  0.88775000  0.62482000  1
  C  C46  1  0.35491000  0.48722000  0.96691000  1
  C  C47  1  0.61551000  0.84682000  0.39612000  1
  C  C48  1  0.67840000  0.76392000  0.33660000  1
  C  C49  1  0.91546000  0.77498000  0.28562000  1
  C  C50  1  0.99140000  0.69341000  0.23675000  1
  C  C51  1  0.82192000  0.60061000  0.23961000  1
  C  C52  1  0.58444000  0.59051000  0.29046000  1
  C  C53  1  0.50084000  0.67104000  0.33656000  1
  C  C54  1  0.89669000  0.50888000  0.19394000  1
  C  C55  1  0.71080000  0.35808000  0.10337000  1
  C  C56  1  0.57861000  0.29122000  0.17100000  1
  C  C57  1  0.35688000  0.31807000  0.21830000  1
  C  C58  1  0.22411000  0.25801000  0.28136000  1
  C  C59  1  0.33596000  0.17066000  0.30088000  1
  C  C60  1  0.56028000  0.14302000  0.25424000  1
  C  C61  1  0.68634000  0.20271000  0.18950000  1
  C  C62  1  0.22278000  0.11225000  0.37518000  1
  C  C63  1  0.64509000  0.51279000  0.03309000  1
  N  N64  1  0.34213000  0.54049000  0.88053000  1
  N  N65  1  0.65787000  0.45952000  0.11947000  1
  O  O66  1  0.20055000  0.07173000  0.59327000  1
  O  O67  1  0.61532000  0.17047000  0.56338000  1
  O  O68  1  0.98660000  0.85803000  0.58716000  1
  O  O69  1  0.65069000  0.96201000  0.60124000  1
  O  O70  1  0.79945000  0.92828000  0.40673000  1
  O  O71  1  0.38467000  0.82953000  0.43662000  1
  O  O72  1  0.01339000  0.14198000  0.41284000  1
  O  O73  1  0.34930000  0.03799000  0.39876000  1
