# generated using pymatgen
data_SiH16(C9N)3
_symmetry_space_group_name_H-M   'P 1'
_cell_length_a   21.72285000
_cell_length_b   30.70130000
_cell_length_c   30.70130000
_cell_angle_alpha   90.00000000
_cell_angle_beta   90.06370000
_cell_angle_gamma   89.97180000
_symmetry_Int_Tables_number   1
_chemical_formula_structural   SiH16(C9N)3
_chemical_formula_sum   'Si8 H128 C216 N24'
_cell_volume   20475.28771691
_cell_formula_units_Z   8
loop_
 _symmetry_equiv_pos_site_id
 _symmetry_equiv_pos_as_xyz
  1  'x, y, z'
loop_
 _atom_site_type_symbol
 _atom_site_label
 _atom_site_symmetry_multiplicity
 _atom_site_fract_x
 _atom_site_fract_y
 _atom_site_fract_z
 _atom_site_occupancy
  C  1  1  0.68994000  0.58522000  0.99454500  1
  C  3  1  0.71281300  0.66127400  0.99314300  1
  C  5  1  0.60792300  0.64113200  0.99559600  1
  C  7  1  0.68994000  0.53847950  0.99460850  1
  C  9  1  0.71283200  0.46241950  0.99637550  1
  C  11  1  0.60794100  0.48260500  0.99361750  1
  C  13  1  0.68947100  0.06174450  0.47162250  1
  C  15  1  0.71233100  0.05856550  0.39559800  1
  C  17  1  0.60740800  0.06078000  0.41569050  1
  C  19  1  0.68949100  0.06305550  0.51835500  1
  C  21  1  0.71244100  0.06559950  0.59441900  1
  C  23  1  0.60748500  0.06408600  0.57420350  1
  C  25  1  0.46076500  0.53853650  0.99396750  1
  C  27  1  0.43785800  0.46249600  0.99118250  1
  C  29  1  0.54280800  0.48263100  0.99277150  1
  C  31  1  0.46076500  0.58526400  0.99536300  1
  C  33  1  0.43785400  0.66130350  0.99845900  1
  C  35  1  0.54279400  0.64113200  0.99647600  1
  C  37  1  0.46029600  0.06252150  0.47151700  1
  C  39  1  0.43735200  0.06389950  0.39544850  1
  C  41  1  0.54227700  0.06165450  0.41565900  1
  C  43  1  0.46031800  0.06234050  0.51825800  1
  C  45  1  0.43749000  0.06034050  0.59429850  1
  C  47  1  0.54235700  0.06320950  0.57419300  1
  C  49  1  0.75277100  0.69652450  0.99082300  1
  C  50  1  0.75040100  0.72375800  0.95387000  1
  C  51  1  0.77895500  0.76467000  0.95449300  1
  C  52  1  0.80842400  0.77988900  0.99269200  1
  C  53  1  0.80994300  0.75229400  0.02977850  1
  C  54  1  0.78186900  0.71117450  0.02906350  1
  C  56  1  0.92264000  0.79866450  0.99541000  1
  C  57  1  0.95949400  0.80252400  0.03321200  1
  C  58  1  0.01910500  0.78526900  0.03417000  1
  C  59  1  0.04294600  0.76242900  0.99791000  1
  C  60  1  0.00288300  0.75287600  0.96288700  1
  C  61  1  0.94330500  0.77057700  0.96180300  1
  C  62  1  0.84726200  0.85292800  0.94642350  1
  C  63  1  0.84381100  0.85881750  0.03116900  1
  C  64  1  0.88532100  0.89428700  0.03424600  1
  C  65  1  0.88249800  0.92350000  0.06922400  1
  C  66  1  0.83750300  0.91879100  0.10207350  1
  C  67  1  0.79302100  0.88552650  0.09743600  1
  C  68  1  0.79609000  0.85593700  0.06241700  1
  C  69  1  0.79048800  0.87387800  0.93729600  1
  C  70  1  0.78590200  0.90568500  0.90441950  1
  C  71  1  0.83826300  0.91794300  0.88011450  1
  C  72  1  0.89420800  0.89569100  0.88774150  1
  C  73  1  0.89884300  0.86413500  0.92059850  1
  C  90  1  0.75280700  0.42716600  0.99888500  1
  C  91  1  0.75031700  0.39997300  0.03586400  1
  C  92  1  0.77892500  0.35905900  0.03541700  1
  C  93  1  0.80870100  0.34378850  0.99739600  1
  C  94  1  0.81026400  0.37132250  0.96026500  1
  C  95  1  0.78216600  0.41245300  0.96081000  1
  C  97  1  0.92280600  0.32469750  0.99481300  1
  C  98  1  0.95952700  0.32067500  0.95701100  1
  C  99  1  0.01910500  0.33793150  0.95592800  1
  C  100  1  0.04298300  0.36093700  0.99208350  1
  C  101  1  0.00316700  0.37057000  0.02716100  1
  C  102  1  0.94362700  0.35285200  0.02834300  1
  C  103  1  0.84724400  0.27073900  0.04386700  1
  C  104  1  0.84371400  0.26468550  0.95913500  1
  C  105  1  0.88507100  0.22909300  0.95619550  1
  C  106  1  0.88218900  0.19985700  0.92123550  1
  C  107  1  0.83732800  0.20471300  0.88824550  1
  C  108  1  0.79300300  0.23812100  0.89272000  1
  C  109  1  0.79607100  0.26768750  0.92776000  1
  C  110  1  0.79041400  0.24991000  0.05294000  1
  C  111  1  0.78575500  0.21812100  0.08582000  1
  C  112  1  0.83806500  0.20581700  0.11024650  1
  C  113  1  0.89404700  0.22798200  0.10271800  1
  C  114  1  0.89875600  0.25951300  0.06985050  1
  C  131  1  0.75233900  0.05660250  0.36033600  1
  C  132  1  0.74995400  0.01990100  0.33276550  1
  C  133  1  0.77856900  0.02086850  0.29189400  1
  C  134  1  0.80816000  0.05913300  0.27703850  1
  C  135  1  0.80951300  0.09599100  0.30495100  1
  C  136  1  0.78148000  0.09492600  0.34607000  1
  C  138  1  0.92234900  0.06231800  0.25822100  1
  C  139  1  0.95894200  0.10021250  0.25441100  1
  C  140  1  0.01863100  0.10124550  0.27154400  1
  C  141  1  0.04282600  0.06496650  0.29421900  1
  C  142  1  0.00301100  0.02984850  0.30377400  1
  C  143  1  0.94335000  0.02869000  0.28619200  1
  C  144  1  0.84722200  0.01333000  0.20380400  1
  C  145  1  0.84329500  0.09806400  0.19821400  1
  C  146  1  0.88466500  0.10114700  0.16268200  1
  C  147  1  0.88178000  0.13618600  0.13354800  1
  C  148  1  0.83694500  0.16915800  0.13845600  1
  C  149  1  0.79262000  0.16456400  0.17180750  1
  C  150  1  0.79570000  0.12944100  0.20129100  1
  C  151  1  0.79052000  0.00421300  0.18275200  1
  C  152  1  0.78606800  0.97138250  0.15089600  1
  C  153  1  0.83850700  0.94711050  0.13865600  1
  C  154  1  0.89442300  0.95477100  0.16093300  1
  C  155  1  0.89889400  0.98755150  0.19258300  1
  C  172  1  0.75244900  0.06729900  0.62974000  1
  C  173  1  0.75030000  0.10401150  0.65732050  1
  C  174  1  0.77880000  0.10292350  0.69826800  1
  C  175  1  0.80810100  0.06452700  0.71317600  1
  C  176  1  0.80929800  0.02767800  0.68526950  1
  C  177  1  0.78129000  0.02885700  0.64409950  1
  C  179  1  0.92232200  0.06146800  0.73197200  1
  C  180  1  0.95905100  0.02359700  0.73566200  1
  C  181  1  0.01867700  0.02268700  0.71849150  1
  C  182  1  0.04258800  0.05899600  0.69576850  1
  C  183  1  0.00261500  0.09411950  0.68641350  1
  C  184  1  0.94304100  0.09517300  0.70403500  1
  C  185  1  0.84718000  0.11026750  0.78648700  1
  C  186  1  0.84355200  0.02554900  0.79197100  1
  C  187  1  0.88505600  0.02242100  0.82748600  1
  C  188  1  0.88218100  0.98742400  0.85666650  1
  C  189  1  0.83719500  0.95456200  0.85184150  1
  C  190  1  0.79276200  0.95921000  0.81849700  1
  C  191  1  0.79583900  0.99428300  0.78896300  1
  C  192  1  0.79044700  0.11937500  0.80742400  1
  C  193  1  0.78598200  0.15212700  0.83934900  1
  C  194  1  0.83836900  0.17642700  0.85165000  1
  C  195  1  0.89430600  0.16878300  0.82946700  1
  C  196  1  0.89883100  0.13602350  0.79780250  1
  C  213  1  0.39786400  0.42721150  0.98942000  1
  C  214  1  0.39998100  0.39965650  0.95269200  1
  C  215  1  0.37147600  0.35874150  0.95372300  1
  C  216  1  0.34220800  0.34383050  0.99208600  1
  C  217  1  0.34102400  0.37171900  0.02895000  1
  C  218  1  0.36905000  0.41285400  0.02782800  1
  C  220  1  0.22802800  0.32502250  0.99518100  1
  C  221  1  0.19147200  0.32130100  0.03309250  1
  C  222  1  0.13186600  0.33855900  0.03416900  1
  C  223  1  0.10774400  0.36124050  0.99785100  1
  C  224  1  0.14747200  0.37061400  0.96266700  1
  C  225  1  0.20705500  0.35294900  0.96150550  1
  C  226  1  0.30319800  0.27056400  0.94627550  1
  C  227  1  0.30700000  0.26498950  0.03098300  1
  C  228  1  0.26557800  0.22947100  0.03404000  1
  C  229  1  0.26845600  0.20030750  0.06905300  1
  C  230  1  0.31334000  0.20517050  0.10202000  1
  C  231  1  0.35769400  0.23852350  0.09745900  1
  C  232  1  0.35465100  0.26801650  0.06234500  1
  C  233  1  0.35995000  0.24961350  0.93717400  1
  C  234  1  0.36439200  0.21767200  0.90443600  1
  C  235  1  0.31199000  0.20540400  0.88009950  1
  C  236  1  0.25605000  0.22763400  0.88771650  1
  C  237  1  0.25152900  0.25929450  0.92048200  1
  C  254  1  0.39786400  0.69660250  0.00029100  1
  C  255  1  0.40017000  0.72423550  0.03696000  1
  C  256  1  0.37157400  0.76514100  0.03591800  1
  C  257  1  0.34210600  0.77999200  0.99756550  1
  C  258  1  0.34068000  0.75204000  0.96075200  1
  C  259  1  0.36872400  0.71089600  0.96191900  1
  C  261  1  0.22780200  0.79866750  0.99449600  1
  C  262  1  0.19096200  0.80239350  0.95666550  1
  C  263  1  0.13141100  0.78506000  0.95570700  1
  C  264  1  0.10765200  0.76226950  0.99202850  1
  C  265  1  0.14766600  0.75291350  0.02711800  1
  C  266  1  0.20716100  0.77069750  0.02819600  1
  C  267  1  0.30295000  0.85325100  0.04327500  1
  C  268  1  0.30655000  0.85870600  0.95854500  1
  C  269  1  0.26511200  0.89424300  0.95541300  1
  C  270  1  0.26799100  0.92339950  0.92039700  1
  C  271  1  0.31296600  0.91857100  0.88754800  1
  C  272  1  0.35734000  0.88520400  0.89220500  1
  C  273  1  0.35424200  0.85568000  0.92728250  1
  C  274  1  0.35964600  0.87428100  0.05235400  1
  C  275  1  0.36415700  0.90611900  0.08519300  1
  C  276  1  0.31176500  0.91837900  0.10947900  1
  C  277  1  0.25585600  0.89612450  0.10184400  1
  C  278  1  0.25132800  0.86447200  0.06907200  1
  C  295  1  0.39734800  0.06617850  0.36017100  1
  C  296  1  0.39964500  0.10316300  0.33298650  1
  C  297  1  0.37116600  0.10253800  0.29201950  1
  C  298  1  0.34189000  0.06431800  0.27671100  1
  C  299  1  0.34046300  0.02720850  0.30427400  1
  C  300  1  0.36841600  0.02792150  0.34546650  1
  C  302  1  0.22769700  0.06169050  0.25780300  1
  C  303  1  0.19092000  0.02387750  0.25394100  1
  C  304  1  0.13142000  0.02281350  0.27132100  1
  C  305  1  0.10756000  0.05912000  0.29407300  1
  C  306  1  0.14739400  0.09427700  0.30343900  1
  C  307  1  0.20700000  0.09531950  0.28586400  1
  C  308  1  0.30313800  0.11058850  0.20360800  1
  C  309  1  0.30653100  0.02587600  0.19772800  1
  C  310  1  0.26502000  0.02286150  0.16221200  1
  C  311  1  0.26780200  0.98786250  0.13302300  1
  C  312  1  0.31280600  0.95496950  0.13777500  1
  C  313  1  0.35728800  0.95954500  0.17108800  1
  C  314  1  0.35427800  0.99459300  0.20064300  1
  C  315  1  0.35995400  0.11967450  0.18278800  1
  C  316  1  0.36455600  0.15249900  0.15094100  1
  C  317  1  0.31224400  0.17692000  0.13864900  1
  C  318  1  0.25626600  0.16935650  0.16079350  1
  C  319  1  0.25158800  0.13650000  0.19234000  1
  C  336  1  0.39753400  0.05785300  0.62952450  1
  C  337  1  0.40005000  0.02088450  0.65673200  1
  C  338  1  0.37145800  0.02140100  0.69762500  1
  C  339  1  0.34187600  0.05952400  0.71286650  1
  C  340  1  0.34023300  0.09663150  0.68530450  1
  C  341  1  0.36826800  0.09600800  0.64418500  1
  C  343  1  0.22769700  0.06224750  0.73174150  1
  C  344  1  0.19094000  0.10007950  0.73570900  1
  C  345  1  0.13126400  0.10111450  0.71855050  1
  C  346  1  0.10730800  0.06487900  0.69572650  1
  C  347  1  0.14714100  0.02975900  0.68618350  1
  C  348  1  0.20688000  0.02868900  0.70362400  1
  C  349  1  0.30309000  0.01312550  0.78586700  1
  C  350  1  0.30672400  0.09786650  0.79188250  1
  C  351  1  0.26531200  0.10088700  0.82739400  1
  C  352  1  0.26814800  0.13587200  0.85660200  1
  C  353  1  0.31304500  0.16879300  0.85182500  1
  C  354  1  0.35746400  0.16420750  0.81853550  1
  C  355  1  0.35438800  0.12917400  0.78895950  1
  C  356  1  0.35985800  0.00395800  0.80682300  1
  C  357  1  0.36435500  0.97112500  0.83868350  1
  C  358  1  0.31195000  0.94685000  0.85093000  1
  C  359  1  0.25600800  0.95454250  0.82868800  1
  C  360  1  0.25147400  0.98729900  0.79701800  1
  H  74  1  0.91446500  0.94796000  0.07075450  1
  H  75  1  0.92025500  0.89837300  0.01220700  1
  H  76  1  0.75959500  0.88142000  0.12053800  1
  H  77  1  0.76370000  0.83186400  0.06085300  1
  H  78  1  0.75235900  0.86801600  0.95601950  1
  H  79  1  0.74518700  0.92205900  0.90064950  1
  H  80  1  0.93323200  0.90400650  0.87100400  1
  H  81  1  0.94169700  0.85194500  0.92684700  1
  H  82  1  0.91747900  0.76560900  0.93430650  1
  H  83  1  0.01898600  0.73725800  0.93572350  1
  H  84  1  0.04679000  0.79382600  0.05979350  1
  H  85  1  0.94563800  0.82007950  0.05971200  1
  H  86  1  0.83242100  0.76132000  0.05771300  1
  H  87  1  0.77856600  0.78236300  0.92629050  1
  H  88  1  0.72746300  0.71415150  0.92631700  1
  H  89  1  0.78155200  0.69267700  0.05683100  1
  H  115  1  0.91409000  0.17533050  0.91977700  1
  H  116  1  0.91995000  0.22492100  0.97832300  1
  H  117  1  0.75960400  0.24227250  0.86954800  1
  H  118  1  0.76377800  0.29185200  0.92922500  1
  H  119  1  0.75231300  0.25580200  0.03413300  1
  H  120  1  0.74498200  0.20184600  0.08953600  1
  H  121  1  0.93304300  0.21963700  0.11954850  1
  H  122  1  0.94163300  0.27163800  0.06368000  1
  H  123  1  0.91789400  0.35793250  0.05582400  1
  H  124  1  0.01939000  0.38629950  0.05424400  1
  H  125  1  0.04668400  0.32931850  0.93030400  1
  H  126  1  0.94556400  0.30306050  0.93056500  1
  H  127  1  0.83286200  0.36225200  0.93242400  1
  H  128  1  0.77845500  0.34142500  0.06365500  1
  H  129  1  0.72722200  0.40960900  0.06330850  1
  H  130  1  0.78190800  0.43087900  0.93299500  1
  H  156  1  0.91368100  0.13771850  0.10905800  1
  H  157  1  0.91954600  0.07905450  0.15846700  1
  H  158  1  0.75928500  0.18774750  0.17602500  1
  H  159  1  0.76346500  0.12790800  0.22545150  1
  H  160  1  0.75227000  0.02282850  0.18868400  1
  H  161  1  0.74532400  0.96755900  0.13456550  1
  H  162  1  0.93350000  0.93803550  0.15267100  1
  H  163  1  0.94171100  0.99377300  0.20484600  1
  H  164  1  0.91772300  0.00112400  0.29112900  1
  H  165  1  0.01936300  0.00266500  0.31926850  1
  H  166  1  0.04611600  0.12693650  0.26297200  1
  H  167  1  0.94485300  0.12672800  0.23694500  1
  H  168  1  0.83193700  0.12399500  0.29617150  1
  H  169  1  0.77826100  0.99280200  0.27399050  1
  H  170  1  0.72703800  0.99227650  0.34210200  1
  H  171  1  0.78107000  0.12254400  0.36478550  1
  H  197  1  0.91412800  0.98588000  0.88117600  1
  H  198  1  0.91999300  0.04446000  0.83167450  1
  H  199  1  0.75936000  0.93608500  0.81430100  1
  H  200  1  0.76352600  0.99584500  0.76480350  1
  H  201  1  0.75223700  0.10074700  0.80143300  1
  H  202  1  0.74520800  0.15601400  0.85557500  1
  H  203  1  0.93335600  0.18551750  0.83780850  1
  H  204  1  0.94165600  0.12981000  0.78559600  1
  H  205  1  0.91728900  0.12271150  0.69915850  1
  H  206  1  0.01876400  0.12125600  0.67077200  1
  H  207  1  0.04631600  0.99702400  0.72699300  1
  H  208  1  0.94523800  0.99709700  0.75322850  1
  H  209  1  0.83159200  0.99960600  0.69408650  1
  H  210  1  0.77867000  0.13100550  0.71614950  1
  H  211  1  0.72761500  0.13174100  0.64793000  1
  H  212  1  0.78073900  0.00125300  0.62536500  1
  H  238  1  0.23655000  0.17580600  0.07055200  1
  H  239  1  0.23067000  0.22528050  0.01194250  1
  H  240  1  0.39106900  0.24270050  0.12063900  1
  H  241  1  0.38689800  0.29218500  0.06084300  1
  H  242  1  0.39815800  0.25553800  0.95585500  1
  H  243  1  0.40517000  0.20140750  0.90058750  1
  H  244  1  0.21698900  0.21932250  0.87096200  1
  H  245  1  0.20870300  0.27151850  0.92668250  1
  H  246  1  0.23274700  0.35791050  0.93398800  1
  H  247  1  0.13110200  0.38620850  0.93554450  1
  H  248  1  0.10430100  0.32983750  0.05975800  1
  H  249  1  0.20544400  0.30369400  0.05954900  1
  H  250  1  0.31876200  0.36290300  0.05700200  1
  H  251  1  0.37161000  0.34087600  0.92563150  1
  H  252  1  0.42264800  0.40904100  0.92498600  1
  H  253  1  0.36958200  0.43157600  0.05544000  1
  H  279  1  0.23603800  0.94789000  0.91882150  1
  H  280  1  0.23011800  0.89839000  0.97739900  1
  H  281  1  0.39077900  0.88104000  0.86912000  1
  H  282  1  0.38656200  0.83154100  0.92888100  1
  H  283  1  0.39782600  0.86834700  0.03369900  1
  H  284  1  0.40485200  0.92248700  0.08897100  1
  H  285  1  0.21681900  0.90440600  0.11859700  1
  H  286  1  0.20851900  0.85220650  0.06287950  1
  H  287  1  0.23306000  0.76575750  0.05566700  1
  H  288  1  0.13160900  0.73730450  0.05429500  1
  H  289  1  0.10367500  0.79376700  0.93015350  1
  H  290  1  0.20467000  0.82005600  0.93020700  1
  H  291  1  0.31824700  0.76080600  0.93271150  1
  H  292  1  0.37184000  0.78305900  0.06397700  1
  H  293  1  0.42302200  0.71489400  0.06464400  1
  H  294  1  0.36912000  0.69213600  0.93433100  1
  H  320  1  0.23578000  0.98633900  0.10856250  1
  H  321  1  0.23000000  0.04488250  0.15814200  1
  H  322  1  0.39078800  0.93644700  0.17517200  1
  H  323  1  0.38669600  0.99613600  0.22473300  1
  H  324  1  0.39808000  0.10092250  0.18873500  1
  H  325  1  0.40534900  0.15631800  0.13473200  1
  H  326  1  0.21726600  0.18617100  0.15244800  1
  H  327  1  0.20871700  0.13032300  0.20446600  1
  H  328  1  0.23277400  0.12281950  0.29080000  1
  H  329  1  0.13128200  0.12136450  0.31920100  1
  H  330  1  0.10378100  0.99722800  0.26263950  1
  H  331  1  0.20481800  0.99739200  0.23637200  1
  H  332  1  0.31809500  0.99926700  0.29518400  1
  H  333  1  0.37146200  0.13075800  0.27435250  1
  H  334  1  0.42244200  0.13073050  0.34266400  1
  H  335  1  0.36889400  0.00012900  0.36392550  1
  H  361  1  0.23620800  0.13738800  0.88106450  1
  H  362  1  0.23040400  0.07881900  0.83150000  1
  H  363  1  0.39081600  0.18736750  0.81438400  1
  H  364  1  0.38669600  0.12766500  0.76484400  1
  H  365  1  0.39802000  0.02266550  0.80099150  1
  H  366  1  0.40509600  0.96727600  0.85501900  1
  H  367  1  0.21697100  0.93778500  0.83695000  1
  H  368  1  0.20859200  0.99363400  0.78491800  1
  H  369  1  0.23265000  0.00119300  0.69859850  1
  H  370  1  0.13095000  0.00269800  0.67040400  1
  H  371  1  0.10367000  0.12675350  0.72716850  1
  H  372  1  0.20493800  0.12653900  0.75328000  1
  H  373  1  0.31772200  0.12452900  0.69436600  1
  H  374  1  0.37195600  0.99318800  0.71530200  1
  H  375  1  0.42308400  0.99339400  0.64710900  1
  H  376  1  0.36853000  0.12380800  0.62573650  1
  N  2  1  0.73216700  0.61827600  0.99361750  1
  N  4  1  0.65150900  0.67237650  0.99421200  1
  N  6  1  0.63210200  0.60106050  0.99556350  1
  N  8  1  0.73217500  0.50540450  0.99578950  1
  N  10  1  0.65153200  0.45134350  0.99523650  1
  N  12  1  0.63210600  0.52266650  0.99350000  1
  N  14  1  0.73167900  0.06026100  0.43858400  1
  N  16  1  0.65099900  0.05907700  0.38448850  1
  N  18  1  0.63161800  0.06187350  0.45575200  1
  N  20  1  0.73174400  0.06407500  0.55144700  1
  N  22  1  0.65112100  0.06529850  0.60545950  1
  N  24  1  0.63164600  0.06318500  0.53415750  1
  N  26  1  0.41853300  0.50547800  0.99282500  1
  N  28  1  0.49919000  0.45141000  0.99146200  1
  N  30  1  0.51861700  0.52268650  0.99380450  1
  N  32  1  0.41853300  0.61833600  0.99673650  1
  N  34  1  0.49917600  0.67236400  0.99804650  1
  N  36  1  0.51861700  0.60108700  0.99537400  1
  N  38  1  0.41803600  0.06337650  0.43843150  1
  N  40  1  0.49865200  0.06292800  0.38438800  1
  N  42  1  0.51812900  0.06164350  0.45571650  1
  N  44  1  0.41811400  0.06105100  0.55129800  1
  N  46  1  0.49879400  0.06148650  0.60541800  1
  N  48  1  0.51815600  0.06343900  0.53411500  1
  Si  55  1  0.85436000  0.82283250  0.99132800  1
  Si  96  1  0.85443900  0.30072250  0.99891600  1
  Si  137  1  0.85404900  0.05812400  0.23408050  1
  Si  178  1  0.85410400  0.06552750  0.75614700  1
  Si  219  1  0.29629800  0.30086150  0.99104500  1
  Si  260  1  0.29601200  0.82289900  0.99854100  1
  Si  301  1  0.29597000  0.06571500  0.23370950  1
  Si  342  1  0.29603500  0.05808400  0.75584150  1
