# generated using pymatgen
data_Zn3H15C26SN3O13
_symmetry_space_group_name_H-M   'P 1'
_cell_length_a   11.73346000
_cell_length_b   19.54022384
_cell_length_c   19.53948293
_cell_angle_alpha   116.10093981
_cell_angle_beta   101.54986994
_cell_angle_gamma   101.54036741
_symmetry_Int_Tables_number   1
_chemical_formula_structural   Zn3H15C26SN3O13
_chemical_formula_sum   'Zn9 H45 C78 S3 N9 O39'
_cell_volume   3724.20814926
_cell_formula_units_Z   3
loop_
 _symmetry_equiv_pos_site_id
 _symmetry_equiv_pos_as_xyz
  1  'x, y, z'
loop_
 _atom_site_type_symbol
 _atom_site_label
 _atom_site_symmetry_multiplicity
 _atom_site_fract_x
 _atom_site_fract_y
 _atom_site_fract_z
 _atom_site_occupancy
  C  C1  1  0.58804333  0.65626000  0.00000000  1.0
  C  C2  1  0.45960000  0.65663000  0.00000000  1.0
  C  C3  1  0.46175667  0.44520667  0.60394333  1.0
  C  C4  1  0.95217667  0.70867000  0.86932000  1.0
  C  C5  1  0.10792333  0.79716333  0.84002667  1.0
  C  C6  1  0.38233667  0.39149667  0.51630333  1.0
  C  C7  1  0.49284333  0.50431667  0.74630333  1.0
  C  C8  1  0.99044000  0.75817000  0.83349000  1.0
  C  C9  1  0.58616333  0.48652667  0.62404333  1.0
  C  C10  1  0.65801333  0.53536333  0.70477667  1.0
  C  C11  1  0.41455667  0.45495000  0.66676000  1.0
  C  C12  1  0.42043333  0.71974667  0.00000333  1.0
  C  C13  1  0.30144333  0.71863000  0.00000000  1.0
  C  C14  1  0.32084667  0.83861667  0.87889333  1.0
  C  C15  1  0.37658667  0.59420000  1.00000000  1.0
  C  C16  1  0.25928667  0.59756000  1.00000000  1.0
  C  C17  1  0.95216333  0.86932000  0.70866000  1.0
  C  C18  1  0.10792667  0.84001667  0.79718333  1.0
  C  C19  1  0.99044333  0.83349667  0.75817333  1.0
  C  C20  1  0.32084667  0.87887000  0.83864000  1.0
  C  C21  1  0.85786333  0.39607667  0.84127333  1.0
  C  C22  1  0.86610333  0.48371667  0.87524333  1.0
  C  C23  1  0.74652000  0.25372667  0.75798333  1.0
  C  C24  1  0.96216333  0.37593667  0.86246333  1.0
  C  C25  1  0.95321333  0.29519000  0.83054000  1.0
  C  C26  1  0.74783667  0.33328000  0.78819000  1.0
  C  C27  1  0.58797333  0.99998667  0.65621333  1.0
  C  C28  1  0.45954667  0.99999333  0.65661667  1.0
  C  C30  1  0.08277000  0.13060333  0.83933667  1.0
  C  C31  1  0.26790000  0.16002000  0.95715000  1.0
  C  C34  1  0.15692667  0.16652333  0.92467667  1.0
  C  C38  1  0.42038333  0.99997000  0.71972000  1.0
  C  C39  1  0.30139667  0.99998000  0.71861000  1.0
  C  C40  1  0.44191333  0.12113000  0.95975000  1.0
  C  C41  1  0.37652667  0.00001000  0.59419000  1.0
  C  C42  1  0.25922667  0.00000000  0.59755000  1.0
  C  C43  1  0.24343333  0.29127000  0.16066000  1.0
  C  C44  1  0.31075000  0.20287333  0.04285667  1.0
  C  C45  1  0.23225000  0.24185667  0.07532333  1.0
  C  C46  1  0.48217000  0.16139333  0.04025667  1.0
  C  C47  1  0.01661333  0.15873333  0.55481667  1.0
  C  C48  1  0.99086333  0.12477667  0.60850333  1.0
  C  C49  1  0.98852667  0.24200333  0.49573667  1.0
  C  C50  1  0.09972333  0.13754000  0.51350000  1.0
  C  C51  1  0.12269333  0.16946000  0.46467000  1.0
  C  C52  1  0.95964000  0.21179667  0.54508333  1.0
  C  C53  1  0.93176000  0.34377000  0.34379000  1.0
  C  C54  1  0.80293667  0.34339000  0.34339000  1.0
  C  C56  1  0.24350333  0.16065667  0.29134333  1.0
  C  C57  1  0.31074667  0.04283333  0.20282667  1.0
  C  C60  1  0.23226667  0.07531667  0.24183333  1.0
  C  C64  1  0.70066667  0.28025667  0.28028333  1.0
  C  C65  1  0.58278333  0.28136000  0.28139000  1.0
  C  C66  1  0.48220333  0.04022667  0.16136333  1.0
  C  C67  1  0.78234000  0.40582333  0.40581667  1.0
  C  C68  1  0.66168000  0.40245000  0.40245000  1.0
  C  C69  1  0.08285667  0.83934667  0.13068333  1.0
  C  C70  1  0.26789667  0.95713000  0.15998000  1.0
  C  C71  1  0.15695333  0.92468333  0.16651667  1.0
  C  C72  1  0.44195333  0.95972333  0.12110667  1.0
  C  C79  1  0.85781333  0.84126000  0.39606000  1.0
  C  C80  1  0.86603000  0.87519333  0.48369667  1.0
  C  C81  1  0.74654333  0.75801667  0.25370333  1.0
  C  C82  1  0.96212000  0.86248000  0.37596000  1.0
  C  C83  1  0.95324000  0.83059333  0.29522667  1.0
  C  C84  1  0.74780000  0.78819667  0.33324333  1.0
  C  C85  1  0.01659000  0.55479667  0.15873333  1.0
  C  C86  1  0.99086333  0.60847667  0.12476333  1.0
  C  C87  1  0.98854333  0.49575333  0.24202667  1.0
  C  C88  1  0.09970667  0.51348333  0.13754667  1.0
  C  C89  1  0.12267667  0.46465667  0.16946333  1.0
  C  C90  1  0.95965000  0.54509333  0.21181667  1.0
  C  C97  1  0.46179667  0.60391667  0.44518333  1.0
  C  C98  1  0.38236333  0.51628000  0.39150000  1.0
  C  C99  1  0.49278667  0.74626333  0.50426667  1.0
  C  C100  1  0.58622333  0.62404000  0.48650000  1.0
  C  C101  1  0.65802667  0.70479333  0.53533667  1.0
  C  C102  1  0.41455667  0.66671000  0.45492000  1.0
  H  H1  1  0.46080333  0.51383333  0.79730667  1.0
  H  H2  1  0.62519333  0.47975667  0.57639333  1.0
  H  H3  1  0.75455000  0.56959333  0.72306667  1.0
  H  H4  1  0.31801333  0.42393000  0.65299000  1.0
  H  H5  1  0.40403000  0.83519667  0.91126333  1.0
  H  H6  1  0.40403000  0.91122667  0.83522333  1.0
  H  H7  1  0.66345000  0.20275667  0.71647333  1.0
  H  H8  1  0.04888667  0.42354667  0.90335333  1.0
  H  H9  1  0.03144000  0.27686667  0.84645333  1.0
  H  H10  1  0.66506000  0.34707333  0.77094667  1.0
  H  H11  1  0.40287333  0.54387000  0.00000000  1.0
  H  H12  1  0.19104000  0.55085333  0.00000667  1.0
  H  H13  1  0.26665667  0.76616000  0.00000000  1.0
  H  H14  1  0.48240333  0.76927000  0.00000000  1.0
  H  H15  1  0.89057667  0.72839667  0.00000333  1.0
  H  H20  1  0.49272000  0.08876667  0.92395333  1.0
  H  H21  1  0.56876667  0.16480667  0.07605333  1.0
  H  H22  1  0.94696000  0.28351000  0.48627000  1.0
  H  H23  1  0.14561667  0.09669333  0.52025667  1.0
  H  H24  1  0.18501667  0.15356000  0.43044000  1.0
  H  H25  1  0.89413333  0.22905000  0.57613000  1.0
  H  H26  1  0.40282000  0.00003333  0.54387667  1.0
  H  H27  1  0.19099000  0.00001333  0.55084667  1.0
  H  H28  1  0.26661333  0.99996000  0.76614000  1.0
  H  H29  1  0.48235000  0.99997667  0.76926333  1.0
  H  H30  1  0.89041000  0.99996667  0.72826333  1.0
  H  H35  1  0.56880667  0.07600333  0.16477667  1.0
  H  H36  1  0.49276667  0.92392667  0.08874333  1.0
  H  H41  1  0.85895000  0.45616667  0.45613333  1.0
  H  H42  1  0.64014333  0.44916000  0.44916000  1.0
  H  H43  1  0.50047667  0.23382667  0.23386333  1.0
  H  H44  1  0.71309000  0.23072000  0.23074000  1.0
  H  H45  1  0.16214667  0.27170000  0.27174000  1.0
  H  H46  1  0.66349667  0.71652333  0.20269667  1.0
  H  H47  1  0.04880000  0.90336000  0.42361000  1.0
  H  H48  1  0.03148333  0.84652333  0.27693667  1.0
  H  H49  1  0.66502333  0.77093667  0.34701333  1.0
  H  H50  1  0.94697667  0.48628000  0.28353000  1.0
  H  H51  1  0.14553333  0.52019000  0.09665000  1.0
  H  H52  1  0.18498667  0.43041333  0.15354667  1.0
  H  H53  1  0.89411333  0.57612333  0.22905667  1.0
  H  H58  1  0.46068667  0.79723667  0.51373333  1.0
  H  H59  1  0.62536333  0.57643333  0.47975667  1.0
  H  H60  1  0.75457667  0.72312000  0.56956000  1.0
  H  H61  1  0.31800333  0.65291667  0.42387333  1.0
  N  N1  1  0.22187667  0.65839667  0.00000333  1.0
  N  N2  1  0.61281000  0.54411000  0.76539000  1.0
  N  N3  1  0.84737000  0.23460000  0.77869000  1.0
  N  N4  1  0.22181000  0.99998333  0.65837667  1.0
  N  N6  1  0.06868333  0.22130000  0.45592000  1.0
  N  N7  1  0.56343667  0.34161333  0.34162667  1.0
  N  N10  1  0.84742000  0.77872667  0.23461333  1.0
  N  N11  1  0.06869000  0.45592333  0.22131667  1.0
  N  N13  1  0.61276333  0.76537667  0.54408333  1.0
  O  O1  1  0.87151667  0.67751333  0.00000667  1.0
  O  O2  1  0.26700000  0.36418667  0.50326333  1.0
  O  O3  1  0.59923333  0.62164000  0.93065000  1.0
  O  O4  1  0.83483000  0.68271333  0.85474667  1.0
  O  O5  1  0.21509333  0.79571333  0.88328667  1.0
  O  O6  1  0.03519667  0.69636333  0.91010667  1.0
  O  O7  1  0.43752667  0.37841000  0.46494000  1.0
  O  O8  1  0.83481333  0.85475000  0.68268000  1.0
  O  O9  1  0.21509333  0.88326667  0.79574333  1.0
  O  O10  1  0.03518667  0.91011333  0.69638667  1.0
  O  O11  1  0.66858333  0.69099000  0.06935000  1.0
  O  O12  1  0.76381000  0.49677333  0.86100667  1.0
  O  O13  1  0.97266000  0.53506333  0.91350667  1.0
  O  O14  1  0.87155667  0.00000667  0.67739333  1.0
  O  O15  1  0.90282000  0.13904000  0.63579000  1.0
  O  O16  1  0.66850333  0.06931333  0.69082667  1.0
  O  O17  1  0.97992000  0.14510000  0.82795000  1.0
  O  O18  1  0.12508667  0.78625667  0.08989333  1.0
  O  O19  1  0.05915667  0.62157000  0.08650000  1.0
  O  O24  1  0.33177667  0.11674000  0.91244000  1.0
  O  O25  1  0.12503333  0.08985333  0.78625667  1.0
  O  O27  1  0.15197333  0.31715000  0.17205000  1.0
  O  O28  1  0.41933667  0.20429667  0.08756333  1.0
  O  O29  1  0.33877667  0.30359667  0.21374333  1.0
  O  O30  1  0.59918000  0.93062667  0.62168333  1.0
  O  O32  1  0.05913333  0.08649667  0.62158333  1.0
  O  O33  1  0.19417000  0.32262000  0.32261000  1.0
  O  O35  1  0.97750000  0.30895000  0.37832000  1.0
  O  O36  1  0.15213000  0.17206667  0.31732333  1.0
  O  O37  1  0.97259000  0.91347667  0.53506333  1.0
  O  O42  1  0.41935667  0.08753333  0.20426667  1.0
  O  O43  1  0.33880333  0.21373000  0.30362000  1.0
  O  O45  1  0.98008667  0.82797333  0.14525667  1.0
  O  O46  1  0.33181000  0.91243333  0.11671667  1.0
  O  O47  1  0.97768000  0.37849000  0.30918000  1.0
  O  O54  1  0.43755333  0.46491667  0.37842333  1.0
  O  O55  1  0.76373667  0.86092333  0.49673667  1.0
  O  O57  1  0.90281333  0.63578000  0.13900000  1.0
  O  O58  1  0.26703000  0.50324333  0.36421667  1.0
  S  S1  1  0.87943667  0.77477667  0.77476333  1.0
  S  S2  1  0.10463667  0.22524667  0.00000333  1.0
  S  S3  1  0.10467333  0.00001000  0.22524000  1.0
  Zn  Zn1  1  0.04320667  0.66065667  0.00000333  1.0
  Zn  Zn2  1  0.74348000  0.60501000  0.88564000  1.0
  Zn  Zn3  1  0.85777333  0.11433333  0.71934667  1.0
  Zn  Zn4  1  0.04314667  0.00001000  0.66064000  1.0
  Zn  Zn5  1  0.38250667  0.33936667  0.33936333  1.0
  Zn  Zn6  1  0.85784333  0.71938333  0.11436667  1.0
  Zn  Zn7  1  0.74342000  0.88564333  0.60500667  1.0
  Zn  Zn8  1  0.13841667  0.28063667  0.39500333  1.0
  Zn  Zn13  1  0.13843000  0.39499333  0.28065667  1.0
