# generated using pymatgen
data_Zn8H92C139(N15O16)2
_symmetry_space_group_name_H-M   'P 1'
_cell_length_a   17.88168000
_cell_length_b   20.67482000
_cell_length_c   27.52619000
_cell_angle_alpha   81.94902000
_cell_angle_beta   72.85298000
_cell_angle_gamma   84.38428000
_symmetry_Int_Tables_number   1
_chemical_formula_structural   Zn8H92C139(N15O16)2
_chemical_formula_sum   'Zn16 H184 C278 N60 O64'
_cell_volume   9611.05299108
_cell_formula_units_Z   2
loop_
 _symmetry_equiv_pos_site_id
 _symmetry_equiv_pos_as_xyz
  1  'x, y, z'
loop_
 _atom_site_type_symbol
 _atom_site_label
 _atom_site_symmetry_multiplicity
 _atom_site_fract_x
 _atom_site_fract_y
 _atom_site_fract_z
 _atom_site_occupancy
  Zn  Zn1  1  0.08222000  0.72946000  0.77035000  1.0
  Zn  Zn2  1  0.67257000  0.06919000  0.53005000  1.0
  Zn  Zn3  1  0.61664000  0.25566000  0.27501000  1.0
  Zn  Zn4  1  0.05469000  0.21258000  0.78007000  1.0
  Zn  Zn5  1  0.36994000  0.22313000  0.92956000  1.0
  Zn  Zn6  1  0.20314000  0.59859000  0.02352000  1.0
  Zn  Zn7  1  0.89980000  0.72612000  0.41725000  1.0
  Zn  Zn8  1  0.58185000  0.73926000  0.27970000  1.0
  Zn  Zn9  1  0.91778000  0.27054000  0.22966000  1.0
  Zn  Zn10  1  0.32743000  0.93080000  0.46995000  1.0
  Zn  Zn11  1  0.38336000  0.74433000  0.72499000  1.0
  Zn  Zn12  1  0.94531000  0.78742000  0.21994000  1.0
  Zn  Zn13  1  0.63006000  0.77686000  0.07044000  1.0
  Zn  Zn14  1  0.79686000  0.40141000  0.97648000  1.0
  Zn  Zn15  1  0.10020000  0.27387000  0.58276000  1.0
  Zn  Zn16  1  0.41815000  0.26073000  0.72030000  1.0
  H  H1  1  0.90192000  0.40819000  0.12263000  1.0
  H  H2  1  0.68358000  0.51284000  0.18923000  1.0
  H  H3  1  0.89415000  0.61781000  0.12254000  1.0
  H  H4  1  0.79261000  0.35341000  0.09797000  1.0
  H  H5  1  0.71491000  0.24747000  0.15878000  1.0
  H  H6  1  0.69263000  0.39882000  0.25117000  1.0
  H  H7  1  0.99568000  0.42913000  0.04837000  1.0
  H  H8  1  0.15053000  0.46442000  0.00909000  1.0
  H  H9  1  0.02698000  0.59594000  0.11355000  1.0
  H  H10  1  0.69699000  0.78780000  0.17064000  1.0
  H  H11  1  0.80217000  0.70226000  0.11193000  1.0
  H  H12  1  0.65761000  0.59656000  0.24533000  1.0
  H  H13  1  0.13307000  0.62637000  0.21660000  1.0
  H  H14  1  0.20679000  0.67718000  0.34065000  1.0
  H  H15  1  0.37319000  0.67604000  0.19043000  1.0
  H  H16  1  0.07188000  0.73445000  0.34996000  1.0
  H  H17  1  0.91522000  0.58634000  0.37064000  1.0
  H  H18  1  0.05222000  0.55531000  0.29605000  1.0
  H  H19  1  0.15801000  0.63825000  0.13659000  1.0
  H  H20  1  0.37955000  0.60291000  0.03242000  1.0
  H  H21  1  0.40262000  0.62593000  0.12443000  1.0
  H  H22  1  0.46015000  0.69225000  0.22368000  1.0
  H  H23  1  0.28266000  0.73180000  0.36037000  1.0
  H  H24  1  0.42499000  0.76704000  0.36508000  1.0
  H  H25  1  0.77060000  0.79631000  0.86460000  1.0
  H  H26  1  0.54493000  0.74017000  0.86293000  1.0
  H  H27  1  0.74498000  0.72458000  0.73066000  1.0
  H  H28  1  0.90086000  0.72469000  0.83076000  1.0
  H  H29  1  0.84408000  0.80278000  0.69370000  1.0
  H  H30  1  0.00633000  0.79004000  0.67567000  1.0
  H  H31  1  0.49332000  0.78425000  0.78488000  1.0
  H  H32  1  0.66081000  0.63136000  0.73011000  1.0
  H  H33  1  0.53039000  0.63151000  0.69261000  1.0
  H  H34  1  0.70594000  0.73805000  0.95708000  1.0
  H  H35  1  0.51300000  0.83958000  0.91377000  1.0
  H  H36  1  0.48975000  0.84003000  0.01807000  1.0
  H  H37  1  0.15398000  0.98674000  0.68830000  1.0
  H  H38  1  0.36490000  0.09045000  0.61952000  1.0
  H  H39  1  0.37047000  0.88114000  0.61904000  1.0
  H  H40  1  0.15347000  0.87348000  0.74670000  1.0
  H  H41  1  0.26555000  0.82747000  0.59493000  1.0
  H  H42  1  0.18374000  0.72157000  0.65377000  1.0
  H  H43  1  0.13126000  0.06980000  0.74497000  1.0
  H  H44  1  0.16760000  0.26120000  0.67028000  1.0
  H  H45  1  0.27084000  0.17578000  0.60970000  1.0
  H  H46  1  0.49697000  0.06676000  0.61167000  1.0
  H  H47  1  0.46441000  0.90226000  0.54395000  1.0
  H  H48  1  0.62106000  0.93354000  0.50889000  1.0
  H  H49  1  0.67278000  0.16128000  0.84784000  1.0
  H  H50  1  0.83730000  0.15056000  0.69816000  1.0
  H  H51  1  0.59470000  0.10736000  0.72633000  1.0
  H  H52  1  0.50340000  0.05116000  0.80159000  1.0
  H  H53  1  0.37038000  0.08936000  0.87631000  1.0
  H  H54  1  0.54550000  0.21934000  0.86043000  1.0
  H  H55  1  0.62076000  0.10617000  0.64712000  1.0
  H  H56  1  0.86542000  0.10360000  0.63331000  1.0
  H  H57  1  0.84395000  0.07376000  0.54365000  1.0
  H  H58  1  0.92608000  0.16734000  0.72858000  1.0
  H  H59  1  0.90136000  0.23579000  0.87078000  1.0
  H  H60  1  0.75574000  0.20599000  0.86838000  1.0
  H  H61  1  0.72707000  0.88835000  0.20984000  1.0
  H  H62  1  0.80505000  0.98711000  0.17712000  1.0
  H  H63  1  0.74664000  0.09596000  0.20401000  1.0
  H  H64  1  0.53388000  0.00791000  0.29303000  1.0
  H  H65  1  0.58414000  0.51422000  0.39757000  1.0
  H  H66  1  0.65007000  0.45753000  0.46189000  1.0
  H  H67  1  0.74733000  0.51674000  0.48638000  1.0
  H  H68  1  0.69608000  0.68977000  0.39261000  1.0
  H  H69  1  0.42001000  0.61088000  0.85627000  1.0
  H  H70  1  0.50503000  0.54982000  0.78550000  1.0
  H  H71  1  0.51396000  0.42760000  0.79733000  1.0
  H  H72  1  0.33920000  0.42918000  0.94319000  1.0
  H  H73  1  0.02853000  0.82510000  0.04818000  1.0
  H  H74  1  0.96871000  0.91301000  0.99672000  1.0
  H  H75  1  0.98238000  0.90368000  0.90475000  1.0
  H  H76  1  0.11128000  0.71940000  0.91702000  1.0
  H  H77  1  0.91073000  0.11091000  0.38293000  1.0
  H  H78  1  0.02165000  0.06500000  0.31426000  1.0
  H  H79  1  0.04754000  0.94386000  0.31684000  1.0
  H  H80  1  0.84735000  0.91649000  0.44899000  1.0
  H  H81  1  0.51854000  0.30369000  0.56672000  1.0
  H  H82  1  0.48973000  0.40848000  0.51630000  1.0
  H  H83  1  0.52281000  0.41619000  0.42083000  1.0
  H  H84  1  0.61097000  0.21630000  0.42698000  1.0
  H  H85  1  0.19166000  0.36189000  0.70891000  1.0
  H  H86  1  0.26999000  0.46039000  0.67558000  1.0
  H  H87  1  0.21316000  0.56893000  0.70351000  1.0
  H  H88  1  0.00131000  0.48145000  0.79485000  1.0
  H  H89  1  0.17318000  0.17469000  0.89411000  1.0
  H  H90  1  0.06221000  0.99659000  0.90459000  1.0
  H  H91  1  0.12135000  0.94683000  0.97376000  1.0
  H  H92  1  0.21247000  0.01129000  0.00007000  1.0
  H  H93  1  0.09809000  0.59180000  0.87738000  1.0
  H  H94  1  0.31643000  0.48715000  0.81078000  1.0
  H  H95  1  0.10585000  0.38218000  0.87746000  1.0
  H  H96  1  0.20739000  0.64659000  0.90204000  1.0
  H  H97  1  0.28510000  0.75252000  0.84122000  1.0
  H  H98  1  0.30737000  0.60117000  0.74883000  1.0
  H  H99  1  0.00432000  0.57087000  0.95163000  1.0
  H  H100  1  0.84947000  0.53557000  0.99091000  1.0
  H  H101  1  0.97302000  0.40405000  0.88645000  1.0
  H  H102  1  0.30301000  0.21219000  0.82936000  1.0
  H  H103  1  0.19784000  0.29773000  0.88808000  1.0
  H  H104  1  0.34239000  0.40343000  0.75467000  1.0
  H  H105  1  0.86693000  0.37363000  0.78341000  1.0
  H  H106  1  0.79321000  0.32281000  0.65935000  1.0
  H  H107  1  0.62681000  0.32395000  0.80957000  1.0
  H  H108  1  0.92812000  0.26555000  0.65005000  1.0
  H  H109  1  0.08478000  0.41366000  0.62937000  1.0
  H  H110  1  0.94778000  0.44469000  0.70395000  1.0
  H  H111  1  0.84199000  0.36174000  0.86341000  1.0
  H  H112  1  0.62046000  0.39709000  0.96759000  1.0
  H  H113  1  0.59738000  0.37406000  0.87557000  1.0
  H  H114  1  0.53985000  0.30774000  0.77632000  1.0
  H  H115  1  0.71734000  0.26819000  0.63964000  1.0
  H  H116  1  0.57501000  0.23295000  0.63493000  1.0
  H  H117  1  0.22940000  0.20368000  0.13540000  1.0
  H  H118  1  0.45507000  0.25982000  0.13707000  1.0
  H  H119  1  0.25502000  0.27541000  0.26935000  1.0
  H  H120  1  0.09914000  0.27531000  0.16924000  1.0
  H  H121  1  0.15592000  0.19721000  0.30631000  1.0
  H  H122  1  0.99367000  0.20995000  0.32434000  1.0
  H  H123  1  0.50668000  0.21574000  0.21512000  1.0
  H  H124  1  0.33920000  0.36864000  0.26990000  1.0
  H  H125  1  0.46961000  0.36848000  0.30739000  1.0
  H  H126  1  0.29406000  0.26194000  0.04292000  1.0
  H  H127  1  0.48700000  0.16041000  0.08624000  1.0
  H  H128  1  0.51025000  0.15996000  0.98193000  1.0
  H  H129  1  0.84602000  0.01326000  0.31170000  1.0
  H  H130  1  0.63510000  0.90955000  0.38048000  1.0
  H  H131  1  0.62954000  0.11885000  0.38096000  1.0
  H  H132  1  0.84653000  0.12651000  0.25330000  1.0
  H  H133  1  0.73445000  0.17252000  0.40507000  1.0
  H  H134  1  0.81626000  0.27843000  0.34623000  1.0
  H  H135  1  0.86875000  0.93019000  0.25503000  1.0
  H  H136  1  0.83240000  0.73880000  0.32972000  1.0
  H  H137  1  0.72916000  0.82421000  0.39030000  1.0
  H  H138  1  0.50303000  0.93324000  0.38833000  1.0
  H  H139  1  0.53559000  0.09773000  0.45605000  1.0
  H  H140  1  0.37894000  0.06645000  0.49112000  1.0
  H  H141  1  0.32722000  0.83871000  0.15217000  1.0
  H  H142  1  0.16270000  0.84943000  0.30184000  1.0
  H  H143  1  0.40530000  0.89264000  0.27368000  1.0
  H  H144  1  0.49660000  0.94883000  0.19842000  1.0
  H  H145  1  0.62962000  0.91063000  0.12370000  1.0
  H  H146  1  0.45450000  0.78066000  0.13957000  1.0
  H  H147  1  0.37924000  0.89382000  0.35289000  1.0
  H  H148  1  0.13458000  0.89639000  0.36670000  1.0
  H  H149  1  0.15606000  0.92623000  0.45635000  1.0
  H  H150  1  0.07392000  0.83266000  0.27142000  1.0
  H  H151  1  0.09864000  0.76421000  0.12922000  1.0
  H  H152  1  0.24426000  0.79400000  0.13162000  1.0
  H  H153  1  0.27293000  0.11164000  0.79016000  1.0
  H  H154  1  0.19495000  0.01288000  0.82288000  1.0
  H  H155  1  0.25336000  0.90404000  0.79599000  1.0
  H  H156  1  0.46612000  0.99208000  0.70697000  1.0
  H  H157  1  0.41586000  0.48577000  0.60244000  1.0
  H  H158  1  0.34993000  0.54247000  0.53811000  1.0
  H  H159  1  0.25267000  0.48326000  0.51363000  1.0
  H  H160  1  0.30392000  0.31022000  0.60739000  1.0
  H  H161  1  0.57999000  0.38912000  0.14373000  1.0
  H  H162  1  0.49497000  0.45017000  0.21451000  1.0
  H  H163  1  0.48604000  0.57239000  0.20267000  1.0
  H  H164  1  0.66080000  0.57081000  0.05681000  1.0
  H  H165  1  0.97148000  0.17489000  0.95183000  1.0
  H  H166  1  0.03129000  0.08699000  0.00329000  1.0
  H  H167  1  0.01762000  0.09633000  0.09526000  1.0
  H  H168  1  0.88872000  0.28060000  0.08298000  1.0
  H  H169  1  0.08928000  0.88908000  0.61707000  1.0
  H  H170  1  0.97835000  0.93499000  0.68574000  1.0
  H  H171  1  0.95246000  0.05614000  0.68316000  1.0
  H  H172  1  0.15266000  0.08350000  0.55101000  1.0
  H  H173  1  0.48146000  0.69631000  0.43328000  1.0
  H  H174  1  0.51027000  0.59151000  0.48371000  1.0
  H  H175  1  0.47720000  0.58380000  0.57917000  1.0
  H  H176  1  0.38903000  0.78369000  0.57302000  1.0
  H  H177  1  0.80834000  0.63810000  0.29109000  1.0
  H  H178  1  0.73002000  0.53960000  0.32442000  1.0
  H  H179  1  0.78684000  0.43107000  0.29649000  1.0
  H  H180  1  0.99869000  0.51855000  0.20515000  1.0
  H  H181  1  0.82682000  0.82531000  0.10589000  1.0
  H  H182  1  0.93779000  0.00340000  0.09542000  1.0
  H  H183  1  0.87865000  0.05316000  0.02624000  1.0
  H  H184  1  0.78753000  0.98870000  0.99994000  1.0
  C  C1  1  0.86905000  0.45457000  0.13016000  1.0
  C  C2  1  0.78954000  0.45530000  0.15674000  1.0
  C  C3  1  0.74636000  0.51306000  0.17086000  1.0
  C  C4  1  0.78519000  0.57125000  0.15870000  1.0
  C  C5  1  0.86473000  0.57226000  0.13149000  1.0
  C  C6  1  0.90579000  0.51362000  0.11700000  1.0
  C  C7  1  0.76187000  0.34632000  0.13845000  1.0
  C  C8  1  0.72228000  0.29489000  0.16852000  1.0
  C  C9  1  0.70862000  0.37196000  0.21816000  1.0
  C  C10  1  0.02570000  0.46764000  0.05613000  1.0
  C  C11  1  0.10149000  0.48537000  0.03711000  1.0
  C  C12  1  0.03990000  0.55613000  0.08990000  1.0
  C  C13  1  0.70470000  0.73509000  0.17699000  1.0
  C  C14  1  0.75814000  0.69329000  0.14827000  1.0
  C  C15  1  0.68109000  0.63639000  0.21646000  1.0
  C  C16  1  0.18032000  0.63907000  0.23043000  1.0
  C  C17  1  0.16431000  0.65110000  0.28103000  1.0
  C  C18  1  0.22116000  0.67104000  0.30039000  1.0
  C  C19  1  0.29617000  0.68107000  0.26739000  1.0
  C  C20  1  0.31468000  0.66881000  0.21626000  1.0
  C  C21  1  0.25672000  0.64724000  0.19859000  1.0
  C  C22  1  0.04993000  0.68842000  0.34719000  1.0
  C  C23  1  0.96878000  0.61179000  0.35544000  1.0
  C  C24  1  0.03613000  0.59569000  0.31889000  1.0
  C  C25  1  0.22094000  0.62978000  0.12116000  1.0
  C  C26  1  0.33779000  0.61255000  0.06851000  1.0
  C  C27  1  0.34956000  0.62417000  0.11335000  1.0
  C  C28  1  0.43176000  0.70789000  0.26121000  1.0
  C  C29  1  0.34007000  0.72799000  0.33330000  1.0
  C  C30  1  0.41077000  0.74566000  0.33510000  1.0
  C  C31  1  0.73459000  0.77608000  0.84543000  1.0
  C  C32  1  0.65441000  0.76964000  0.86894000  1.0
  C  C33  1  0.60636000  0.74781000  0.84349000  1.0
  C  C34  1  0.63963000  0.73274000  0.79339000  1.0
  C  C35  1  0.71967000  0.73722000  0.76939000  1.0
  C  C36  1  0.76661000  0.75862000  0.79579000  1.0
  C  C37  1  0.90818000  0.74586000  0.79148000  1.0
  C  C38  1  0.88021000  0.78488000  0.71862000  1.0
  C  C39  1  0.95980000  0.77874000  0.71056000  1.0
  C  C40  1  0.51917000  0.74139000  0.76616000  1.0
  C  C41  1  0.60742000  0.66239000  0.73522000  1.0
  C  C42  1  0.54345000  0.66263000  0.71733000  1.0
  C  C43  1  0.65046000  0.76578000  0.96031000  1.0
  C  C44  1  0.54800000  0.81819000  0.93861000  1.0
  C  C45  1  0.53765000  0.81803000  0.98997000  1.0
  C  C46  1  0.21658000  0.98648000  0.66932000  1.0
  C  C47  1  0.25583000  0.04443000  0.65679000  1.0
  C  C48  1  0.33503000  0.04508000  0.62882000  1.0
  C  C49  1  0.37532000  0.98623000  0.61409000  1.0
  C  C50  1  0.33799000  0.92747000  0.62731000  1.0
  C  C51  1  0.25872000  0.92858000  0.65442000  1.0
  C  C52  1  0.17276000  0.84641000  0.71377000  1.0
  C  C53  1  0.23221000  0.81989000  0.63489000  1.0
  C  C54  1  0.19006000  0.76909000  0.66383000  1.0
  C  C55  1  0.15338000  0.10967000  0.71576000  1.0
  C  C56  1  0.17478000  0.20835000  0.67581000  1.0
  C  C57  1  0.22749000  0.16663000  0.64633000  1.0
  C  C58  1  0.50976000  0.02680000  0.58817000  1.0
  C  C59  1  0.49508000  0.93926000  0.55334000  1.0
  C  C60  1  0.57156000  0.95561000  0.53589000  1.0
  C  C61  1  0.62770000  0.13442000  0.78958000  1.0
  C  C62  1  0.68640000  0.15293000  0.80808000  1.0
  C  C63  1  0.76200000  0.15900000  0.77494000  1.0
  C  C64  1  0.77898000  0.14469000  0.72443000  1.0
  C  C65  1  0.71961000  0.12372000  0.70772000  1.0
  C  C66  1  0.64277000  0.11930000  0.73977000  1.0
  C  C67  1  0.49269000  0.09001000  0.82575000  1.0
  C  C68  1  0.42739000  0.10975000  0.86246000  1.0
  C  C69  1  0.51791000  0.17653000  0.85705000  1.0
  C  C70  1  0.68390000  0.09917000  0.63167000  1.0
  C  C71  1  0.81233000  0.09845000  0.62335000  1.0
  C  C72  1  0.80127000  0.08336000  0.57934000  1.0
  C  C73  1  0.89992000  0.18180000  0.76665000  1.0
  C  C74  1  0.88452000  0.21670000  0.84087000  1.0
  C  C75  1  0.81202000  0.20187000  0.84015000  1.0
  C  C76  1  0.57815000  0.88187000  0.27282000  1.0
  C  C77  1  0.62508000  0.94156000  0.25303000  1.0
  C  C78  1  0.70203000  0.93624000  0.22044000  1.0
  C  C79  1  0.74573000  0.99150000  0.20245000  1.0
  C  C80  1  0.71342000  0.05236000  0.21739000  1.0
  C  C81  1  0.63712000  0.05825000  0.25036000  1.0
  C  C82  1  0.60299000  0.12285000  0.26866000  1.0
  C  C83  1  0.59307000  0.00286000  0.26757000  1.0
  C  C84  1  0.60076000  0.63861000  0.35080000  1.0
  C  C85  1  0.63531000  0.60546000  0.39202000  1.0
  C  C86  1  0.62269000  0.53984000  0.41147000  1.0
  C  C87  1  0.66082000  0.50834000  0.44671000  1.0
  C  C88  1  0.71423000  0.54136000  0.46098000  1.0
  C  C89  1  0.72748000  0.60703000  0.44130000  1.0
  C  C90  1  0.68622000  0.63906000  0.40801000  1.0
  C  C91  1  0.79132000  0.64110000  0.45019000  1.0
  C  C92  1  0.32551000  0.56216000  0.94631000  1.0
  C  C93  1  0.37553000  0.52400000  0.90435000  1.0
  C  C94  1  0.42264000  0.55767000  0.85972000  1.0
  C  C95  1  0.47056000  0.52321000  0.82061000  1.0
  C  C96  1  0.47499000  0.45482000  0.82698000  1.0
  C  C97  1  0.42828000  0.42051000  0.87155000  1.0
  C  C98  1  0.37691000  0.45555000  0.90930000  1.0
  C  C99  1  0.43592000  0.34700000  0.87938000  1.0
  C  C100  1  0.11361000  0.71416000  0.01479000  1.0
  C  C101  1  0.07563000  0.76731000  0.98547000  1.0
  C  C102  1  0.03438000  0.82191000  0.00806000  1.0
  C  C103  1  0.00075000  0.87082000  0.97912000  1.0
  C  C104  1  0.00780000  0.86577000  0.92781000  1.0
  C  C105  1  0.04736000  0.81058000  0.90535000  1.0
  C  C106  1  0.08073000  0.76194000  0.93450000  1.0
  C  C107  1  0.05490000  0.80264000  0.85075000  1.0
  C  C108  1  0.80490000  0.04650000  0.45850000  1.0
  C  C109  1  0.87241000  0.01679000  0.41958000  1.0
  C  C110  1  0.92272000  0.05838000  0.38207000  1.0
  C  C111  1  0.98471000  0.03250000  0.34444000  1.0
  C  C112  1  0.99915000  0.96475000  0.34570000  1.0
  C  C113  1  0.95094000  0.92265000  0.38426000  1.0
  C  C114  1  0.88631000  0.94898000  0.42024000  1.0
  C  C115  1  0.96916000  0.85020000  0.38657000  1.0
  C  C116  1  0.58971000  0.18987000  0.52769000  1.0
  C  C117  1  0.56839000  0.25337000  0.49989000  1.0
  C  C118  1  0.53350000  0.30788000  0.52514000  1.0
  C  C119  1  0.51747000  0.36646000  0.49669000  1.0
  C  C120  1  0.53557000  0.37110000  0.44334000  1.0
  C  C121  1  0.56949000  0.31650000  0.41804000  1.0
  C  C122  1  0.58522000  0.25839000  0.44670000  1.0
  C  C123  1  0.58764000  0.31784000  0.36123000  1.0
  C  C124  1  0.04495000  0.35512000  0.77333000  1.0
  C  C125  1  0.09124000  0.41514000  0.75354000  1.0
  C  C126  1  0.16745000  0.40971000  0.72003000  1.0
  C  C127  1  0.21134000  0.46473000  0.70174000  1.0
  C  C128  1  0.17988000  0.52544000  0.71720000  1.0
  C  C129  1  0.10423000  0.53160000  0.75099000  1.0
  C  C130  1  0.05996000  0.47639000  0.76867000  1.0
  C  C131  1  0.07240000  0.59677000  0.76911000  1.0
  C  C132  1  0.25788000  0.13308000  0.96121000  1.0
  C  C133  1  0.19898000  0.09661000  0.94846000  1.0
  C  C134  1  0.16251000  0.12477000  0.91148000  1.0
  C  C135  1  0.11350000  0.08895000  0.89554000  1.0
  C  C136  1  0.09936000  0.02442000  0.91793000  1.0
  C  C137  1  0.13361000  0.99662000  0.95619000  1.0
  C  C138  1  0.18383000  0.03229000  0.97116000  1.0
  C  C139  1  0.08110000  0.11898000  0.85254000  1.0
  C  C140  1  0.13095000  0.54542000  0.86984000  1.0
  C  C141  1  0.21046000  0.54470000  0.84326000  1.0
  C  C142  1  0.25364000  0.48694000  0.82914000  1.0
  C  C143  1  0.21481000  0.42874000  0.84130000  1.0
  C  C144  1  0.13528000  0.42774000  0.86851000  1.0
  C  C145  1  0.09422000  0.48637000  0.88300000  1.0
  C  C146  1  0.23813000  0.65367000  0.86155000  1.0
  C  C147  1  0.27772000  0.70510000  0.83148000  1.0
  C  C148  1  0.29138000  0.62803000  0.78184000  1.0
  C  C149  1  0.97430000  0.53235000  0.94388000  1.0
  C  C150  1  0.89851000  0.51463000  0.96289000  1.0
  C  C151  1  0.96010000  0.44387000  0.91010000  1.0
  C  C152  1  0.29530000  0.26490000  0.82301000  1.0
  C  C153  1  0.24186000  0.30671000  0.85174000  1.0
  C  C154  1  0.31891000  0.36360000  0.78354000  1.0
  C  C155  1  0.81968000  0.36092000  0.76957000  1.0
  C  C156  1  0.83569000  0.34889000  0.71897000  1.0
  C  C157  1  0.77884000  0.32895000  0.69962000  1.0
  C  C158  1  0.70383000  0.31892000  0.73261000  1.0
  C  C159  1  0.68532000  0.33118000  0.78375000  1.0
  C  C160  1  0.74328000  0.35276000  0.80142000  1.0
  C  C161  1  0.95007000  0.31157000  0.65281000  1.0
  C  C162  1  0.03122000  0.38820000  0.64457000  1.0
  C  C163  1  0.96387000  0.40430000  0.68112000  1.0
  C  C164  1  0.77907000  0.37021000  0.87884000  1.0
  C  C165  1  0.66221000  0.38744000  0.93149000  1.0
  C  C166  1  0.65044000  0.37582000  0.88665000  1.0
  C  C167  1  0.56824000  0.29210000  0.73880000  1.0
  C  C168  1  0.65993000  0.27200000  0.66666667  1.0
  C  C169  1  0.58923000  0.25434000  0.66491000  1.0
  C  C170  1  0.26541000  0.22391000  0.15457000  1.0
  C  C171  1  0.34559000  0.23035000  0.13107000  1.0
  C  C172  1  0.39364000  0.25218000  0.15651000  1.0
  C  C173  1  0.36037000  0.26725000  0.20661000  1.0
  C  C174  1  0.28034000  0.26278000  0.23061000  1.0
  C  C175  1  0.23340000  0.24137000  0.20421000  1.0
  C  C176  1  0.09183000  0.25414000  0.20852000  1.0
  C  C177  1  0.11979000  0.21511000  0.28138000  1.0
  C  C178  1  0.04020000  0.22126000  0.28945000  1.0
  C  C179  1  0.48083000  0.25861000  0.23384000  1.0
  C  C180  1  0.39258000  0.33761000  0.26478000  1.0
  C  C181  1  0.45655000  0.33736000  0.28267000  1.0
  C  C182  1  0.34954000  0.23422000  0.03969000  1.0
  C  C183  1  0.45200000  0.18181000  0.06139000  1.0
  C  C184  1  0.46235000  0.18196000  0.01003000  1.0
  C  C185  1  0.78342000  0.01351000  0.33068000  1.0
  C  C186  1  0.74417000  0.95557000  0.34321000  1.0
  C  C187  1  0.66497000  0.95491000  0.37118000  1.0
  C  C188  1  0.62468000  0.01377000  0.38591000  1.0
  C  C189  1  0.66201000  0.07252000  0.37269000  1.0
  C  C190  1  0.74128000  0.07142000  0.34558000  1.0
  C  C191  1  0.82724000  0.15359000  0.28623000  1.0
  C  C192  1  0.76780000  0.18010000  0.36512000  1.0
  C  C193  1  0.80995000  0.23090000  0.33617000  1.0
  C  C194  1  0.84662000  0.89032000  0.28424000  1.0
  C  C195  1  0.82522000  0.79164000  0.32419000  1.0
  C  C196  1  0.77251000  0.83336000  0.35367000  1.0
  C  C197  1  0.49024000  0.97320000  0.41183000  1.0
  C  C198  1  0.50492000  0.06074000  0.44666000  1.0
  C  C199  1  0.42844000  0.04438000  0.46411000  1.0
  C  C200  1  0.37230000  0.86557000  0.21043000  1.0
  C  C201  1  0.31360000  0.84707000  0.19192000  1.0
  C  C202  1  0.23800000  0.84100000  0.22506000  1.0
  C  C203  1  0.22103000  0.85530000  0.27557000  1.0
  C  C204  1  0.28039000  0.87627000  0.29228000  1.0
  C  C205  1  0.35723000  0.88069000  0.26024000  1.0
  C  C206  1  0.50731000  0.90998000  0.17426000  1.0
  C  C207  1  0.57261000  0.89024000  0.13754000  1.0
  C  C208  1  0.48210000  0.82346000  0.14295000  1.0
  C  C209  1  0.31610000  0.90083000  0.36833000  1.0
  C  C210  1  0.18767000  0.90154000  0.37665000  1.0
  C  C211  1  0.19873000  0.91664000  0.42067000  1.0
  C  C212  1  0.10008000  0.81819000  0.23335000  1.0
  C  C213  1  0.11548000  0.78330000  0.15913000  1.0
  C  C214  1  0.18798000  0.79812000  0.15985000  1.0
  C  C215  1  0.42185000  0.11813000  0.72718000  1.0
  C  C216  1  0.37492000  0.05843000  0.74697000  1.0
  C  C217  1  0.29797000  0.06376000  0.77956000  1.0
  C  C218  1  0.25427000  0.00849000  0.79755000  1.0
  C  C219  1  0.28658000  0.94763000  0.78262000  1.0
  C  C220  1  0.36288000  0.94174000  0.74964000  1.0
  C  C221  1  0.39701000  0.87715000  0.73134000  1.0
  C  C222  1  0.40693000  0.99714000  0.73243000  1.0
  C  C223  1  0.39924000  0.36138000  0.64921000  1.0
  C  C224  1  0.36470000  0.39453000  0.60799000  1.0
  C  C225  1  0.37731000  0.46015000  0.58853000  1.0
  C  C226  1  0.33918000  0.49165000  0.55329000  1.0
  C  C227  1  0.28577000  0.45863000  0.53903000  1.0
  C  C228  1  0.27252000  0.39296000  0.55870000  1.0
  C  C229  1  0.31378000  0.36093000  0.59200000  1.0
  C  C230  1  0.20868000  0.35890000  0.54982000  1.0
  C  C231  1  0.67449000  0.43783000  0.05369000  1.0
  C  C232  1  0.62447000  0.47599000  0.09565000  1.0
  C  C233  1  0.57736000  0.44232000  0.14029000  1.0
  C  C234  1  0.52944000  0.47678000  0.17939000  1.0
  C  C235  1  0.52502000  0.54517000  0.17302000  1.0
  C  C236  1  0.57172000  0.57949000  0.12846000  1.0
  C  C237  1  0.62310000  0.54444000  0.09071000  1.0
  C  C238  1  0.56408000  0.65299000  0.12062000  1.0
  C  C239  1  0.88640000  0.28584000  0.98521000  1.0
  C  C240  1  0.92437000  0.23269000  0.01453000  1.0
  C  C241  1  0.96562000  0.17809000  0.99194000  1.0
  C  C242  1  0.99925000  0.12918000  0.02088000  1.0
  C  C243  1  0.99220000  0.13424000  0.07219000  1.0
  C  C244  1  0.95264000  0.18943000  0.09465000  1.0
  C  C245  1  0.91927000  0.23807000  0.06550000  1.0
  C  C246  1  0.94510000  0.19738000  0.14925000  1.0
  C  C247  1  0.19510000  0.95350000  0.54150000  1.0
  C  C248  1  0.12760000  0.98321000  0.58042000  1.0
  C  C249  1  0.07728000  0.94161000  0.61794000  1.0
  C  C250  1  0.01529000  0.96750000  0.65557000  1.0
  C  C251  1  0.00085000  0.03525000  0.65430000  1.0
  C  C252  1  0.04907000  0.07735000  0.61575000  1.0
  C  C253  1  0.11369000  0.05101000  0.57976000  1.0
  C  C254  1  0.03084000  0.14979000  0.61343000  1.0
  C  C255  1  0.41030000  0.81012000  0.47231000  1.0
  C  C256  1  0.43161000  0.74663000  0.50012000  1.0
  C  C257  1  0.46650000  0.69211000  0.47486000  1.0
  C  C258  1  0.48253000  0.63353000  0.50332000  1.0
  C  C259  1  0.46444000  0.62889000  0.55666000  1.0
  C  C260  1  0.43052000  0.68350000  0.58197000  1.0
  C  C261  1  0.41479000  0.74161000  0.55330000  1.0
  C  C262  1  0.41236000  0.68215000  0.63878000  1.0
  C  C263  1  0.95505000  0.64488000  0.22667000  1.0
  C  C264  1  0.90876000  0.58486000  0.24647000  1.0
  C  C265  1  0.83255000  0.59028000  0.27998000  1.0
  C  C266  1  0.78866000  0.53527000  0.29826000  1.0
  C  C267  1  0.82012000  0.47455000  0.28281000  1.0
  C  C268  1  0.89577000  0.46839000  0.24901000  1.0
  C  C269  1  0.94004000  0.52361000  0.23133000  1.0
  C  C270  1  0.92761000  0.40323000  0.23089000  1.0
  C  C271  1  0.74212000  0.86692000  0.03880000  1.0
  C  C272  1  0.80102000  0.90339000  0.05154000  1.0
  C  C273  1  0.83749000  0.87522000  0.08853000  1.0
  C  C274  1  0.88650000  0.91104000  0.10446000  1.0
  C  C275  1  0.90064000  0.97557000  0.08208000  1.0
  C  C276  1  0.86639000  0.00338000  0.04381000  1.0
  C  C277  1  0.81617000  0.96771000  0.02884000  1.0
  C  C278  1  0.91890000  0.88102000  0.14746000  1.0
  N  N1  1  0.65711000  0.69916000  0.21919000  1.0
  N  N2  1  0.74294000  0.63061000  0.17354000  1.0
  N  N3  1  0.75280000  0.39492000  0.17031000  1.0
  N  N4  1  0.68978000  0.31145000  0.21786000  1.0
  N  N5  1  0.98666000  0.51295000  0.08947000  1.0
  N  N6  1  0.10960000  0.54038000  0.05844000  1.0
  N  N7  1  0.25783000  0.61615000  0.07405000  1.0
  N  N8  1  0.27483000  0.63484000  0.14687000  1.0
  N  N9  1  0.97822000  0.66983000  0.37248000  1.0
  N  N10  1  0.08719000  0.64443000  0.31437000  1.0
  N  N11  1  0.46684000  0.73289000  0.28993000  1.0
  N  N12  1  0.35322000  0.70407000  0.28621000  1.0
  N  N13  1  0.97589000  0.75421000  0.75601000  1.0
  N  N14  1  0.84755000  0.76429000  0.77051000  1.0
  N  N15  1  0.59112000  0.71238000  0.76674000  1.0
  N  N16  1  0.48969000  0.71219000  0.73680000  1.0
  N  N17  1  0.60136000  0.78489000  0.00289000  1.0
  N  N18  1  0.62036000  0.78506000  0.91989000  1.0
  N  N19  1  0.15354000  0.78622000  0.71265000  1.0
  N  N20  1  0.22102000  0.86859000  0.66698000  1.0
  N  N21  1  0.21368000  0.10393000  0.67196000  1.0
  N  N22  1  0.12886000  0.17228000  0.71871000  1.0
  N  N23  1  0.45609000  0.98486000  0.58649000  1.0
  N  N24  1  0.57991000  0.00997000  0.55784000  1.0
  N  N25  1  0.72146000  0.08400000  0.58505000  1.0
  N  N26  1  0.73737000  0.10818000  0.65684000  1.0
  N  N27  1  0.82160000  0.17969000  0.79282000  1.0
  N  N28  1  0.93827000  0.20397000  0.79482000  1.0
  N  N29  1  0.55011000  0.13255000  0.82289000  1.0
  N  N30  1  0.44396000  0.16388000  0.88135000  1.0
  N  N31  1  0.34289000  0.30084000  0.78081000  1.0
  N  N32  1  0.25706000  0.36938000  0.82647000  1.0
  N  N33  1  0.24720000  0.60507000  0.82969000  1.0
  N  N34  1  0.31022000  0.68854000  0.78214000  1.0
  N  N35  1  0.01334000  0.48704000  0.91053000  1.0
  N  N36  1  0.89040000  0.45962000  0.94156000  1.0
  N  N37  1  0.74217000  0.38384000  0.92596000  1.0
  N  N38  1  0.72517000  0.36516000  0.85313000  1.0
  N  N39  1  0.02178000  0.33017000  0.62752000  1.0
  N  N40  1  0.91281000  0.35556000  0.68563000  1.0
  N  N41  1  0.53316000  0.26711000  0.71008000  1.0
  N  N42  1  0.64678000  0.29593000  0.71379000  1.0
  N  N43  1  0.02411000  0.24578000  0.24399000  1.0
  N  N44  1  0.15245000  0.23571000  0.22949000  1.0
  N  N45  1  0.40888000  0.28762000  0.23326000  1.0
  N  N46  1  0.51031000  0.28781000  0.26320000  1.0
  N  N47  1  0.39864000  0.21510000  0.99711000  1.0
  N  N48  1  0.37964000  0.21493000  0.08012000  1.0
  N  N49  1  0.84646000  0.21378000  0.28735000  1.0
  N  N50  1  0.77898000  0.13141000  0.33302000  1.0
  N  N51  1  0.78632000  0.89606000  0.32804000  1.0
  N  N52  1  0.87114000  0.82772000  0.28129000  1.0
  N  N53  1  0.54391000  0.01513000  0.41351000  1.0
  N  N54  1  0.42009000  0.99002000  0.44216000  1.0
  N  N55  1  0.27854000  0.91600000  0.41495000  1.0
  N  N56  1  0.26263000  0.89181000  0.34316000  1.0
  N  N57  1  0.17841000  0.82030000  0.20718000  1.0
  N  N58  1  0.06173000  0.79603000  0.20518000  1.0
  N  N59  1  0.44989000  0.86744000  0.17711000  1.0
  N  N60  1  0.55604000  0.83612000  0.11865000  1.0
  O  O1  1  0.62475000  0.14558000  0.49753000  1.0
  O  O2  1  0.57525000  0.18146000  0.57542000  1.0
  O  O3  1  0.57992000  0.36970000  0.33315000  1.0
  O  O4  1  0.61039000  0.26040000  0.34526000  1.0
  O  O5  1  0.74737000  0.00967000  0.48286000  1.0
  O  O6  1  0.80685000  0.10464000  0.46606000  1.0
  O  O7  1  0.91728000  0.81502000  0.42107000  1.0
  O  O8  1  0.03105000  0.82788000  0.35689000  1.0
  O  O9  1  0.08689000  0.18220000  0.84160000  1.0
  O  O10  1  0.05351000  0.08440000  0.82885000  1.0
  O  O11  1  0.29553000  0.10695000  0.99100000  1.0
  O  O12  1  0.26828000  0.19228000  0.93615000  1.0
  O  O13  1  0.97797000  0.35807000  0.80490000  1.0
  O  O14  1  0.08134000  0.30270000  0.75449000  1.0
  O  O15  1  0.00609000  0.60364000  0.79998000  1.0
  O  O16  1  0.12138000  0.64315000  0.75002000  1.0
  O  O17  1  0.26246000  0.53487000  0.97561000  1.0
  O  O18  1  0.34534000  0.61664000  0.95130000  1.0
  O  O19  1  0.37514000  0.31854000  0.90950000  1.0
  O  O20  1  0.50017000  0.31824000  0.85736000  1.0
  O  O21  1  0.15493000  0.66949000  0.98697000  1.0
  O  O22  1  0.10525000  0.71358000  0.06165000  1.0
  O  O23  1  0.07159000  0.74189000  0.84034000  1.0
  O  O24  1  0.04590000  0.85041000  0.81936000  1.0
  O  O25  1  0.61744000  0.82796000  0.25938000  1.0
  O  O26  1  0.50787000  0.88673000  0.29955000  1.0
  O  O27  1  0.64783000  0.17181000  0.24767000  1.0
  O  O28  1  0.53786000  0.12694000  0.30117000  1.0
  O  O29  1  0.79381000  0.70395000  0.43225000  1.0
  O  O30  1  0.84180000  0.61146000  0.46949000  1.0
  O  O31  1  0.60635000  0.70188000  0.34264000  1.0
  O  O32  1  0.57233000  0.60626000  0.32611000  1.0
  O  O33  1  0.37525000  0.85442000  0.50247000  1.0
  O  O34  1  0.42475000  0.81853000  0.42458000  1.0
  O  O35  1  0.42008000  0.63029000  0.66685000  1.0
  O  O36  1  0.38961000  0.73959000  0.65475000  1.0
  O  O37  1  0.25263000  0.99032000  0.51714000  1.0
  O  O38  1  0.19315000  0.89535000  0.53395000  1.0
  O  O39  1  0.08272000  0.18497000  0.57893000  1.0
  O  O40  1  0.96895000  0.17211000  0.64312000  1.0
  O  O41  1  0.91311000  0.81780000  0.15840000  1.0
  O  O42  1  0.94649000  0.91559000  0.17115000  1.0
  O  O43  1  0.70448000  0.89304000  0.00900000  1.0
  O  O44  1  0.73172000  0.80771000  0.06386000  1.0
  O  O45  1  0.02203000  0.64193000  0.19511000  1.0
  O  O46  1  0.91866000  0.69729000  0.24551000  1.0
  O  O47  1  0.99391000  0.39636000  0.20002000  1.0
  O  O48  1  0.87862000  0.35684000  0.24998000  1.0
  O  O49  1  0.73754000  0.46513000  0.02439000  1.0
  O  O50  1  0.65466000  0.38335000  0.04870000  1.0
  O  O51  1  0.62486000  0.68145000  0.09050000  1.0
  O  O52  1  0.49983000  0.68175000  0.14265000  1.0
  O  O53  1  0.84508000  0.33051000  0.01303000  1.0
  O  O54  1  0.89476000  0.28641000  0.93835000  1.0
  O  O55  1  0.92842000  0.25812000  0.15966000  1.0
  O  O56  1  0.95410000  0.14961000  0.18064000  1.0
  O  O57  1  0.38256000  0.17203000  0.74062000  1.0
  O  O58  1  0.49213000  0.11326000  0.70045000  1.0
  O  O59  1  0.35217000  0.82818000  0.75233000  1.0
  O  O60  1  0.46214000  0.87305000  0.69884000  1.0
  O  O61  1  0.20619000  0.29605000  0.56775000  1.0
  O  O62  1  0.15820000  0.38854000  0.53052000  1.0
  O  O63  1  0.39365000  0.29811000  0.65736000  1.0
  O  O64  1  0.42768000  0.39374000  0.67389000  1.0
