# generated using pymatgen
data_H13C18(N3O)2
_symmetry_space_group_name_H-M   'P 1'
_cell_length_a   19.46230000
_cell_length_b   19.46230000
_cell_length_c   77.84900000
_cell_angle_alpha   90.00000000
_cell_angle_beta   90.00000000
_cell_angle_gamma   90.00000000
_symmetry_Int_Tables_number   1
_chemical_formula_structural   H13C18(N3O)2
_chemical_formula_sum   'H208 C288 N96 O32'
_cell_volume   29487.73151131
_cell_formula_units_Z   16
loop_
 _symmetry_equiv_pos_site_id
 _symmetry_equiv_pos_as_xyz
  1  'x, y, z'
loop_
 _atom_site_type_symbol
 _atom_site_label
 _atom_site_symmetry_multiplicity
 _atom_site_fract_x
 _atom_site_fract_y
 _atom_site_fract_z
 _atom_site_occupancy
  C  1  1  0.00175200  0.99084800  0.11647500  1
  C  2  1  0.01112300  0.01797400  0.09964500  1
  C  3  1  0.03496500  0.97816800  0.08572600  1
  C  4  1  0.04727100  0.90767800  0.08839900  1
  C  5  1  0.03436300  0.87539000  0.10435800  1
  C  6  1  0.01429400  0.91888400  0.11812400  1
  C  10  1  0.97990400  0.03305300  0.13067700  1
  C  11  1  0.98248400  0.10638100  0.13019400  1
  C  12  1  0.95867400  0.14965300  0.14361500  1
  C  13  1  0.93070600  0.11686100  0.15824400  1
  C  14  1  0.93022400  0.04491300  0.16002600  1
  C  15  1  0.95444600  0.00441700  0.14627700  1
  C  19  1  0.91136200  0.01516700  0.17605200  1
  C  20  1  0.96177200  0.22282000  0.14294000  1
  C  21  1  0.04146900  0.80263400  0.10597300  1
  C  22  1  0.04382800  0.00669500  0.06904000  1
  C  27  1  0.01089700  0.01097900  0.61912500  1
  C  28  1  0.98472400  0.02115500  0.60221600  1
  C  29  1  0.02443100  0.04974700  0.58885800  1
  C  30  1  0.09359700  0.06637500  0.59206800  1
  C  31  1  0.12516500  0.05085200  0.60794000  1
  C  32  1  0.08234500  0.02519100  0.62121200  1
  C  36  1  0.96821600  0.98793000  0.63309600  1
  C  37  1  0.89502200  0.99157800  0.63243800  1
  C  38  1  0.85080400  0.97139600  0.64605700  1
  C  39  1  0.88295300  0.94469200  0.66094100  1
  C  40  1  0.95483600  0.94048400  0.66260400  1
  C  41  1  0.99607000  0.96210600  0.64872800  1
  C  45  1  0.98401500  0.91988000  0.67856100  1
  C  46  1  0.77759600  0.97594800  0.64535200  1
  C  47  1  0.19744300  0.05892900  0.60991100  1
  C  48  1  0.99886400  0.05576900  0.57185600  1
  C  53  1  0.98636600  0.98399400  0.88083700  1
  C  54  1  0.97694000  0.01177100  0.89759900  1
  C  55  1  0.95186000  0.97283000  0.91153200  1
  C  56  1  0.93740700  0.90273000  0.90888600  1
  C  57  1  0.95205000  0.86977400  0.89312000  1
  C  58  1  0.97473600  0.91187000  0.87936100  1
  C  62  1  0.00634000  0.02609100  0.86647200  1
  C  63  1  0.99979400  0.09913000  0.86672000  1
  C  64  1  0.01842000  0.14303500  0.85291100  1
  C  65  1  0.04564100  0.11050000  0.83814200  1
  C  66  1  0.05248100  0.03863800  0.83684200  1
  C  67  1  0.03264300  0.99775000  0.85095100  1
  C  71  1  0.07657500  0.00911900  0.82123600  1
  C  72  1  0.01280800  0.21623700  0.85343200  1
  C  73  1  0.94504200  0.79717700  0.89162500  1
  C  74  1  0.94423300  0.00192200  0.92819400  1
  C  79  1  0.96373400  0.00249700  0.38086400  1
  C  80  1  0.98619400  0.99501000  0.39818400  1
  C  81  1  0.94220000  0.00702500  0.41230500  1
  C  82  1  0.87520400  0.03123000  0.40907800  1
  C  83  1  0.84880500  0.03725200  0.39226100  1
  C  84  1  0.89401000  0.02253600  0.37849900  1
  C  88  1  0.00791100  0.98866600  0.36653400  1
  C  89  1  0.08076000  0.99390600  0.36780400  1
  C  90  1  0.12608500  0.98179600  0.35382000  1
  C  91  1  0.09557500  0.95990600  0.33823300  1
  C  92  1  0.02406200  0.95306200  0.33620700  1
  C  93  1  0.98123000  0.96902800  0.35023600  1
  C  97  1  0.99714800  0.93087200  0.32016300  1
  C  98  1  0.19898300  0.98861800  0.35476200  1
  C  99  1  0.77814600  0.05273100  0.38976700  1
  C  100  1  0.96012800  0.98834600  0.42940000  1
  C  105  1  0.94791000  0.96698200  0.29324700  1
  C  106  1  0.95944400  0.02531700  0.28289400  1
  C  108  1  0.95051400  0.95934600  0.25703600  1
  C  109  1  0.93503800  0.89893800  0.26656500  1
  C  110  1  0.93361500  0.90442600  0.28471700  1
  C  112  1  0.95749200  0.96167000  0.23895900  1
  C  113  1  0.01912000  0.98159000  0.23047700  1
  C  114  1  0.01774700  0.98548000  0.21232600  1
  C  115  1  0.95771800  0.97113400  0.20275300  1
  C  116  1  0.89908600  0.95016000  0.21203700  1
  C  131  1  0.04261500  0.95287800  0.79509400  1
  C  132  1  0.98368200  0.96245600  0.78483000  1
  C  134  1  0.04893700  0.95240600  0.75891400  1
  C  135  1  0.10990900  0.93855800  0.76836900  1
  C  136  1  0.10512200  0.93872800  0.78653700  1
  C  138  1  0.04622700  0.95981400  0.74087300  1
  C  139  1  0.02806500  0.02241100  0.73259100  1
  C  140  1  0.02343300  0.02185700  0.71445500  1
  C  141  1  0.03521700  0.96165400  0.70474800  1
  C  142  1  0.05442400  0.90192300  0.71383200  1
  C  157  1  0.00015800  0.04607800  0.95337800  1
  C  158  1  0.94755400  0.07937400  0.96263300  1
  C  160  1  0.00044500  0.05200300  0.98954500  1
  C  161  1  0.05661100  0.01975700  0.98103400  1
  C  162  1  0.05559900  0.01859100  0.96284800  1
  C  164  1  0.99199400  0.05268600  0.00759100  1
  C  165  1  0.93596400  0.02063100  0.01620900  1
  C  166  1  0.93608200  0.02191500  0.03439100  1
  C  167  1  0.99061800  0.05153500  0.04377700  1
  C  168  1  0.04342100  0.08400700  0.03441300  1
  C  183  1  0.02866000  0.00447700  0.45464900  1
  C  184  1  0.01696100  0.94374800  0.46412000  1
  C  186  1  0.03115900  0.00226600  0.49094000  1
  C  187  1  0.04713700  0.06465300  0.48224600  1
  C  188  1  0.04562600  0.06419600  0.46404700  1
  C  190  1  0.02321900  0.99645000  0.50898300  1
  C  191  1  0.05622600  0.94602800  0.51934000  1
  C  192  1  0.04177400  0.94634200  0.53717600  1
  C  193  1  0.99743600  0.99533400  0.54472400  1
  C  194  1  0.96442400  0.04187600  0.53356000  1
  C  209  1  0.00797900  0.33023400  0.13092500  1
  C  210  1  0.95435200  0.37596300  0.13517800  1
  C  212  1  0.02367300  0.47672600  0.12995700  1
  C  213  1  0.07971800  0.43351600  0.12492700  1
  C  214  1  0.06936400  0.36123600  0.12498400  1
  C  216  1  0.02129300  0.54977300  0.12926300  1
  C  217  1  0.97456000  0.59321400  0.13839500  1
  C  218  1  0.97403600  0.66436200  0.13438700  1
  C  219  1  0.01828100  0.69467200  0.12205700  1
  C  220  1  0.06496100  0.64897200  0.11413700  1
  C  235  1  0.67026400  0.00618700  0.62997600  1
  C  236  1  0.62439600  0.95845800  0.63741000  1
  C  238  1  0.52549800  0.00525000  0.62280200  1
  C  239  1  0.56903400  0.05356600  0.61423000  1
  C  240  1  0.64024800  0.05298000  0.61820800  1
  C  242  1  0.45251500  0.00238000  0.62211100  1
  C  243  1  0.41035800  0.94511000  0.62681600  1
  C  244  1  0.33811600  0.95480000  0.62737100  1
  C  245  1  0.30601700  0.01645100  0.62200300  1
  C  246  1  0.35065200  0.07096100  0.61773800  1
  C  261  1  0.98597800  0.32396400  0.86913800  1
  C  262  1  0.03199900  0.36983300  0.86105400  1
  C  264  1  0.99080800  0.46832000  0.87687700  1
  C  265  1  0.94412200  0.42482600  0.88600700  1
  C  266  1  0.94270400  0.35387800  0.88174100  1
  C  268  1  0.99516000  0.54120600  0.87789800  1
  C  269  1  0.05189000  0.58278800  0.87250800  1
  C  270  1  0.04343800  0.65524100  0.87247700  1
  C  271  1  0.98387200  0.68801200  0.87895400  1
  C  272  1  0.92985400  0.64392600  0.88392300  1
  C  287  1  0.30579600  0.01099600  0.37084700  1
  C  288  1  0.35107800  0.96758100  0.36173500  1
  C  290  1  0.45141300  0.00938300  0.37659800  1
  C  291  1  0.40854900  0.05246700  0.38695700  1
  C  292  1  0.33670800  0.05224000  0.38369900  1
  C  294  1  0.52445400  0.00738500  0.37637600  1
  C  295  1  0.56617200  0.95364400  0.36934700  1
  C  296  1  0.63810000  0.96462800  0.36825600  1
  C  297  1  0.67049400  0.02294100  0.37547300  1
  C  298  1  0.62639000  0.07429300  0.38193400  1
  C  1249  1  0.36142200  0.35051800  0.11647500  1
  C  1250  1  0.37079300  0.37764400  0.09964500  1
  C  1251  1  0.39463500  0.33783800  0.08572600  1
  C  1252  1  0.40694100  0.26734800  0.08839900  1
  C  1253  1  0.39403300  0.23506000  0.10435800  1
  C  1254  1  0.37396400  0.27855400  0.11812400  1
  C  1258  1  0.33957400  0.39272300  0.13067700  1
  C  1259  1  0.34215400  0.46605100  0.13019400  1
  C  1260  1  0.31834400  0.50932300  0.14361500  1
  C  1261  1  0.29037600  0.47653100  0.15824400  1
  C  1262  1  0.28989400  0.40458300  0.16002600  1
  C  1263  1  0.31411600  0.36408700  0.14627700  1
  C  1267  1  0.27103200  0.37483700  0.17605200  1
  C  1268  1  0.32144200  0.58249000  0.14294000  1
  C  1269  1  0.40113900  0.16230390  0.10597300  1
  C  1270  1  0.40349800  0.36636500  0.06904000  1
  C  1275  1  0.37056700  0.37064900  0.61912500  1
  C  1276  1  0.34439400  0.38082500  0.60221600  1
  C  1277  1  0.38410100  0.40941700  0.58885800  1
  C  1278  1  0.45326700  0.42604500  0.59206800  1
  C  1279  1  0.48483500  0.41052200  0.60794000  1
  C  1280  1  0.44201500  0.38486100  0.62121200  1
  C  1284  1  0.32788600  0.34760000  0.63309600  1
  C  1285  1  0.25469200  0.35124800  0.63243800  1
  C  1286  1  0.21047400  0.33106600  0.64605700  1
  C  1287  1  0.24262300  0.30436200  0.66094100  1
  C  1288  1  0.31450600  0.30015400  0.66260400  1
  C  1289  1  0.35574000  0.32177600  0.64872800  1
  C  1293  1  0.34368500  0.27955000  0.67856100  1
  C  1294  1  0.13726590  0.33561800  0.64535200  1
  C  1295  1  0.55711300  0.41859900  0.60991100  1
  C  1296  1  0.35853400  0.41543900  0.57185600  1
  C  1301  1  0.34603600  0.34366400  0.88083700  1
  C  1302  1  0.33661000  0.37144100  0.89759900  1
  C  1303  1  0.31153000  0.33250000  0.91153200  1
  C  1304  1  0.29707700  0.26240000  0.90888600  1
  C  1305  1  0.31172000  0.22944400  0.89312000  1
  C  1306  1  0.33440600  0.27154000  0.87936100  1
  C  1310  1  0.36601000  0.38576100  0.86647200  1
  C  1311  1  0.35946400  0.45880000  0.86672000  1
  C  1312  1  0.37809000  0.50270500  0.85291100  1
  C  1313  1  0.40531100  0.47017000  0.83814200  1
  C  1314  1  0.41215100  0.39830800  0.83684200  1
  C  1315  1  0.39231300  0.35742000  0.85095100  1
  C  1319  1  0.43624500  0.36878900  0.82123600  1
  C  1320  1  0.37247800  0.57590700  0.85343200  1
  C  1321  1  0.30471200  0.15684690  0.89162500  1
  C  1322  1  0.30390300  0.36159200  0.92819400  1
  C  1327  1  0.32340400  0.36216700  0.38086400  1
  C  1328  1  0.34586400  0.35468000  0.39818400  1
  C  1329  1  0.30187000  0.36669500  0.41230500  1
  C  1330  1  0.23487400  0.39090000  0.40907800  1
  C  1331  1  0.20847500  0.39692200  0.39226100  1
  C  1332  1  0.25368000  0.38220600  0.37849900  1
  C  1336  1  0.36758100  0.34833600  0.36653400  1
  C  1337  1  0.44043000  0.35357600  0.36780400  1
  C  1338  1  0.48575500  0.34146600  0.35382000  1
  C  1339  1  0.45524500  0.31957600  0.33823300  1
  C  1340  1  0.38373200  0.31273200  0.33620700  1
  C  1341  1  0.34090000  0.32869800  0.35023600  1
  C  1345  1  0.35681800  0.29054200  0.32016300  1
  C  1346  1  0.55865300  0.34828800  0.35476200  1
  C  1347  1  0.13781590  0.41240100  0.38976700  1
  C  1348  1  0.31979800  0.34801600  0.42940000  1
  C  1353  1  0.30758000  0.32665200  0.29324700  1
  C  1354  1  0.31911400  0.38498700  0.28289400  1
  C  1356  1  0.31018400  0.31901600  0.25703600  1
  C  1357  1  0.29470800  0.25860800  0.26656500  1
  C  1358  1  0.29328500  0.26409600  0.28471700  1
  C  1360  1  0.31716200  0.32134000  0.23895900  1
  C  1361  1  0.37879000  0.34126000  0.23047700  1
  C  1362  1  0.37741700  0.34515000  0.21232600  1
  C  1363  1  0.31738800  0.33080400  0.20275300  1
  C  1364  1  0.25875600  0.30983000  0.21203700  1
  C  1379  1  0.40228500  0.31254800  0.79509400  1
  C  1380  1  0.34335200  0.32212600  0.78483000  1
  C  1382  1  0.40860700  0.31207600  0.75891400  1
  C  1383  1  0.46957900  0.29822800  0.76836900  1
  C  1384  1  0.46479200  0.29839800  0.78653700  1
  C  1386  1  0.40589700  0.31948400  0.74087300  1
  C  1387  1  0.38773500  0.38208100  0.73259100  1
  C  1388  1  0.38310300  0.38152700  0.71445500  1
  C  1389  1  0.39488700  0.32132400  0.70474800  1
  C  1390  1  0.41409400  0.26159300  0.71383200  1
  C  1405  1  0.35982800  0.40574800  0.95337800  1
  C  1406  1  0.30722400  0.43904400  0.96263300  1
  C  1408  1  0.36011500  0.41167300  0.98954500  1
  C  1409  1  0.41628100  0.37942700  0.98103400  1
  C  1410  1  0.41526900  0.37826100  0.96284800  1
  C  1412  1  0.35166400  0.41235600  0.00759100  1
  C  1413  1  0.29563400  0.38030100  0.01620900  1
  C  1414  1  0.29575200  0.38158500  0.03439100  1
  C  1415  1  0.35028800  0.41120500  0.04377700  1
  C  1416  1  0.40309100  0.44367700  0.03441300  1
  C  1431  1  0.38833000  0.36414700  0.45464900  1
  C  1432  1  0.37663100  0.30341800  0.46412000  1
  C  1434  1  0.39082900  0.36193600  0.49094000  1
  C  1435  1  0.40680700  0.42432300  0.48224600  1
  C  1436  1  0.40529600  0.42386600  0.46404700  1
  C  1438  1  0.38288900  0.35612000  0.50898300  1
  C  1439  1  0.41589600  0.30569800  0.51934000  1
  C  1440  1  0.40144400  0.30601200  0.53717600  1
  C  1441  1  0.35710600  0.35500400  0.54472400  1
  C  1442  1  0.32409400  0.40154600  0.53356000  1
  C  1457  1  0.36764900  0.68990400  0.13092500  1
  C  1458  1  0.31402200  0.73563300  0.13517800  1
  C  1460  1  0.38334300  0.83639600  0.12995700  1
  C  1461  1  0.43938800  0.79318600  0.12492700  1
  C  1462  1  0.42903400  0.72090600  0.12498400  1
  C  1464  1  0.38096300  0.90944300  0.12926300  1
  C  1465  1  0.33423000  0.95288400  0.13839500  1
  C  1466  1  0.33370600  0.02403190  0.13438700  1
  C  1467  1  0.37795100  0.05434190  0.12205700  1
  C  1468  1  0.42463100  0.00864186  0.11413700  1
  C  1483  1  0.02993390  0.36585700  0.62997600  1
  C  1484  1  0.98406600  0.31812800  0.63741000  1
  C  1486  1  0.88516800  0.36492000  0.62280200  1
  C  1487  1  0.92870400  0.41323600  0.61423000  1
  C  1488  1  0.99991800  0.41265000  0.61820800  1
  C  1490  1  0.81218500  0.36205000  0.62211100  1
  C  1491  1  0.77002800  0.30478000  0.62681600  1
  C  1492  1  0.69778600  0.31447000  0.62737100  1
  C  1493  1  0.66568700  0.37612100  0.62200300  1
  C  1494  1  0.71032200  0.43063100  0.61773800  1
  C  1509  1  0.34564800  0.68363400  0.86913800  1
  C  1510  1  0.39166900  0.72950300  0.86105400  1
  C  1512  1  0.35047800  0.82799000  0.87687700  1
  C  1513  1  0.30379200  0.78449600  0.88600700  1
  C  1514  1  0.30237400  0.71354800  0.88174100  1
  C  1516  1  0.35483000  0.90087600  0.87789800  1
  C  1517  1  0.41156000  0.94245800  0.87250800  1
  C  1518  1  0.40310800  0.01491086  0.87247700  1
  C  1519  1  0.34354200  0.04768190  0.87895400  1
  C  1520  1  0.28952400  0.00359586  0.88392300  1
  C  1535  1  0.66546600  0.37066600  0.37084700  1
  C  1536  1  0.71074800  0.32725100  0.36173500  1
  C  1538  1  0.81108300  0.36905300  0.37659800  1
  C  1539  1  0.76821900  0.41213700  0.38695700  1
  C  1540  1  0.69637800  0.41191000  0.38369900  1
  C  1542  1  0.88412400  0.36705500  0.37637600  1
  C  1543  1  0.92584200  0.31331400  0.36934700  1
  C  1544  1  0.99777000  0.32429800  0.36825600  1
  C  1545  1  0.03016390  0.38261100  0.37547300  1
  C  1546  1  0.98606000  0.43396300  0.38193400  1
  H  7  1  0.99966000  0.06796800  0.09703600  1
  H  8  1  0.01356500  0.89754000  0.13002100  1
  H  9  1  0.06159000  0.87863700  0.07803400  1
  H  16  1  0.00274300  0.12989700  0.11972300  1
  H  17  1  0.91521600  0.14574700  0.16853000  1
  H  18  1  0.94957400  0.95260000  0.14771700  1
  H  33  1  0.93600000  0.00632000  0.59912000  1
  H  34  1  0.10383500  0.02207300  0.63310000  1
  H  35  1  0.12292400  0.08337200  0.58199800  1
  H  42  1  0.87284600  0.01204300  0.62184000  1
  H  43  1  0.85371200  0.93056300  0.67128400  1
  H  44  1  0.04772900  0.95539000  0.65009700  1
  H  59  1  0.98951800  0.06160600  0.90013100  1
  H  60  1  0.97747700  0.88931400  0.86758700  1
  H  61  1  0.92211600  0.87409000  0.91923700  1
  H  68  1  0.97820400  0.12132600  0.87716100  1
  H  69  1  0.05919200  0.13946500  0.82770400  1
  H  70  1  0.04159800  0.94628600  0.84992100  1
  H  85  1  0.03335200  0.97421200  0.40070300  1
  H  86  1  0.87650400  0.03229400  0.36638500  1
  H  87  1  0.84325600  0.03925100  0.41934300  1
  H  94  1  0.10113800  0.01021400  0.37911600  1
  H  95  1  0.12580700  0.94953300  0.32778800  1
  H  96  1  0.92980200  0.96041000  0.34869900  1
  H  111  1  0.92379100  0.86158400  0.29193000  1
  H  118  1  0.06114300  0.00053900  0.20590600  1
  H  119  1  0.85455400  0.93761200  0.20585000  1
  H  120  1  0.97068600  0.07187200  0.28827600  1
  H  122  1  0.08293500  0.99040600  0.25125200  1
  H  123  1  0.12031300  0.00809800  0.23266300  1
  H  125  1  0.91560600  0.79586200  0.26602500  1
  H  126  1  0.92803500  0.83008600  0.24678900  1
  H  128  1  0.00239500  0.96893400  0.17952200  1
  H  130  1  0.94079300  0.01564400  0.31595300  1
  H  137  1  0.14840500  0.93066000  0.79372500  1
  H  144  1  0.00947400  0.06590100  0.70815700  1
  H  145  1  0.06471100  0.85714400  0.70749100  1
  H  146  1  0.93721600  0.97374400  0.79025500  1
  H  148  1  0.02168700  0.08555900  0.75355100  1
  H  149  1  0.00472800  0.12426600  0.73508800  1
  H  151  1  0.21314500  0.92020000  0.76763900  1
  H  152  1  0.17779100  0.93005000  0.74842800  1
  H  154  1  0.03932700  0.00616000  0.68156400  1
  H  156  1  0.99519600  0.94726200  0.81796200  1
  H  163  1  0.09376000  0.99329400  0.95636300  1
  H  170  1  0.89802400  0.99687600  0.04097700  1
  H  171  1  0.08398900  0.10644300  0.04056900  1
  H  172  1  0.90645400  0.10062500  0.95643600  1
  H  174  1  0.88444400  0.98053200  0.99558900  1
  H  175  1  0.84810100  0.96367400  0.01432900  1
  H  177  1  0.14552900  0.96459800  0.98313800  1
  H  178  1  0.10983700  0.98357800  0.00183300  1
  H  180  1  0.94982600  0.04900700  0.06738000  1
  H  182  1  0.04014900  0.04000900  0.92970700  1
  H  189  1  0.05453600  0.10889300  0.45747500  1
  H  196  1  0.06672300  0.91221000  0.54500900  1
  H  197  1  0.93039400  0.07738000  0.53813500  1
  H  198  1  0.00523100  0.89868000  0.45806700  1
  H  200  1  0.11726800  0.90079200  0.50118700  1
  H  201  1  0.12540000  0.86729200  0.52062300  1
  H  203  1  0.07618800  0.16516100  0.48422500  1
  H  204  1  0.06993100  0.12523800  0.50294000  1
  H  206  1  0.99407000  0.95364400  0.56828300  1
  H  208  1  0.05000300  0.03861200  0.43077200  1
  H  215  1  0.10977200  0.32986900  0.12188400  1
  H  222  1  0.94049000  0.69557600  0.14086200  1
  H  223  1  0.10193700  0.66516200  0.10584900  1
  H  224  1  0.90629600  0.35895900  0.13818200  1
  H  226  1  0.94002800  0.52742400  0.15697200  1
  H  227  1  0.90484200  0.60411200  0.15785700  1
  H  229  1  0.18144100  0.42476400  0.11874900  1
  H  230  1  0.15825100  0.50325000  0.12393800  1
  H  232  1  0.98408200  0.78914000  0.12682300  1
  H  234  1  0.03957800  0.23420200  0.12648700  1
  H  241  1  0.67175500  0.08729700  0.61208500  1
  H  248  1  0.30748100  0.91354600  0.63022300  1
  H  249  1  0.33264200  0.11891700  0.61501000  1
  H  250  1  0.64047400  0.91936700  0.64509000  1
  H  252  1  0.48039100  0.86682400  0.62620700  1
  H  253  1  0.40291300  0.84228400  0.63189100  1
  H  255  1  0.58008600  0.12657800  0.59559300  1
  H  256  1  0.50318900  0.09160200  0.59615700  1
  H  258  1  0.21114200  0.98188200  0.62647400  1
  H  260  1  0.76573600  0.03667600  0.62495300  1
  H  267  1  0.90979000  0.32238300  0.88833100  1
  H  274  1  0.08437900  0.68538600  0.86907200  1
  H  275  1  0.88305600  0.66249600  0.88753000  1
  H  276  1  0.06867600  0.35386900  0.85265300  1
  H  278  1  0.12879300  0.51132200  0.87147300  1
  H  279  1  0.15332200  0.58885200  0.86582700  1
  H  281  1  0.87560000  0.41345500  0.90570800  1
  H  282  1  0.91122800  0.48996100  0.90491500  1
  H  284  1  0.01838500  0.78258000  0.87409300  1
  H  286  1  0.95623800  0.22867800  0.87453400  1
  H  293  1  0.30558100  0.08296700  0.39101700  1
  H  300  1  0.66853800  0.92553800  0.36380700  1
  H  301  1  0.64487200  0.12016600  0.38627200  1
  H  302  1  0.33432300  0.93180600  0.35317300  1
  H  304  1  0.49771000  0.87426400  0.36859700  1
  H  305  1  0.57393600  0.85438500  0.36102800  1
  H  307  1  0.39954300  0.11662600  0.40762000  1
  H  308  1  0.47688700  0.08397800  0.40525200  1
  H  310  1  0.76511500  0.99166300  0.36942400  1
  H  312  1  0.20984500  0.03552900  0.37743700  1
  H  1255  1  0.35933000  0.42763800  0.09703600  1
  H  1256  1  0.37323500  0.25721000  0.13002100  1
  H  1257  1  0.42126000  0.23830700  0.07803400  1
  H  1264  1  0.36241300  0.48956700  0.11972300  1
  H  1265  1  0.27488600  0.50541700  0.16853000  1
  H  1266  1  0.30924400  0.31227000  0.14771700  1
  H  1281  1  0.29567000  0.36599000  0.59912000  1
  H  1282  1  0.46350500  0.38174300  0.63310000  1
  H  1283  1  0.48259400  0.44304200  0.58199800  1
  H  1290  1  0.23251600  0.37171300  0.62184000  1
  H  1291  1  0.21338200  0.29023300  0.67128400  1
  H  1292  1  0.40739900  0.31506000  0.65009700  1
  H  1307  1  0.34918800  0.42127600  0.90013100  1
  H  1308  1  0.33714700  0.24898400  0.86758700  1
  H  1309  1  0.28178600  0.23376000  0.91923700  1
  H  1316  1  0.33787400  0.48099600  0.87716100  1
  H  1317  1  0.41886200  0.49913500  0.82770400  1
  H  1318  1  0.40126800  0.30595600  0.84992100  1
  H  1333  1  0.39302200  0.33388200  0.40070300  1
  H  1334  1  0.23617400  0.39196400  0.36638500  1
  H  1335  1  0.20292600  0.39892100  0.41934300  1
  H  1342  1  0.46080800  0.36988400  0.37911600  1
  H  1343  1  0.48547700  0.30920300  0.32778800  1
  H  1344  1  0.28947200  0.32008000  0.34869900  1
  H  1359  1  0.28346100  0.22125400  0.29193000  1
  H  1366  1  0.42081300  0.36020900  0.20590600  1
  H  1367  1  0.21422400  0.29728200  0.20585000  1
  H  1368  1  0.33035600  0.43154200  0.28827600  1
  H  1370  1  0.44260500  0.35007600  0.25125200  1
  H  1371  1  0.47998300  0.36776800  0.23266300  1
  H  1373  1  0.27527600  0.15553190  0.26602500  1
  H  1374  1  0.28770500  0.18975590  0.24678900  1
  H  1376  1  0.36206500  0.32860400  0.17952200  1
  H  1378  1  0.30046300  0.37531400  0.31595300  1
  H  1385  1  0.50807500  0.29033000  0.79372500  1
  H  1392  1  0.36914400  0.42557100  0.70815700  1
  H  1393  1  0.42438100  0.21681400  0.70749100  1
  H  1394  1  0.29688600  0.33337367  0.79025500  1
  H  1396  1  0.38135700  0.44522900  0.75355100  1
  H  1397  1  0.36439800  0.48393600  0.73508800  1
  H  1399  1  0.57281500  0.27987000  0.76763900  1
  H  1400  1  0.53746100  0.28972000  0.74842800  1
  H  1402  1  0.39899700  0.36583000  0.68156400  1
  H  1404  1  0.35486600  0.30693200  0.81796200  1
  H  1411  1  0.45343000  0.35296400  0.95636300  1
  H  1418  1  0.25769400  0.35654600  0.04097700  1
  H  1419  1  0.44365900  0.46611300  0.04056900  1
  H  1420  1  0.26612400  0.46029500  0.95643600  1
  H  1422  1  0.24411400  0.34020200  0.99558900  1
  H  1423  1  0.20777100  0.32334400  0.01432900  1
  H  1425  1  0.50519900  0.32426800  0.98313800  1
  H  1426  1  0.46950700  0.34324800  0.00183300  1
  H  1428  1  0.30949600  0.40867700  0.06738000  1
  H  1430  1  0.39981900  0.39967900  0.92970700  1
  H  1437  1  0.41420600  0.46856300  0.45747500  1
  H  1444  1  0.42639300  0.27188000  0.54500900  1
  H  1445  1  0.29006400  0.43705000  0.53813500  1
  H  1446  1  0.36490100  0.25835000  0.45806700  1
  H  1448  1  0.47693800  0.26046200  0.50118700  1
  H  1449  1  0.48507000  0.22696200  0.52062300  1
  H  1451  1  0.43585800  0.52483100  0.48422500  1
  H  1452  1  0.42960100  0.48490800  0.50294000  1
  H  1454  1  0.35374000  0.31331400  0.56828300  1
  H  1456  1  0.40967300  0.39828200  0.43077200  1
  H  1463  1  0.46944200  0.68953900  0.12188400  1
  H  1470  1  0.30016000  0.05524590  0.14086200  1
  H  1471  1  0.46160700  0.02483190  0.10584900  1
  H  1472  1  0.26596600  0.71862900  0.13818200  1
  H  1474  1  0.29969800  0.88709400  0.15697200  1
  H  1475  1  0.26451200  0.96378200  0.15785700  1
  H  1477  1  0.54111100  0.78443400  0.11874900  1
  H  1478  1  0.51792100  0.86292000  0.12393800  1
  H  1480  1  0.34375200  0.14880990  0.12682300  1
  H  1482  1  0.39924800  0.59387200  0.12648700  1
  H  1489  1  0.03142490  0.44696700  0.61208500  1
  H  1496  1  0.66715100  0.27321600  0.63022300  1
  H  1497  1  0.69231200  0.47858700  0.61501000  1
  H  1498  1  0.00014386  0.27903700  0.64509000  1
  H  1500  1  0.84006100  0.22649400  0.62620700  1
  H  1501  1  0.76258300  0.20195400  0.63189100  1
  H  1503  1  0.93975600  0.48624800  0.59559300  1
  H  1504  1  0.86285900  0.45127200  0.59615700  1
  H  1506  1  0.57081200  0.34155200  0.62647400  1
  H  1508  1  0.12540590  0.39634600  0.62495300  1
  H  1515  1  0.26946000  0.68205300  0.88833100  1
  H  1522  1  0.44404900  0.04505590  0.86907200  1
  H  1523  1  0.24272600  0.02216590  0.88753000  1
  H  1524  1  0.42834600  0.71353900  0.85265300  1
  H  1526  1  0.48846300  0.87099200  0.87147300  1
  H  1527  1  0.51299200  0.94852200  0.86582700  1
  H  1529  1  0.23527000  0.77312500  0.90570800  1
  H  1530  1  0.27089800  0.84963100  0.90491500  1
  H  1532  1  0.37805500  0.14224990  0.87409300  1
  H  1534  1  0.31590800  0.58834800  0.87453400  1
  H  1541  1  0.66525100  0.44263700  0.39101700  1
  H  1548  1  0.02820790  0.28520800  0.36380700  1
  H  1549  1  0.00454186  0.47983600  0.38627200  1
  H  1550  1  0.69399300  0.29147600  0.35317300  1
  H  1552  1  0.85738000  0.23393400  0.36859700  1
  H  1553  1  0.93360600  0.21405500  0.36102800  1
  H  1555  1  0.75921300  0.47629600  0.40762000  1
  H  1556  1  0.83655700  0.44364800  0.40525200  1
  H  1558  1  0.12478490  0.35133300  0.36942400  1
  H  1560  1  0.56951500  0.39519900  0.37743700  1
  N  107  1  0.96131400  0.01927900  0.26558200  1
  N  117  1  0.90088000  0.94681000  0.22942400  1
  N  121  1  0.07878800  0.99555600  0.23889100  1
  N  124  1  0.92474200  0.83656600  0.25912700  1
  N  127  1  0.95859600  0.97836800  0.18519100  1
  N  129  1  0.95451200  0.97199700  0.31079100  1
  N  133  1  0.98913800  0.96316400  0.76750800  1
  N  143  1  0.05864200  0.90296600  0.73121000  1
  N  147  1  0.01624100  0.08213400  0.74118300  1
  N  150  1  0.17204000  0.92829200  0.76081000  1
  N  153  1  0.02698100  0.96311800  0.68723200  1
  N  155  1  0.03808800  0.96180200  0.81255400  1
  N  159  1  0.94929600  0.08052100  0.98001500  1
  N  169  1  0.04240000  0.08302800  0.01702000  1
  N  173  1  0.88475200  0.98629200  0.00796700  1
  N  176  1  0.10874400  0.98739000  0.98941100  1
  N  179  1  0.99329400  0.04403500  0.06125900  1
  N  181  1  0.99682000  0.03631600  0.93596800  1
  N  185  1  0.01713900  0.94522800  0.48149900  1
  N  195  1  0.97833800  0.04074600  0.51652200  1
  N  199  1  0.10249500  0.89999600  0.51308900  1
  N  202  1  0.06438100  0.12367000  0.49055200  1
  N  205  1  0.99021200  0.99761600  0.56228200  1
  N  207  1  0.01997100  0.00756900  0.43713000  1
  N  211  1  0.96420800  0.44455200  0.13431800  1
  N  221  1  0.06364600  0.58110800  0.11781700  1
  N  225  1  0.93389800  0.57189600  0.15161700  1
  N  228  1  0.14433000  0.45658400  0.12143200  1
  N  231  1  0.01440100  0.76425600  0.11910000  1
  N  233  1  0.00353000  0.26003100  0.13224800  1
  N  237  1  0.55667100  0.96079000  0.63374600  1
  N  247  1  0.41945300  0.06194600  0.61825800  1
  N  251  1  0.43419800  0.88007000  0.62941200  1
  N  254  1  0.54761200  0.09698700  0.60158100  1
  N  257  1  0.23575300  0.01920100  0.62083900  1
  N  259  1  0.74003600  0.00727700  0.63269100  1
  N  263  1  0.03164700  0.43732800  0.86504900  1
  N  273  1  0.93743200  0.57502000  0.88291800  1
  N  277  1  0.11565300  0.55803200  0.86874100  1
  N  280  1  0.90457400  0.44574500  0.89947200  1
  N  283  1  0.98227400  0.75830600  0.88028100  1
  N  285  1  0.98381000  0.25421900  0.86636600  1
  N  289  1  0.41919100  0.96959200  0.36477900  1
  N  299  1  0.55763700  0.06481300  0.38184200  1
  N  303  1  0.54252600  0.89007400  0.36493600  1
  N  306  1  0.43129500  0.09029800  0.40054200  1
  N  309  1  0.74069800  0.02457500  0.37663700  1
  N  311  1  0.23584600  0.01229100  0.36852700  1
  N  1355  1  0.32098400  0.37894900  0.26558200  1
  N  1365  1  0.26055000  0.30648000  0.22942400  1
  N  1369  1  0.43845800  0.35522600  0.23889100  1
  N  1372  1  0.28441200  0.19623590  0.25912700  1
  N  1375  1  0.31826600  0.33803800  0.18519100  1
  N  1377  1  0.31418200  0.33166700  0.31079100  1
  N  1381  1  0.34880800  0.32283400  0.76750800  1
  N  1391  1  0.41831200  0.26263600  0.73121000  1
  N  1395  1  0.37591100  0.44180400  0.74118300  1
  N  1398  1  0.53171000  0.28796200  0.76081000  1
  N  1401  1  0.38665100  0.32278800  0.68723200  1
  N  1403  1  0.39775800  0.32147200  0.81255400  1
  N  1407  1  0.30896600  0.44019100  0.98001500  1
  N  1417  1  0.40207000  0.44269800  0.01702000  1
  N  1421  1  0.24442200  0.34596200  0.00796700  1
  N  1424  1  0.46841400  0.34706000  0.98941100  1
  N  1427  1  0.35296400  0.40370500  0.06125900  1
  N  1429  1  0.35649000  0.39598600  0.93596800  1
  N  1433  1  0.37680900  0.30489800  0.48149900  1
  N  1443  1  0.33800800  0.40041600  0.51652200  1
  N  1447  1  0.46216500  0.25966600  0.51308900  1
  N  1450  1  0.42405100  0.48334000  0.49055200  1
  N  1453  1  0.34988200  0.35728600  0.56228200  1
  N  1455  1  0.37964100  0.36723900  0.43713000  1
  N  1459  1  0.32387800  0.80422200  0.13431800  1
  N  1469  1  0.42331600  0.94077800  0.11781700  1
  N  1473  1  0.29356800  0.93156600  0.15161700  1
  N  1476  1  0.50400000  0.81625400  0.12143200  1
  N  1479  1  0.37407100  0.12392590  0.11910000  1
  N  1481  1  0.36320000  0.61970100  0.13224800  1
  N  1485  1  0.91634100  0.32046000  0.63374600  1
  N  1495  1  0.77912300  0.42161600  0.61825800  1
  N  1499  1  0.79386800  0.23974000  0.62941200  1
  N  1502  1  0.90728200  0.45665700  0.60158100  1
  N  1505  1  0.59542300  0.37887100  0.62083900  1
  N  1507  1  0.09970590  0.36694700  0.63269100  1
  N  1511  1  0.39131700  0.79699800  0.86504900  1
  N  1521  1  0.29710200  0.93469000  0.88291800  1
  N  1525  1  0.47532300  0.91770200  0.86874100  1
  N  1528  1  0.26424400  0.80541500  0.89947200  1
  N  1531  1  0.34194400  0.11797590  0.88028100  1
  N  1533  1  0.34348000  0.61388900  0.86636600  1
  N  1537  1  0.77886100  0.32926200  0.36477900  1
  N  1547  1  0.91730700  0.42448300  0.38184200  1
  N  1551  1  0.90219600  0.24974400  0.36493600  1
  N  1554  1  0.79096500  0.44996800  0.40054200  1
  N  1557  1  0.10036790  0.38424500  0.37663700  1
  N  1559  1  0.59551600  0.37196100  0.36852700  1
  O  23  1  0.85663000  0.04342700  0.18417800  1
  O  24  1  0.06773500  0.76854800  0.09227400  1
  O  25  1  0.09840500  0.98406600  0.05980300  1
  O  26  1  0.92870800  0.25766100  0.15559100  1
  O  49  1  0.95266200  0.86762000  0.68699400  1
  O  50  1  0.23082100  0.09529800  0.59759000  1
  O  51  1  0.01031700  0.11688700  0.56402400  1
  O  52  1  0.74253200  0.95336000  0.65932000  1
  O  75  1  0.12809400  0.04280000  0.81307500  1
  O  76  1  0.91188000  0.76403600  0.90453700  1
  O  77  1  0.88945800  0.98072200  0.93756100  1
  O  78  1  0.03285700  0.25090500  0.83916800  1
  O  101  1  0.03102400  0.87834400  0.31246600  1
  O  102  1  0.74381500  0.07998900  0.40334400  1
  O  103  1  0.90990800  0.95791800  0.43879700  1
  O  104  1  0.23453500  0.97770000  0.34000600  1
  O  1271  1  0.21630000  0.40309700  0.18417800  1
  O  1272  1  0.42740500  0.12821790  0.09227400  1
  O  1273  1  0.45807500  0.34373600  0.05980300  1
  O  1274  1  0.28837800  0.61733100  0.15559100  1
  O  1297  1  0.31233200  0.22729000  0.68699400  1
  O  1298  1  0.59049100  0.45496800  0.59759000  1
  O  1299  1  0.36998700  0.47655700  0.56402400  1
  O  1300  1  0.10220190  0.31303000  0.65932000  1
  O  1323  1  0.48776400  0.40247000  0.81307500  1
  O  1324  1  0.27155000  0.12370590  0.90453700  1
  O  1325  1  0.24912800  0.34039200  0.93756100  1
  O  1326  1  0.39252700  0.61057500  0.83916800  1
  O  1349  1  0.39069400  0.23801400  0.31246600  1
  O  1350  1  0.10348490  0.43965900  0.40334400  1
  O  1351  1  0.26957800  0.31758800  0.43879700  1
  O  1352  1  0.59420500  0.33737000  0.34000600  1
