# generated using pymatgen
data_MnAgH4C8N3O2
_symmetry_space_group_name_H-M   'P 1'
_cell_length_a   7.78653000
_cell_length_b   11.50614000
_cell_length_c   13.41737928
_cell_angle_alpha   113.06162004
_cell_angle_beta   90.53956302
_cell_angle_gamma   91.10957000
_symmetry_Int_Tables_number   1
_chemical_formula_structural   MnAgH4C8N3O2
_chemical_formula_sum   'Mn4 Ag4 H16 C32 N12 O8'
_cell_volume   1105.63862844
_cell_formula_units_Z   4
loop_
 _symmetry_equiv_pos_site_id
 _symmetry_equiv_pos_as_xyz
  1  'x, y, z'
loop_
 _atom_site_type_symbol
 _atom_site_label
 _atom_site_symmetry_multiplicity
 _atom_site_fract_x
 _atom_site_fract_y
 _atom_site_fract_z
 _atom_site_occupancy
  Mn  Mn0  1  0.28831000  0.17870000  0.74611000  1
  Mn  Mn1  1  0.21687000  0.57030000  0.74742000  1
  Mn  Mn2  1  0.71220000  0.82050000  0.25337000  1
  Mn  Mn3  1  0.78508000  0.42997000  0.25263000  1
  Ag  Ag4  1  0.75164000  0.91283000  0.80938000  1
  Ag  Ag5  1  0.24938000  0.08646000  0.19036000  1
  Ag  Ag6  1  0.00061000  0.99988000  0.00007000  1
  Ag  Ag7  1  0.50116000  0.00027000  0.00020000  1
  H  H8  1  0.32949000  0.04786000  0.49662000  1
  H  H9  1  0.19256000  0.87388000  0.33562000  1
  H  H10  1  0.94781000  0.74009000  0.55933000  1
  H  H11  1  0.08465000  0.92322000  0.71025000  1
  H  H12  1  0.17428000  0.45266000  0.49639000  1
  H  H13  1  0.31575000  0.47121000  0.33663000  1
  H  H14  1  0.55962000  0.81792000  0.55907000  1
  H  H15  1  0.41792000  0.78138000  0.70913000  1
  H  H16  1  0.67113000  0.95233000  0.50297000  1
  H  H17  1  0.80872000  0.12607000  0.66412000  1
  H  H18  1  0.05345000  0.25964000  0.44018000  1
  H  H19  1  0.91603000  0.07691000  0.28946000  1
  H  H20  1  0.82735000  0.54730000  0.50425000  1
  H  H21  1  0.68542000  0.52868000  0.66391000  1
  H  H22  1  0.44148000  0.18219000  0.44072000  1
  H  H23  1  0.58368000  0.21939000  0.29106000  1
  C  C24  1  0.60204000  0.04956000  0.79428000  1
  C  C25  1  0.11324000  0.08926000  0.91055000  1
  C  C26  1  0.24146000  0.97880000  0.50636000  1
  C  C27  1  0.16613000  0.88201000  0.41751000  1
  C  C28  1  0.05514000  0.79525000  0.43532000  1
  C  C29  1  0.02958000  0.80721000  0.54190000  1
  C  C30  1  0.10615000  0.90893000  0.62629000  1
  C  C31  1  0.96133000  0.69456000  0.34336000  1
  C  C32  1  0.89174000  0.75713000  0.79152000  1
  C  C33  1  0.40017000  0.82016000  0.92121000  1
  C  C34  1  0.26336000  0.53059000  0.50653000  1
  C  C35  1  0.34158000  0.54139000  0.41803000  1
  C  C36  1  0.45381000  0.64464000  0.43497000  1
  C  C37  1  0.47703000  0.73473000  0.54134000  1
  C  C38  1  0.39762000  0.71515000  0.62557000  1
  C  C39  1  0.54909000  0.65489000  0.34359000  1
  C  C40  1  0.39941000  0.95004000  0.20536000  1
  C  C41  1  0.88817000  0.91036000  0.08964000  1
  C  C42  1  0.75967000  0.02113000  0.49331000  1
  C  C43  1  0.83519000  0.11787000  0.58217000  1
  C  C44  1  0.94623000  0.20457000  0.56423000  1
  C  C45  1  0.97177000  0.19246000  0.45761000  1
  C  C46  1  0.89487000  0.09079000  0.37331000  1
  C  C47  1  0.03969000  0.30545000  0.65643000  1
  C  C48  1  0.10973000  0.24245000  0.20834000  1
  C  C49  1  0.60218000  0.18041000  0.07890000  1
  C  C50  1  0.73804000  0.46957000  0.49415000  1
  C  C51  1  0.65983000  0.45843000  0.58251000  1
  C  C52  1  0.54761000  0.35514000  0.56528000  1
  C  C53  1  0.52447000  0.26527000  0.45877000  1
  C  C54  1  0.60384000  0.28534000  0.37474000  1
  C  C55  1  0.45160000  0.34487000  0.65636000  1
  N  N56  1  0.49717000  0.11339000  0.77912000  1
  N  N57  1  0.17658000  0.13374000  0.85389000  1
  N  N58  1  0.20823000  0.99557000  0.60974000  1
  N  N59  1  0.98380000  0.67334000  0.77986000  1
  N  N60  1  0.34040000  0.71868000  0.87287000  1
  N  N61  1  0.29383000  0.61337000  0.60998000  1
  N  N62  1  0.50423000  0.88642000  0.22079000  1
  N  N63  1  0.82452000  0.86606000  0.14635000  1
  N  N64  1  0.79258000  0.00430000  0.38988000  1
  N  N65  1  0.01750000  0.32626000  0.22040000  1
  N  N66  1  0.66203000  0.28196000  0.12687000  1
  N  N67  1  0.70789000  0.38705000  0.39060000  1
  O  O68  1  0.94080000  0.58740000  0.34827000  1
  O  O69  1  0.90826000  0.72283000  0.26514000  1
  O  O70  1  0.59279000  0.76852000  0.35486000  1
  O  O71  1  0.58443000  0.55512000  0.26225000  1
  O  O72  1  0.06008000  0.41275000  0.65178000  1
  O  O73  1  0.09220000  0.27701000  0.73469000  1
  O  O74  1  0.40664000  0.23122000  0.64436000  1
  O  O75  1  0.41655000  0.44448000  0.73798000  1
