# generated using pymatgen
data_NdH12(C7O2)3
_symmetry_space_group_name_H-M   'P 1'
_cell_length_a   8.97066000
_cell_length_b   14.23818000
_cell_length_c   15.29731000
_cell_angle_alpha   64.99157000
_cell_angle_beta   73.11634000
_cell_angle_gamma   89.98524000
_symmetry_Int_Tables_number   1
_chemical_formula_structural   NdH12(C7O2)3
_chemical_formula_sum   'Nd2 H24 C42 O12'
_cell_volume   1677.35983885
_cell_formula_units_Z   2
loop_
 _symmetry_equiv_pos_site_id
 _symmetry_equiv_pos_as_xyz
  1  'x, y, z'
loop_
 _atom_site_type_symbol
 _atom_site_label
 _atom_site_symmetry_multiplicity
 _atom_site_fract_x
 _atom_site_fract_y
 _atom_site_fract_z
 _atom_site_occupancy
  Nd  Nd0  1  0.63836000  0.00816000  0.46211000  1
  Nd  Nd1  1  0.10088000  0.99120000  0.53889000  1
  H  H2  1  0.81064000  0.80249000  0.33385000  1
  H  H3  1  0.81512000  0.63659000  0.31586000  1
  H  H4  1  0.16753000  0.55324000  0.46549000  1
  H  H5  1  0.16436000  0.72016000  0.48011000  1
  H  H6  1  0.92066000  0.53805000  0.24818000  1
  H  H7  1  0.87505000  0.36284000  0.25473000  1
  H  H8  1  0.01198000  0.22363000  0.52412000  1
  H  H9  1  0.04537000  0.39585000  0.52299000  1
  H  H10  1  0.42457000  0.72110000  0.76810000  1
  H  H11  1  0.33935000  0.55741000  0.92759000  1
  H  H12  1  0.80438000  0.57250000  0.95126000  1
  H  H13  1  0.89101000  0.73035000  0.78575000  1
  H  H14  1  0.14670000  0.19739000  0.66566000  1
  H  H15  1  0.13244000  0.36311000  0.68369000  1
  H  H16  1  0.63240000  0.44686000  0.53477000  1
  H  H17  1  0.64429000  0.27993000  0.51991000  1
  H  H18  1  0.16994000  0.46228000  0.75122000  1
  H  H19  1  0.13119000  0.63781000  0.74405000  1
  H  H20  1  0.53542000  0.77613000  0.47627000  1
  H  H21  1  0.56795000  0.60365000  0.47741000  1
  H  H22  1  0.19316000  0.28021000  0.23069000  1
  H  H23  1  0.26819000  0.44390000  0.07103000  1
  H  H24  1  0.75559000  0.42647000  0.04995000  1
  H  H25  1  0.67646000  0.26857000  0.21546000  1
  C  C26  1  0.97183000  0.86850000  0.42474000  1
  C  C27  1  0.98449000  0.77111000  0.40979000  1
  C  C28  1  0.88866000  0.74722000  0.36196000  1
  C  C29  1  0.89177000  0.65440000  0.35202000  1
  C  C30  1  0.98936000  0.58133000  0.39105000  1
  C  C31  1  0.08822000  0.60697000  0.43669000  1
  C  C32  1  0.08711000  0.70085000  0.44504000  1
  C  C33  1  0.98294000  0.48007000  0.38636000  1
  C  C34  1  0.93878000  0.46917000  0.30960000  1
  C  C35  1  0.91509000  0.37138000  0.31210000  1
  C  C36  1  0.93879000  0.28157000  0.39054000  1
  C  C37  1  0.99176000  0.29268000  0.46373000  1
  C  C38  1  0.01212000  0.39013000  0.46237000  1
  C  C39  1  0.89131000  0.17595000  0.40218000  1
  C  C40  1  0.71816000  0.83602000  0.66977000  1
  C  C41  1  0.66419000  0.73612000  0.76564000  1
  C  C42  1  0.50791000  0.68654000  0.80765000  1
  C  C43  1  0.46061000  0.59435000  0.89826000  1
  C  C44  1  0.56631000  0.54883000  0.95159000  1
  C  C45  1  0.72144000  0.60169000  0.90996000  1
  C  C46  1  0.77001000  0.69213000  0.81833000  1
  C  C47  1  0.39582000  0.13096000  0.57564000  1
  C  C48  1  0.39457000  0.22832000  0.59043000  1
  C  C49  1  0.25197000  0.25262000  0.63777000  1
  C  C50  1  0.24483000  0.34533000  0.64774000  1
  C  C51  1  0.38079000  0.41837000  0.60902000  1
  C  C52  1  0.52490000  0.39277000  0.56336000  1
  C  C53  1  0.53214000  0.29881000  0.55491000  1
  C  C54  1  0.36951000  0.51987000  0.61362000  1
  C  C55  1  0.24887000  0.53112000  0.68993000  1
  C  C56  1  0.22791000  0.62913000  0.68704000  1
  C  C57  1  0.33019000  0.71869000  0.60922000  1
  C  C58  1  0.45544000  0.70718000  0.53623000  1
  C  C59  1  0.47437000  0.60961000  0.53772000  1
  C  C60  1  0.29538000  0.82470000  0.59690000  1
  C  C61  1  0.38770000  0.16405000  0.33025000  1
  C  C62  1  0.42990000  0.26401000  0.23436000  1
  C  C63  1  0.31603000  0.31413000  0.19178000  1
  C  C64  1  0.35940000  0.40624000  0.10115000  1
  C  C65  1  0.51823000  0.45117000  0.04840000  1
  C  C66  1  0.63141000  0.39788000  0.09065000  1
  C  C67  1  0.58840000  0.30742000  0.18229000  1
  O  O68  1  0.85231000  0.91483000  0.41373000  1
  O  O69  1  0.08296000  0.89851000  0.44840000  1
  O  O70  1  0.89837000  0.09421000  0.48137000  1
  O  O71  1  0.82985000  0.16733000  0.34021000  1
  O  O72  1  0.62026000  0.87087000  0.62094000  1
  O  O73  1  0.85724000  0.88178000  0.64246000  1
  O  O74  1  0.26562000  0.08431000  0.58661000  1
  O  O75  1  0.53027000  0.10104000  0.55169000  1
  O  O76  1  0.38302000  0.90599000  0.51830000  1
  O  O77  1  0.17077000  0.83395000  0.65750000  1
  O  O78  1  0.24211000  0.12880000  0.37934000  1
  O  O79  1  0.49999000  0.11825000  0.35763000  1
