# generated using pymatgen
data_Cd3H40C66(NO6)2
_symmetry_space_group_name_H-M   'P 1'
_cell_length_a   15.90072000
_cell_length_b   17.46247000
_cell_length_c   17.62768000
_cell_angle_alpha   91.06363000
_cell_angle_beta   105.38218000
_cell_angle_gamma   116.84753000
_symmetry_Int_Tables_number   1
_chemical_formula_structural   Cd3H40C66(NO6)2
_chemical_formula_sum   'Cd6 H80 C132 N4 O24'
_cell_volume   4155.77141312
_cell_formula_units_Z   2
loop_
 _symmetry_equiv_pos_site_id
 _symmetry_equiv_pos_as_xyz
  1  'x, y, z'
loop_
 _atom_site_type_symbol
 _atom_site_label
 _atom_site_symmetry_multiplicity
 _atom_site_fract_x
 _atom_site_fract_y
 _atom_site_fract_z
 _atom_site_occupancy
  Cd  Cd1  1  0.68499000  0.38468000  0.56054000  1.0
  Cd  Cd2  1  0.76257000  0.27982000  0.73874000  1.0
  Cd  Cd3  1  0.84475000  0.17989000  0.92142000  1.0
  Cd  Cd4  1  0.31501000  0.61532000  0.43945000  1.0
  Cd  Cd5  1  0.23744000  0.72018000  0.26125000  1.0
  Cd  Cd6  1  0.15525000  0.82011000  0.07857000  1.0
  H  H1  1  0.55520000  0.47139000  0.47887000  1.0
  H  H2  1  0.41756000  0.44818000  0.35744000  1.0
  H  H3  1  0.40849000  0.20537000  0.28480000  1.0
  H  H4  1  0.54686000  0.23947000  0.41065000  1.0
  H  H5  1  0.29642000  0.24066000  0.20039000  1.0
  H  H6  1  0.28084000  0.40098000  0.25637000  1.0
  H  H7  1  0.16368000  0.42788000  0.14908000  1.0
  H  H8  1  0.00626000  0.36423000  0.03524000  1.0
  H  H9  1  0.99683000  0.12358000  0.01832000  1.0
  H  H10  1  0.15002000  0.17466000  0.13257000  1.0
  H  H11  1  0.94197000  0.31509000  0.65900000  1.0
  H  H12  1  0.03606000  0.23220000  0.67836000  1.0
  H  H13  1  0.79281000  0.02169000  0.50059000  1.0
  H  H14  1  0.69904000  0.10541000  0.48193000  1.0
  H  H15  1  0.11907000  0.18667000  0.61672000  1.0
  H  H16  1  0.12415000  0.94244000  0.61069000  1.0
  H  H17  1  0.84984000  0.94749000  0.57918000  1.0
  H  H18  1  0.23954000  0.21766000  0.55907000  1.0
  H  H19  1  0.42071000  0.29258000  0.57884000  1.0
  H  H20  1  0.45103000  0.09595000  0.70820000  1.0
  H  H21  1  0.27133000  0.02360000  0.69383000  1.0
  H  H22  1  0.02417000  0.81569000  0.53313000  1.0
  H  H23  1  0.93530000  0.65498000  0.52365000  1.0
  H  H24  1  0.72896000  0.67526000  0.62588000  1.0
  H  H25  1  0.81942000  0.83602000  0.64098000  1.0
  H  H26  1  0.82425000  0.44867000  0.00838000  1.0
  H  H27  1  0.73539000  0.53565000  0.99648000  1.0
  H  H28  1  0.49460000  0.34027000  0.80487000  1.0
  H  H29  1  0.58533000  0.25498000  0.81664000  1.0
  H  H30  1  0.67910000  0.61834000  0.91964000  1.0
  H  H31  1  0.40382000  0.62019000  0.89394000  1.0
  H  H32  1  0.41011000  0.37726000  0.86911000  1.0
  H  H33  1  0.73783000  0.74558000  0.99188000  1.0
  H  H34  1  0.82578000  0.90517000  0.99276000  1.0
  H  H35  1  0.56164000  0.89231000  0.83544000  1.0
  H  H36  1  0.47272000  0.73202000  0.83142000  1.0
  H  H37  1  0.26070000  0.54923000  0.81046000  1.0
  H  H38  1  0.08048000  0.47607000  0.79093000  1.0
  H  H39  1  0.09661000  0.25525000  0.88194000  1.0
  H  H40  1  0.27873000  0.32993000  0.90596000  1.0
  H  H41  1  0.44480000  0.52861000  0.52113000  1.0
  H  H42  1  0.58244000  0.55181000  0.64256000  1.0
  H  H43  1  0.59151000  0.79463000  0.71519000  1.0
  H  H44  1  0.45314000  0.76053000  0.58935000  1.0
  H  H45  1  0.70359000  0.75934000  0.79961000  1.0
  H  H46  1  0.71916000  0.59902000  0.74363000  1.0
  H  H47  1  0.83633000  0.57212000  0.85092000  1.0
  H  H48  1  0.99374000  0.63577000  0.96476000  1.0
  H  H49  1  0.00317000  0.87642000  0.98168000  1.0
  H  H50  1  0.84998000  0.82534000  0.86743000  1.0
  H  H51  1  0.05803000  0.68491000  0.34099000  1.0
  H  H52  1  0.96394000  0.76780000  0.32164000  1.0
  H  H53  1  0.20719000  0.97831000  0.49941000  1.0
  H  H54  1  0.30096000  0.89458000  0.51807000  1.0
  H  H55  1  0.88093000  0.81333000  0.38328000  1.0
  H  H56  1  0.87586000  0.05756000  0.38931000  1.0
  H  H57  1  0.15016000  0.05251000  0.42082000  1.0
  H  H58  1  0.76046000  0.78234000  0.44093000  1.0
  H  H59  1  0.57929000  0.70742000  0.42115000  1.0
  H  H60  1  0.54897000  0.90405000  0.29179000  1.0
  H  H61  1  0.72868000  0.97640000  0.30617000  1.0
  H  H62  1  0.97583000  0.18431000  0.46686000  1.0
  H  H63  1  0.06470000  0.34502000  0.47635000  1.0
  H  H64  1  0.27104000  0.32474000  0.37412000  1.0
  H  H65  1  0.18058000  0.16397000  0.35902000  1.0
  H  H66  1  0.17575000  0.55133000  0.99161000  1.0
  H  H67  1  0.26462000  0.46435000  0.00352000  1.0
  H  H68  1  0.50540000  0.65973000  0.19513000  1.0
  H  H69  1  0.41468000  0.74502000  0.18336000  1.0
  H  H70  1  0.32090000  0.38165000  0.08036000  1.0
  H  H71  1  0.59618000  0.37981000  0.10606000  1.0
  H  H72  1  0.58989000  0.62274000  0.13089000  1.0
  H  H73  1  0.26218000  0.25442000  0.00812000  1.0
  H  H74  1  0.17422000  0.09483000  0.00724000  1.0
  H  H75  1  0.43836000  0.10769000  0.16456000  1.0
  H  H76  1  0.52728000  0.26798000  0.16857000  1.0
  H  H77  1  0.73930000  0.45077000  0.18953000  1.0
  H  H78  1  0.91952000  0.52393000  0.20907000  1.0
  H  H79  1  0.90339000  0.74475000  0.11806000  1.0
  H  H80  1  0.72127000  0.67007000  0.09404000  1.0
  C  C1  1  0.51993000  0.41353000  0.43384000  1.0
  C  C2  1  0.44428000  0.40049000  0.36542000  1.0
  C  C3  1  0.40104000  0.32395000  0.30963000  1.0
  C  C4  1  0.43916000  0.26519000  0.32621000  1.0
  C  C5  1  0.51517000  0.28304000  0.39591000  1.0
  C  C6  1  0.31666000  0.29965000  0.23900000  1.0
  C  C7  1  0.26110000  0.34077000  0.21966000  1.0
  C  C8  1  0.17173000  0.30692000  0.15126000  1.0
  C  C9  1  0.12919000  0.36005000  0.12200000  1.0
  C  C10  1  0.04241000  0.32559000  0.05801000  1.0
  C  C11  1  0.03717000  0.19063000  0.04862000  1.0
  C  C12  1  0.12291000  0.22014000  0.11239000  1.0
  C  C13  1  0.75921000  0.26603000  0.55940000  1.0
  C  C14  1  0.81433000  0.21517000  0.56996000  1.0
  C  C15  1  0.90973000  0.25054000  0.62496000  1.0
  C  C16  1  0.96268000  0.20423000  0.63490000  1.0
  C  C17  1  0.92135000  0.12098000  0.59057000  1.0
  C  C18  1  0.82515000  0.08557000  0.53606000  1.0
  C  C19  1  0.77252000  0.13227000  0.52508000  1.0
  C  C20  1  0.97833000  0.07261000  0.59867000  1.0
  C  C21  1  0.08104000  0.11624000  0.61165000  1.0
  C  C22  1  0.13456000  0.07005000  0.61548000  1.0
  C  C23  1  0.08373000  0.97908000  0.60799000  1.0
  C  C24  1  0.98139000  0.93398000  0.59570000  1.0
  C  C25  1  0.92959000  0.98171000  0.59052000  1.0
  C  C26  1  0.24196000  0.11513000  0.62551000  1.0
  C  C27  1  0.28561000  0.19158000  0.59324000  1.0
  C  C28  1  0.38692000  0.23319000  0.60317000  1.0
  C  C29  1  0.44700000  0.19868000  0.64433000  1.0
  C  C30  1  0.40395000  0.12187000  0.67564000  1.0
  C  C31  1  0.30316000  0.08134000  0.66689000  1.0
  C  C32  1  0.55609000  0.24459000  0.65775000  1.0
  C  C33  1  0.92858000  0.83826000  0.58791000  1.0
  C  C34  1  0.96055000  0.78588000  0.55503000  1.0
  C  C35  1  0.91085000  0.69570000  0.54888000  1.0
  C  C36  1  0.82737000  0.65554000  0.57523000  1.0
  C  C37  1  0.79418000  0.70708000  0.60661000  1.0
  C  C38  1  0.84428000  0.79707000  0.61358000  1.0
  C  C39  1  0.77520000  0.55942000  0.57162000  1.0
  C  C40  1  0.76281000  0.29312000  0.91982000  1.0
  C  C41  1  0.71079000  0.34651000  0.91273000  1.0
  C  C42  1  0.75267000  0.42593000  0.96343000  1.0
  C  C43  1  0.70232000  0.47446000  0.95658000  1.0
  C  C44  1  0.60750000  0.44363000  0.90103000  1.0
  C  C45  1  0.56639000  0.36424000  0.85003000  1.0
  C  C46  1  0.61761000  0.31662000  0.85561000  1.0
  C  C47  1  0.55131000  0.49244000  0.89772000  1.0
  C  C48  1  0.59978000  0.58366000  0.91021000  1.0
  C  C49  1  0.54695000  0.63057000  0.90584000  1.0
  C  C50  1  0.44418000  0.58428000  0.89181000  1.0
  C  C51  1  0.39309000  0.49288000  0.87751000  1.0
  C  C52  1  0.44792000  0.44796000  0.88041000  1.0
  C  C53  1  0.59814000  0.72643000  0.91190000  1.0
  C  C54  1  0.69829000  0.77684000  0.95735000  1.0
  C  C55  1  0.74830000  0.86617000  0.95796000  1.0
  C  C56  1  0.69953000  0.90827000  0.91357000  1.0
  C  C57  1  0.59909000  0.85915000  0.86950000  1.0
  C  C58  1  0.54942000  0.76963000  0.86851000  1.0
  C  C59  1  0.75453000  0.00417000  0.91419000  1.0
  C  C60  1  0.28425000  0.44599000  0.86092000  1.0
  C  C61  1  0.22598000  0.48566000  0.82799000  1.0
  C  C62  1  0.12449000  0.44462000  0.81637000  1.0
  C  C63  1  0.07690000  0.36120000  0.83588000  1.0
  C  C64  1  0.13373000  0.32008000  0.86730000  1.0
  C  C65  1  0.23564000  0.36195000  0.87971000  1.0
  C  C66  1  0.96694000  0.31581000  0.81909000  1.0
  C  C67  1  0.48007000  0.58647000  0.56616000  1.0
  C  C68  1  0.55572000  0.59951000  0.63458000  1.0
  C  C69  1  0.59896000  0.67605000  0.69037000  1.0
  C  C70  1  0.56084000  0.73481000  0.67379000  1.0
  C  C71  1  0.48483000  0.71696000  0.60409000  1.0
  C  C72  1  0.68334000  0.70035000  0.76100000  1.0
  C  C73  1  0.73890000  0.65923000  0.78034000  1.0
  C  C74  1  0.82827000  0.69308000  0.84874000  1.0
  C  C75  1  0.87081000  0.63995000  0.87800000  1.0
  C  C76  1  0.95759000  0.67441000  0.94199000  1.0
  C  C77  1  0.96284000  0.80937000  0.95138000  1.0
  C  C78  1  0.87709000  0.77986000  0.88760000  1.0
  C  C79  1  0.24079000  0.73397000  0.44060000  1.0
  C  C80  1  0.18567000  0.78483000  0.43004000  1.0
  C  C81  1  0.09027000  0.74945000  0.37504000  1.0
  C  C82  1  0.03732000  0.79577000  0.36510000  1.0
  C  C83  1  0.07866000  0.87902000  0.40943000  1.0
  C  C84  1  0.17485000  0.91442000  0.46394000  1.0
  C  C85  1  0.22748000  0.86773000  0.47491000  1.0
  C  C86  1  0.02167000  0.92739000  0.40132000  1.0
  C  C87  1  0.91896000  0.88376000  0.38835000  1.0
  C  C88  1  0.86544000  0.92995000  0.38452000  1.0
  C  C89  1  0.91627000  0.02092000  0.39200000  1.0
  C  C90  1  0.01861000  0.06602000  0.40430000  1.0
  C  C91  1  0.07042000  0.01829000  0.40948000  1.0
  C  C92  1  0.75804000  0.88487000  0.37449000  1.0
  C  C93  1  0.71439000  0.80842000  0.40676000  1.0
  C  C94  1  0.61309000  0.76681000  0.39683000  1.0
  C  C95  1  0.55300000  0.80132000  0.35567000  1.0
  C  C96  1  0.59605000  0.87813000  0.32436000  1.0
  C  C97  1  0.69684000  0.91866000  0.33311000  1.0
  C  C98  1  0.44391000  0.75540000  0.34225000  1.0
  C  C99  1  0.07142000  0.16174000  0.41209000  1.0
  C  C100  1  0.03945000  0.21412000  0.44497000  1.0
  C  C101  1  0.08915000  0.30430000  0.45112000  1.0
  C  C102  1  0.17263000  0.34446000  0.42477000  1.0
  C  C103  1  0.20582000  0.29292000  0.39338000  1.0
  C  C104  1  0.15572000  0.20293000  0.38642000  1.0
  C  C105  1  0.22480000  0.44058000  0.42838000  1.0
  C  C106  1  0.23719000  0.70688000  0.08018000  1.0
  C  C107  1  0.28922000  0.65349000  0.08727000  1.0
  C  C108  1  0.24734000  0.57407000  0.03656000  1.0
  C  C109  1  0.29769000  0.52553000  0.04342000  1.0
  C  C110  1  0.39250000  0.55637000  0.09897000  1.0
  C  C111  1  0.43362000  0.63576000  0.14997000  1.0
  C  C112  1  0.38240000  0.68338000  0.14438000  1.0
  C  C113  1  0.44869000  0.50756000  0.10228000  1.0
  C  C114  1  0.40022000  0.41634000  0.08979000  1.0
  C  C115  1  0.45305000  0.36943000  0.09416000  1.0
  C  C116  1  0.55582000  0.41572000  0.10819000  1.0
  C  C117  1  0.60691000  0.50712000  0.12249000  1.0
  C  C118  1  0.55209000  0.55204000  0.11959000  1.0
  C  C119  1  0.40186000  0.27357000  0.08810000  1.0
  C  C120  1  0.30171000  0.22316000  0.04264000  1.0
  C  C121  1  0.25171000  0.13383000  0.04204000  1.0
  C  C122  1  0.30047000  0.09173000  0.08642000  1.0
  C  C123  1  0.40092000  0.14085000  0.13050000  1.0
  C  C124  1  0.45058000  0.23037000  0.13149000  1.0
  C  C125  1  0.24548000  0.99582000  0.08581000  1.0
  C  C126  1  0.71575000  0.55400000  0.13908000  1.0
  C  C127  1  0.77402000  0.51434000  0.17201000  1.0
  C  C128  1  0.87552000  0.55538000  0.18363000  1.0
  C  C129  1  0.92310000  0.63880000  0.16412000  1.0
  C  C130  1  0.86627000  0.67992000  0.13270000  1.0
  C  C131  1  0.76437000  0.63805000  0.12029000  1.0
  C  C132  1  0.03306000  0.68418000  0.18091000  1.0
  N  N1  1  0.55485000  0.35589000  0.44934000  1.0
  N  N2  1  0.99642000  0.24211000  0.02178000  1.0
  N  N3  1  0.44516000  0.64410000  0.55066000  1.0
  N  N4  1  0.00358000  0.75789000  0.97822000  1.0
  O  O1  1  0.78462000  0.32544000  0.62010000  1.0
  O  O2  1  0.69306000  0.25449000  0.49610000  1.0
  O  O3  1  0.60226000  0.20071000  0.68191000  1.0
  O  O4  1  0.59688000  0.32372000  0.64807000  1.0
  O  O5  1  0.70204000  0.52527000  0.60000000  1.0
  O  O6  1  0.80513000  0.51355000  0.54062000  1.0
  O  O7  1  0.73978000  0.23796000  0.85716000  1.0
  O  O8  1  0.82504000  0.29907000  0.98426000  1.0
  O  O9  1  0.84847000  0.04374000  0.94553000  1.0
  O  O10  1  0.70567000  0.04359000  0.88380000  1.0
  O  O11  1  0.92278000  0.36155000  0.79603000  1.0
  O  O12  1  0.92274000  0.23556000  0.82471000  1.0
  O  O13  1  0.21538000  0.67455000  0.37990000  1.0
  O  O14  1  0.30694000  0.74551000  0.50390000  1.0
  O  O15  1  0.39775000  0.79929000  0.31809000  1.0
  O  O16  1  0.40312000  0.67628000  0.35193000  1.0
  O  O17  1  0.29796000  0.47473000  0.40000000  1.0
  O  O18  1  0.19487000  0.48645000  0.45938000  1.0
  O  O19  1  0.26022000  0.76204000  0.14284000  1.0
  O  O20  1  0.17496000  0.70093000  0.01574000  1.0
  O  O21  1  0.15154000  0.95625000  0.05446000  1.0
  O  O22  1  0.29434000  0.95641000  0.11620000  1.0
  O  O23  1  0.07722000  0.63844000  0.20397000  1.0
  O  O24  1  0.07726000  0.76443000  0.17529000  1.0
