# generated using pymatgen
data_LaH6(C4O3)3
_symmetry_space_group_name_H-M   'P 1'
_cell_length_a   7.48837000
_cell_length_b   12.96554000
_cell_length_c   15.88162000
_cell_angle_alpha   114.01895000
_cell_angle_beta   99.64351000
_cell_angle_gamma   90.00808000
_symmetry_Int_Tables_number   1
_chemical_formula_structural   LaH6(C4O3)3
_chemical_formula_sum   'La4 H24 C48 O36'
_cell_volume   1384.53634671
_cell_formula_units_Z   4
loop_
 _symmetry_equiv_pos_site_id
 _symmetry_equiv_pos_as_xyz
  1  'x, y, z'
loop_
 _atom_site_type_symbol
 _atom_site_label
 _atom_site_symmetry_multiplicity
 _atom_site_fract_x
 _atom_site_fract_y
 _atom_site_fract_z
 _atom_site_occupancy
  La  La1  1  0.70383000  0.10340000  0.80023000  1.0
  La  La2  1  0.79725000  0.30391000  0.19978000  1.0
  La  La3  1  0.29617000  0.89660000  0.19977000  1.0
  La  La4  1  0.20275000  0.69609000  0.80023000  1.0
  H  H1  1  0.85545000  0.06005000  0.60821000  1.0
  H  H2  1  0.47104000  0.57961000  0.34628000  1.0
  H  H3  1  0.73666000  0.34473000  0.79866000  1.0
  H  H4  1  0.63863000  0.94659000  0.46623000  1.0
  H  H5  1  0.72558000  0.63988000  0.57695000  1.0
  H  H6  1  0.14552000  0.47439000  0.14112000  1.0
  H  H7  1  0.64423000  0.45231000  0.39145000  1.0
  H  H8  1  0.02907000  0.23274000  0.65312000  1.0
  H  H9  1  0.76370000  0.54654000  0.20183000  1.0
  H  H10  1  0.85979000  0.48017000  0.53348000  1.0
  H  H11  1  0.77371000  0.06327000  0.42294000  1.0
  H  H12  1  0.35472000  0.33343000  0.85922000  1.0
  H  H13  1  0.14455000  0.93995000  0.39179000  1.0
  H  H14  1  0.52895000  0.42039000  0.65372000  1.0
  H  H15  1  0.26334000  0.65527000  0.20134000  1.0
  H  H16  1  0.36136000  0.05341000  0.53377000  1.0
  H  H17  1  0.27442000  0.36012000  0.42306000  1.0
  H  H18  1  0.85447000  0.52561000  0.85889000  1.0
  H  H19  1  0.35577000  0.54769000  0.60856000  1.0
  H  H20  1  0.97093000  0.76726000  0.34688000  1.0
  H  H21  1  0.23630000  0.45346000  0.79818000  1.0
  H  H22  1  0.14021000  0.51983000  0.46652000  1.0
  H  H23  1  0.22628000  0.93673000  0.57707000  1.0
  H  H24  1  0.64528000  0.66657000  0.14079000  1.0
  C  C1  1  0.77932000  0.81611000  0.61173000  1.0
  C  C2  1  0.75777000  0.90323000  0.57999000  1.0
  C  C3  1  0.66097000  0.87981000  0.49078000  1.0
  C  C4  1  0.58584000  0.76973000  0.43101000  1.0
  C  C5  1  0.61310000  0.68184000  0.46167000  1.0
  C  C6  1  0.70850000  0.70606000  0.55151000  1.0
  C  C7  1  0.87115000  0.83739000  0.70938000  1.0
  C  C8  1  0.47269000  0.74726000  0.33843000  1.0
  C  C9  1  0.99086000  0.39188000  0.00182000  1.0
  C  C10  1  0.90694000  0.40676000  0.92133000  1.0
  C  C11  1  0.08250000  0.48608000  0.07903000  1.0
  C  C12  1  0.97331000  0.28251000  0.01151000  1.0
  C  C13  1  0.71933000  0.20458000  0.38787000  1.0
  C  C14  1  0.74108000  0.32339000  0.41955000  1.0
  C  C15  1  0.83738000  0.38893000  0.50889000  1.0
  C  C16  1  0.91267000  0.33865000  0.56876000  1.0
  C  C17  1  0.88625000  0.22015000  0.53801000  1.0
  C  C18  1  0.79034000  0.15480000  0.44825000  1.0
  C  C19  1  0.62843000  0.12853000  0.28996000  1.0
  C  C20  1  0.02434000  0.40919000  0.66172000  1.0
  C  C21  1  0.50982000  0.39016000  0.99832000  1.0
  C  C22  1  0.59338000  0.48548000  0.07882000  1.0
  C  C23  1  0.41791000  0.40721000  0.92109000  1.0
  C  C24  1  0.52699000  0.27094000  0.98815000  1.0
  C  C25  1  0.22068000  0.18389000  0.38828000  1.0
  C  C26  1  0.24223000  0.09677000  0.42001000  1.0
  C  C27  1  0.33902000  0.12018000  0.50922000  1.0
  C  C28  1  0.41416000  0.23026000  0.56899000  1.0
  C  C29  1  0.38690000  0.31816000  0.53834000  1.0
  C  C30  1  0.29150000  0.29394000  0.44850000  1.0
  C  C31  1  0.12885000  0.16260000  0.29062000  1.0
  C  C32  1  0.52731000  0.25274000  0.66157000  1.0
  C  C33  1  0.00914000  0.60812000  0.99819000  1.0
  C  C34  1  0.09305000  0.59324000  0.07867000  1.0
  C  C35  1  0.91750000  0.51392000  0.92097000  1.0
  C  C36  1  0.02669000  0.71749000  0.98850000  1.0
  C  C37  1  0.28067000  0.79542000  0.61214000  1.0
  C  C38  1  0.25891000  0.67661000  0.58046000  1.0
  C  C39  1  0.16262000  0.61107000  0.49111000  1.0
  C  C40  1  0.08733000  0.66135000  0.43124000  1.0
  C  C41  1  0.11374000  0.77985000  0.46199000  1.0
  C  C42  1  0.20966000  0.84520000  0.55175000  1.0
  C  C43  1  0.37156000  0.87147000  0.71005000  1.0
  C  C44  1  0.97566000  0.59081000  0.33829000  1.0
  C  C45  1  0.49018000  0.60984000  0.00168000  1.0
  C  C46  1  0.40662000  0.51452000  0.92119000  1.0
  C  C47  1  0.58209000  0.59279000  0.07891000  1.0
  C  C48  1  0.47301000  0.72906000  0.01186000  1.0
  O  O1  1  0.85775000  0.93110000  0.77705000  1.0
  O  O2  1  0.95560000  0.75632000  0.71877000  1.0
  O  O3  1  0.40078000  0.64556000  0.28726000  1.0
  O  O4  1  0.44765000  0.82872000  0.31376000  1.0
  O  O5  1  0.83165000  0.01122000  0.64083000  1.0
  O  O6  1  0.54337000  0.57336000  0.40501000  1.0
  O  O7  1  0.92895000  0.19003000  0.93891000  1.0
  O  O8  1  0.99956000  0.28708000  0.09467000  1.0
  O  O9  1  0.81174000  0.31768000  0.84465000  1.0
  O  O10  1  0.64220000  0.15588000  0.22290000  1.0
  O  O11  1  0.54462000  0.03736000  0.27935000  1.0
  O  O12  1  0.09887000  0.35887000  0.71262000  1.0
  O  O13  1  0.04474000  0.51559000  0.68692000  1.0
  O  O14  1  0.66871000  0.37103000  0.35868000  1.0
  O  O15  1  0.95700000  0.16801000  0.59443000  1.0
  O  O16  1  0.57178000  0.25036000  0.06044000  1.0
  O  O17  1  0.50012000  0.19306000  0.90469000  1.0
  O  O18  1  0.68834000  0.47352000  0.15590000  1.0
  O  O19  1  0.14225000  0.06890000  0.22296000  1.0
  O  O20  1  0.04440000  0.24368000  0.28124000  1.0
  O  O21  1  0.59922000  0.35444000  0.71274000  1.0
  O  O22  1  0.55235000  0.17127000  0.68624000  1.0
  O  O23  1  0.16835000  0.98878000  0.35917000  1.0
  O  O24  1  0.45662000  0.42664000  0.59500000  1.0
  O  O25  1  0.07105000  0.80997000  0.06110000  1.0
  O  O26  1  0.00044000  0.71292000  0.90534000  1.0
  O  O27  1  0.18826000  0.68232000  0.15536000  1.0
  O  O28  1  0.35780000  0.84412000  0.77710000  1.0
  O  O29  1  0.45538000  0.96264000  0.72066000  1.0
  O  O30  1  0.90113000  0.64113000  0.28739000  1.0
  O  O31  1  0.95525000  0.48441000  0.31309000  1.0
  O  O32  1  0.33129000  0.62897000  0.64133000  1.0
  O  O33  1  0.04300000  0.83199000  0.40558000  1.0
  O  O34  1  0.42822000  0.74964000  0.93956000  1.0
  O  O35  1  0.49988000  0.80694000  0.09531000  1.0
  O  O36  1  0.31165000  0.52648000  0.84411000  1.0
